data_mof_unit_8226.cif
_audit_creation_date              2013-03-05T15:43:42-0500
_audit_creation_method            fapswitch 2.2
_symmetry_space_group_name_H-M    P1
_symmetry_Int_Tables_number       1
_space_group_crystal_system       triclinic
_cell_length_a                    14.915105
_cell_length_b                    10.697854
_cell_length_c                    10.067764
_cell_angle_alpha                 92.017043
_cell_angle_beta                  90.442065
_cell_angle_gamma                 90.623736
_cell_volume                      1605.26538233

loop_
_atom_site_label
_atom_site_type_symbol
_atom_site_description
_atom_site_fract_x
_atom_site_fract_y
_atom_site_fract_z
_atom_type_partial_charge
O1    O     O_R   0.499990 0.319060 0.613040 -0.561236
O2    O     O_R   0.500010 0.319100 0.386900 -0.631428
C1    C     C_R   0.499703 0.262829 0.497052 0.937383
O3    O     O_R   0.367830 0.499950 0.613080 -0.574314
O4    O     O_R   0.367860 0.499990 0.386940 -0.630079
C2    C     C_R   0.327269 0.501644 0.499474 0.908556
Zn1   Zn    Zn3+2 0.499980 0.499970 0.650990 1.104569
Zn2   Zn    Zn3+2 0.500020 0.500030 0.349010 0.998741
O5    O     O_R   0.499990 0.680900 0.613100 -0.575999
O6    O     O_R   0.500010 0.680940 0.386960 -0.653105
O7    O     O_R   0.632140 0.500010 0.613060 -0.564631
O8    O     O_R   0.632170 0.500050 0.386920 -0.599111
C3    C     C_R   0.505165 0.737609 0.502929 0.920861
C4    C     C_R   0.672883 0.500373 0.500386 0.935390
C5    C     C_R   0.813606 0.617203 0.533226 0.197363
C6    C     C_R   0.768513 0.505323 0.500093 -0.086677
C7    C     C_R   0.813231 0.398886 0.456046 -0.256815
C8    C     C_R   0.906220 0.400141 0.444811 0.033349
C9    C     C_R   0.953446 0.512598 0.481521 0.047056
C10   C     C_R   0.906920 0.621778 0.522395 0.023373
C11   C     C_R   0.953423 0.292185 0.400646 -0.035777
C12   C     C_R   0.046882 0.296624 0.401068 -0.130189
C13   C     C_R   0.093157 0.405430 0.441829 0.088843
C14   C     C_R   0.047253 0.515365 0.479824 0.052353
C15   C     C_R   0.095345 0.626902 0.518213 -0.026412
C16   C     C_R   0.047355 0.739614 0.538252 -0.046653
C17   C     C_R   0.954200 0.734213 0.546428 -0.109332
C18   C     C_R   0.185552 0.404970 0.445179 -0.253852
C19   C     C_R   0.232028 0.508608 0.496631 -0.063845
C20   C     C_R   0.188941 0.618932 0.537596 0.156709
H1    H     H_    0.773797 0.315444 0.433664 0.165655
H2    H     H_    0.084228 0.214554 0.369216 0.190987
H3    H     H_    0.221799 0.321766 0.413344 0.148037
H4    H     H_    0.918806 0.820572 0.565327 0.237675
C21   C     C_2   0.537985 0.930918 0.401264 -0.248371
C22   C     C_2   0.526473 0.868480 0.512855 0.121279
H5    H     H_    0.535952 0.884036 0.303770 0.178914
C23   C     C_2   0.547616 0.064939 0.404985 0.329440
C24   C     C_2   0.494526 0.130888 0.487166 -0.321159
H6    H     H_    0.444057 0.086545 0.547480 0.164029
C25   C     C_2   0.494329 0.600058 0.929318 0.080674
N1    N     N_2   0.500970 0.501330 0.852150 0.005318
H7    H     H_    0.473610 0.687065 0.886925 0.153463
C26   C     C_2   0.512269 0.599342 0.076658 -0.055156
N2    N     N_2   0.500990 0.501360 0.147810 -0.164281
H8    H     H_    0.536021 0.685664 0.125217 0.150575
Br1   Br    Br    0.746231 0.762014 0.591611 -0.429198
Br2   Br    Br    0.552335 0.938736 0.690476 -0.373182
Br3   Br    Br    0.633851 0.136208 0.287162 -0.462820
Br4   Br    Br    0.587261 0.381041 0.899295 -0.330933
C27   C     C_2   0.435859 0.408691 0.105387 0.664498
H9    H     H_    0.444295 0.312854 0.134423 0.075330
O9    O     O_2   0.367571 0.436475 0.045701 -0.578395
C28   C     C_2   0.907986 0.174607 0.351344 0.485895
H10   H     H_    0.839444 0.174386 0.315594 0.110435
O10   O     O_2   0.947860 0.075426 0.347427 -0.530035
Br5   Br    Br    0.258848 0.745097 0.637368 -0.491234
C29   C     C_2   0.089935 0.865293 0.532116 0.548055
H11   H     H_    0.149967 0.878174 0.473850 0.082526
O11   O     O_2   0.057181 0.956393 0.589040 -0.513112

loop_
_geom_bond_atom_site_label_1
_geom_bond_atom_site_label_2
_geom_bond_distance
_ccdc_geom_bond_type
O4    Zn2   2.010719 S    
C13   C14   1.410008 A    
C22   Br2   1.949339 S    
C19   C20   1.400843 A    
C10   C17   1.400362 A    
C8    C11   1.418993 A    
C16   C29   1.484145 S    
C25   N1    1.294066 D    
C28   H10   1.081150 S    
C21   C22   1.338334 D    
C5    Br1   1.932393 S    
Zn2   O8    2.004746 S    
C25   C26   1.505595 S    
C2    C19   1.423404 S    
C7    C8    1.392365 A    
C29   H11   1.084399 S    
C1    C24   1.412716 S    
C27   H9    1.084322 S    
C23   Br3   1.925767 S    
O1    Zn1   1.959467 S    
C11   C12   1.394211 A    
C14   C15   1.425574 A    
Zn1   O7    2.010716 S    
C25   H7    1.084537 S    
C16   C17   1.393181 A    
O4    C2    1.288362 A    
C12   H2    1.085140 S    
N1    Br4   1.899297 S    
O3    Zn1   2.004749 S    
C4    C6    1.426770 S    
C18   C19   1.383977 A    
C21   H5    1.086488 S    
C26   H8    1.084294 S    
C18   H3    1.086448 S    
C9    C14   1.399384 A    
O2    C1    1.280339 A    
C17   H4    1.080834 S    
C11   C28   1.489993 S    
C7    H1    1.079772 S    
O7    C4    1.291123 A    
C28   O10   1.221549 D    
O3    C2    1.290551 A    
Zn2   N2    2.026347 S    
N2    C27   1.432386 S    
C29   O11   1.221578 D    
C5    C6    1.395370 A    
C20   Br5   1.943082 S    
C15   C20   1.412000 A    
C21   C23   1.438501 S    
C23   C24   1.338101 D    
C26   N2    1.300404 D    
C3    C22   1.432155 S    
Zn2   O6    1.959466 S    
C8    C9    1.423478 A    
Zn1   N1    2.024709 S    
C24   H6    1.086250 S    
Zn1   O5    1.985924 S    
O5    C3    1.285280 A    
C12   C13   1.394332 A    
C6    C7    1.386931 A    
O1    C1    1.294567 A    
C15   C16   1.418029 A    
C13   C18   1.378300 A    
O2    Zn2   1.985922 S    
C9    C10   1.415385 A    
O8    C4    1.289447 A    
C5    C10   1.397342 A    
C27   O9    1.223337 D    
O6    C3    1.297837 A    
