data_mof_unit_32016.cif
_audit_creation_date              2012-12-10T17:08:13-0500
_audit_creation_method            fapswitch 2.2
_symmetry_space_group_name_H-M    P1
_symmetry_Int_Tables_number       1
_space_group_crystal_system       triclinic
_cell_length_a                    23.539478
_cell_length_b                    10.891457
_cell_length_c                    9.795285
_cell_angle_alpha                 109.492209
_cell_angle_beta                  97.680903
_cell_angle_gamma                 90.553851
_cell_volume                      2342.17491094

loop_
_atom_site_label
_atom_site_type_symbol
_atom_type_description
_atom_site_fract_x
_atom_site_fract_y
_atom_site_fract_z
_atom_type_partial_charge
C1    C     C_R   0.495377 0.252758 0.442789 0.785518
C2    C     C_R   0.505440 0.746131 0.556113 0.764420
C3    C     C_R   0.239564 0.612059 0.503878 0.405250
C4    C     C_R   0.751239 0.446629 0.344996 0.356777
C5    C     C_R   0.299789 0.617498 0.516979 0.232504
C6    C     C_R   0.692010 0.447101 0.351395 0.255438
C7    C     C_R   0.329353 0.504569 0.509142 -0.371770
C8    C     C_R   0.671701 0.483632 0.488787 -0.373513
C9    C     C_R   0.299296 0.393563 0.510993 0.230968
C10   C     C_R   0.711858 0.505142 0.617217 0.260813
C11   C     C_R   0.241878 0.401216 0.538193 0.321985
C12   C     C_R   0.770247 0.484967 0.606113 0.319384
C13   C     C_R   0.210147 0.505198 0.519886 0.017893
C14   C     C_R   0.790145 0.463236 0.471811 0.047976
C15   C     C_2   0.489869 0.110168 0.418975 0.136371
C16   C     C_2   0.510376 0.886495 0.575240 0.142555
C17   C     C_2   0.468162 0.073797 0.522331 0.430136
C18   C     C_2   0.465658 0.934685 0.511488 0.359134
C19   C     C_2   0.506293 0.513913 0.085322 0.398047
C20   C     C_2   0.488026 0.524516 0.935706 0.376555
C21   C     C_R   0.391329 0.502615 0.502690 0.999899
C22   C     C_R   0.609109 0.495898 0.497030 0.878715
C23   C     C_R   0.880607 0.587434 0.532221 0.630400
C24   C     C_R   0.117129 0.390495 0.408819 0.658276
C25   C     C_R   0.876937 0.359780 0.396077 0.632172
C26   C     C_R   0.120584 0.602423 0.587993 0.653434
C27   C     C_R   0.935867 0.366509 0.383228 -0.174589
C28   C     C_R   0.060612 0.606859 0.558182 -0.193069
C29   C     C_R   0.967956 0.485738 0.458918 -0.131276
C30   C     C_R   0.028364 0.491246 0.468995 -0.146005
C31   C     C_R   0.939852 0.598906 0.528489 -0.188687
C32   C     C_R   0.056721 0.379764 0.396388 -0.159788
C33   C     C_R   0.963890 0.257119 0.301473 0.363596
C34   C     C_R   0.032009 0.722906 0.614314 0.391845
C35   C     C_R   0.024290 0.262084 0.312087 0.360898
C36   C     C_R   0.971850 0.719947 0.593364 0.379419
Cu1   Cu    Cu3+1 0.509980 0.521810 0.644910 0.997724
Cu2   Cu    Cu3+1 0.490020 0.478190 0.355090 0.960320
H1    H     H_    0.567533 0.553799 0.903529 0.205761
H2    H     H_    0.435765 0.406138 0.077497 0.176298
N1    N     N_R   0.850772 0.469626 0.466870 -0.408138
N2    N     N_R   0.148041 0.498467 0.507515 -0.419093
N3    N     N_2   0.475010 0.445410 0.137370 -0.337423
N4    N     N_2   0.524990 0.554590 0.862630 -0.332719
O1    O     O_R   0.505330 0.332340 0.577400 -0.521599
O2    O     O_R   0.494670 0.667660 0.422600 -0.576141
O3    O     O_R   0.488470 0.295500 0.332650 -0.623675
O4    O     O_R   0.511530 0.704500 0.667350 -0.613561
O5    O     O_R   0.426310 0.518390 0.622390 -0.512623
O6    O     O_R   0.573690 0.481610 0.377610 -0.481232
O7    O     O_R   0.409450 0.481550 0.377650 -0.599190
O8    O     O_R   0.590550 0.518450 0.622350 -0.547327
O9    O     O_2   0.852863 0.692210 0.603705 -0.518869
O10   O     O_2   0.144829 0.295295 0.320588 -0.531871
O11   O     O_2   0.846239 0.244316 0.343180 -0.530506
O12   O     O_2   0.151175 0.699820 0.697994 -0.504938
O13   O     O_3   0.933338 0.141522 0.216751 -0.536362
C37   C     C_3   0.907681 0.154438 0.083215 0.055353
H3    H     H_    0.940042 0.183980 0.025182 0.089465
H4    H     H_    0.874766 0.228518 0.101151 0.190518
C38   C     C_3   0.878261 0.024277 0.984233 -0.670091
H5    H     H_    0.910430 0.949214 0.956917 0.266536
H6    H     H_    0.845878 0.992217 0.039929 0.248211
H7    H     H_    0.856217 0.034539 0.881519 0.196468
O14   O     O_3   0.061959 0.840947 0.691764 -0.547247
C39   C     C_3   0.080485 0.898523 0.594019 0.121597
H8    H     H_    0.058754 0.855574 0.478535 0.099982
H9    H     H_    0.127267 0.887480 0.592974 0.214896
C40   C     C_3   0.070398 0.043517 0.648717 -0.807972
H10   H     H_    0.092862 0.089096 0.762134 0.238224
H11   H     H_    0.086598 0.091160 0.576218 0.247384
H12   H     H_    0.024030 0.059151 0.649610 0.256717
O15   O     O_3   0.051702 0.146288 0.264836 -0.534208
C41   C     C_3   0.055137 0.109861 0.113645 0.130884
H13   H     H_    0.065160 0.195004 0.079952 0.119948
H14   H     H_    0.014435 0.058276 0.048741 0.174464
C42   C     C_3   0.102234 0.014245 0.077160 -0.684220
H15   H     H_    0.144146 0.058917 0.142077 0.261908
H16   H     H_    0.106267 0.986490 0.959385 0.241495
H17   H     H_    0.091637 0.924918 0.101699 0.235885
O16   O     O_3   0.945268 0.836292 0.643581 -0.530194
C43   C     C_3   0.924962 0.875860 0.522740 0.122050
H18   H     H_    0.895057 0.800154 0.438070 0.136619
H19   H     H_    0.961079 0.896478 0.469897 0.133141
C44   C     C_3   0.892730 0.999570 0.575048 -0.758592
H20   H     H_    0.920289 0.076260 0.664230 0.232977
H21   H     H_    0.880167 0.036245 0.482883 0.238837
H22   H     H_    0.853310 0.978567 0.616108 0.246821
O17   O     O_3   0.209883 0.714721 0.483149 -0.550878
C45   C     C_3   0.200636 0.695711 0.332203 -0.317698
H23   H     H_    0.175043 0.602749 0.269274 0.151664
H24   H     H_    0.241944 0.698015 0.289221 0.183244
H25   H     H_    0.175692 0.776591 0.315123 0.182754
O18   O     O_3   0.771059 0.422661 0.212335 -0.559767
C46   C     C_3   0.775106 0.541506 0.185340 -0.271131
H26   H     H_    0.808480 0.610368 0.266756 0.143660
H27   H     H_    0.733170 0.587493 0.184634 0.180480
H28   H     H_    0.787863 0.521650 0.075449 0.195265
O19   O     O_3   0.329131 0.732403 0.531805 -0.530972
C47   C     C_3   0.335752 0.815600 0.680184 0.175229
H29   H     H_    0.382386 0.833345 0.722147 0.135437
H30   H     H_    0.315924 0.775845 0.755443 0.103148
C48   C     C_3   0.310364 0.945989 0.690300 -0.722506
H31   H     H_    0.319578 0.014397 0.804743 0.165063
H32   H     H_    0.329175 0.989673 0.617895 0.288102
H33   H     H_    0.263176 0.932272 0.657460 0.268972
O20   O     O_3   0.654357 0.418131 0.222516 -0.494108
C49   C     C_3   0.646458 0.281125 0.158131 0.163011
H34   H     H_    0.634420 0.235387 0.237398 0.103347
H35   H     H_    0.686138 0.238636 0.116250 0.168849
C50   C     C_3   0.598176 0.247735 0.030100 -0.792098
H36   H     H_    0.608054 0.292598 0.948817 0.260703
H37   H     H_    0.592279 0.140524 0.977425 0.189152
H38   H     H_    0.557545 0.283697 0.069510 0.253722
O21   O     O_3   0.324860 0.275743 0.479481 -0.530389
C51   C     C_3   0.305335 0.203310 0.330769 0.111559
H39   H     H_    0.321385 0.251276 0.257885 0.124387
H40   H     H_    0.257537 0.191468 0.307366 0.190166
C52   C     C_3   0.327554 0.068110 0.293985 -0.787678
H41   H     H_    0.313873 0.020711 0.369444 0.276702
H42   H     H_    0.310219 0.008367 0.179472 0.180979
H43   H     H_    0.374935 0.075444 0.305199 0.238323
O22   O     O_3   0.693784 0.541722 0.753279 -0.539617
C53   C     C_3   0.711686 0.673918 0.831458 0.157078
H44   H     H_    0.709824 0.735007 0.759510 0.123491
H45   H     H_    0.756276 0.680687 0.888675 0.188384
C54   C     C_3   0.672654 0.730812 0.945924 -0.875874
H46   H     H_    0.671667 0.669847 0.016487 0.260705
H47   H     H_    0.688625 0.831631 0.014985 0.201538
H48   H     H_    0.628476 0.733768 0.891469 0.247657
O23   O     O_3   0.214942 0.301398 0.567972 -0.519842
C55   C     C_3   0.239540 0.301269 0.707726 0.108382
H49   H     H_    0.240903 0.400373 0.791670 0.127816
H50   H     H_    0.283581 0.265215 0.705230 0.200956
C56   C     C_3   0.203053 0.211565 0.754934 -0.817430
H51   H     H_    0.197201 0.113090 0.670010 0.265130
H52   H     H_    0.224209 0.203217 0.859577 0.200348
H53   H     H_    0.160637 0.253074 0.771584 0.248120
O24   O     O_3   0.809085 0.495894 0.729123 -0.552975
C57   C     C_3   0.814534 0.370888 0.741670 0.092741
H54   H     H_    0.816037 0.292690 0.634166 0.152922
H55   H     H_    0.777916 0.346980 0.791214 0.172122
C58   C     C_3   0.870248 0.370790 0.840075 -0.806426
H56   H     H_    0.870640 0.445231 0.950026 0.245518
H57   H     H_    0.874489 0.273290 0.851715 0.189342
H58   H     H_    0.907340 0.392634 0.791019 0.253506
O25   O     O_3   0.412145 0.869389 0.475756 -0.583570
C59   C     C_3   0.397516 0.814539 0.322564 -0.269247
H59   H     H_    0.416368 0.869440 0.260307 0.142954
H60   H     H_    0.350191 0.810640 0.294734 0.196351
H61   H     H_    0.409582 0.712064 0.285313 0.201648
O26   O     O_3   0.438143 0.162864 0.621109 -0.545203
C60   C     C_3   0.450147 0.152237 0.761594 -0.262963
H62   H     H_    0.497144 0.161865 0.800152 0.166064
H63   H     H_    0.431096 0.059601 0.764338 0.141357
H64   H     H_    0.430227 0.232826 0.839242 0.193147
O27   O     O_3   0.562208 0.962081 0.624313 -0.614530
C61   C     C_3   0.602500 0.914056 0.711561 0.064091
H65   H     H_    0.611167 0.810609 0.655973 0.134431
H66   H     H_    0.586956 0.923670 0.816518 0.151534
C62   C     C_3   0.659350 0.993156 0.742969 -0.803374
H67   H     H_    0.652644 0.099134 0.783811 0.264107
H68   H     H_    0.689234 0.968880 0.826719 0.200103
H69   H     H_    0.679085 0.970493 0.641117 0.242165
O28   O     O_3   0.510332 0.014741 0.303131 -0.630472
C63   C     C_3   0.501033 0.044097 0.171849 0.057494
H70   H     H_    0.532828 0.121662 0.176638 0.186086
H71   H     H_    0.456228 0.072635 0.150523 0.150697
C64   C     C_3   0.510167 0.926709 0.041550 -0.878709
H72   H     H_    0.485341 0.839814 0.041025 0.228356
H73   H     H_    0.495407 0.946183 0.938560 0.205224
H74   H     H_    0.556560 0.908953 0.045730 0.238361
O29   O     O_3   0.430563 0.502560 0.877803 -0.542670
C65   C     C_3   0.403091 0.619938 0.934425 0.094970
H75   H     H_    0.409085 0.684579 0.869898 0.155447
H76   H     H_    0.419822 0.674208 0.050701 0.069158
C66   C     C_3   0.339328 0.590104 0.925525 -0.852726
H77   H     H_    0.332480 0.521719 0.985074 0.239648
H78   H     H_    0.318081 0.681654 0.975519 0.199611
H79   H     H_    0.319875 0.545926 0.809614 0.239065
O30   O     O_3   0.559360 0.567463 0.164264 -0.519250
C67   C     C_3   0.563524 0.703824 0.196077 0.080549
H80   H     H_    0.524021 0.750652 0.233975 0.174622
H81   H     H_    0.571981 0.727362 0.099461 0.117905
C68   C     C_3   0.614346 0.762621 0.314724 -0.675536
H82   H     H_    0.655016 0.727836 0.273714 0.212115
H83   H     H_    0.615650 0.870716 0.348459 0.233719
H84   H     H_    0.610596 0.732826 0.410616 0.232613

loop_
_geom_bond_atom_site_label_1
_geom_bond_atom_site_label_2
_ccdc_geom_bond_type
C58   H58   S    
C39   H9    S    
O27   C61   S    
C56   H53   S    
C24   N2    A    
C64   H72   S    
C46   H26   S    
C57   C58   S    
O25   C59   S    
C19   O30   S    
C21   O5    A    
O16   C43   S    
O13   C37   S    
C46   H28   S    
O22   C53   S    
C63   H71   S    
C42   H15   S    
C27   C33   A    
O28   C63   S    
C41   H14   S    
C53   H45   S    
Cu1   Cu2   S    
C57   H55   S    
C44   H20   S    
C33   C35   A    
C68   H83   S    
C39   C40   S    
C27   C29   A    
C37   H4    S    
O21   C51   S    
O30   C67   S    
C49   H34   S    
C38   H6    S    
O15   C41   S    
C40   H11   S    
C65   H75   S    
C61   C62   S    
C20   N4    D    
C67   H80   S    
C48   H32   S    
H2    N3    S    
C58   H57   S    
C68   H82   S    
C19   C20   S    
C51   H40   S    
C55   H49   S    
C66   H78   S    
C41   C42   S    
C8    C22   S    
O20   C49   S    
C59   H61   S    
C1    C15   S    
C60   H63   S    
C2    C16   S    
C38   H5    S    
C3    C13   A    
C22   O6    A    
C37   C38   S    
C44   H21   S    
C39   H8    S    
C28   C34   A    
C61   H66   S    
C64   H73   S    
C50   H38   S    
O18   C46   S    
C54   H47   S    
C34   O14   S    
C13   N2    S    
C62   H68   S    
C19   N3    D    
C23   O9    S    
C65   H76   S    
C52   H42   S    
C41   H13   S    
C9    O21   S    
C32   C35   A    
C5    O19   S    
C56   H51   S    
C42   H16   S    
C59   H59   S    
C4    C6    A    
C18   O25   S    
C52   H41   S    
C25   N1    A    
C5    C7    A    
Cu1   O8    S    
C1    O3    A    
C68   H84   S    
C6    C8    A    
Cu2   O7    S    
C2    O4    A    
C37   H3    S    
O29   C65   S    
C47   C48   S    
C2    O2    A    
C26   O12   S    
Cu1   O4    S    
C67   C68   S    
C23   C31   A    
C40   H12   S    
C24   C32   A    
C29   C30   A    
Cu1   O5    S    
C45   H24   S    
C20   O29   S    
C36   O16   S    
C6    O20   S    
C66   H79   S    
C47   H30   S    
C17   C18   S    
C12   O24   S    
C50   H37   S    
C16   C18   D    
C57   H54   S    
C60   H64   S    
C9    C11   A    
C65   C66   S    
Cu2   O3    S    
C10   C12   A    
C66   H77   S    
C53   C54   S    
C4    O18   S    
C8    C10   A    
C12   C14   A    
C10   O22   S    
C43   H19   S    
C14   N1    S    
C63   H70   S    
C64   H74   S    
C17   O26   S    
Cu1   O1    S    
C54   H46   S    
C21   O7    A    
C62   H69   S    
C26   N2    A    
C45   H25   S    
C22   O8    A    
C42   H17   S    
C56   H52   S    
C51   C52   S    
C35   O15   S    
C33   O13   S    
C50   H36   S    
C16   O27   S    
C25   O11   S    
C59   H60   S    
C3    C5    A    
O23   C55   S    
C11   O23   S    
O24   C57   S    
C46   H27   S    
C15   C17   D    
H1    N4    S    
Cu2   O6    S    
C25   C27   A    
C43   C44   S    
C26   C28   A    
C23   N1    A    
C49   C50   S    
C3    O17   S    
Cu1   N4    S    
C28   C30   A    
O17   C45   S    
C54   H48   S    
Cu2   N3    S    
C29   C31   A    
C7    C21   S    
O19   C47   S    
C38   H7    S    
C30   C32   A    
C11   C13   A    
C1    O1    A    
C45   H23   S    
C61   H65   S    
C62   H67   S    
C55   C56   S    
C47   H29   S    
C52   H43   S    
C49   H35   S    
C51   H39   S    
C48   H33   S    
C34   C36   A    
C44   H22   S    
O14   C39   S    
C4    C14   A    
C40   H10   S    
C67   H81   S    
Cu2   O2    S    
C7    C9    A    
O26   C60   S    
C63   C64   S    
C55   H50   S    
C43   H18   S    
C48   H31   S    
C31   C36   A    
C15   O28   S    
C60   H62   S    
C24   O10   S    
C58   H56   S    
C53   H44   S    
