data_mof_unit_17073.cif
_audit_creation_date              2012-10-26T18:50:02-0400
_audit_creation_method            fapswitch 2.2
_symmetry_space_group_name_H-M    P1
_symmetry_Int_Tables_number       1
_space_group_crystal_system       triclinic
_cell_length_a                    10.939952
_cell_length_b                    12.920502
_cell_length_c                    11.747781
_cell_angle_alpha                 101.864198
_cell_angle_beta                  93.732885
_cell_angle_gamma                 92.224763
_cell_volume                      1619.30536261

loop_
_atom_site_label
_atom_site_type_symbol
_atom_type_description
_atom_site_fract_x
_atom_site_fract_y
_atom_site_fract_z
_atom_type_partial_charge
C1    C     C_R   0.503774 0.299078 0.476904 0.567391
C2    C     C_R   0.552376 0.864367 0.463728 -0.127745
C3    C     C_R   0.460623 0.029320 0.538674 0.009005
C4    C     C_R   0.539388 0.970681 0.461329 0.009002
C5    C     C_R   0.421178 0.377232 0.012424 -0.102789
C6    C     C_R   0.578824 0.622767 0.987577 -0.102793
C7    C     C_R   0.424723 0.389407 0.134114 0.252079
C8    C     C_R   0.575279 0.610592 0.865885 0.252076
C9    C     C_R   0.528169 0.557690 0.160813 0.053972
C10   C     C_R   0.471831 0.442310 0.839187 0.053974
C11   C     C_R   0.526992 0.545535 0.037469 0.006797
C12   C     C_R   0.496226 0.700922 0.523096 0.567392
C13   C     C_R   0.473009 0.454466 0.962532 0.006799
C14   C     C_R   0.261737 0.489663 0.499848 0.540509
C15   C     C_R   0.738263 0.510336 0.500152 0.540511
C16   C     C_R   0.127240 0.512768 0.720870 -0.045931
C17   C     C_R   0.872760 0.487223 0.279128 -0.045930
C18   C     C_R   0.078092 0.565781 0.822014 0.124476
C19   C     C_R   0.921909 0.434206 0.177985 0.124479
C20   C     C_R   0.969203 0.616102 0.813528 -0.049790
C21   C     C_R   0.030798 0.383885 0.186472 -0.049787
C22   C     C_R   0.904906 0.605256 0.705334 -0.084309
C23   C     C_R   0.487084 0.814939 0.537424 -0.005372
C24   C     C_R   0.095095 0.394735 0.294667 -0.084306
C25   C     C_R   0.948102 0.545145 0.603636 0.006334
C26   C     C_R   0.051899 0.454849 0.396364 0.006334
C27   C     C_R   0.068977 0.511654 0.608775 0.004503
C28   C     C_R   0.931023 0.488341 0.391225 0.004503
C29   C     C_R   0.874192 0.521542 0.497303 -0.023180
C30   C     C_R   0.125808 0.478454 0.502697 -0.023183
C31   C     C_R   0.512920 0.185061 0.462576 -0.005369
C32   C     C_R   0.603975 0.019473 0.383691 0.116099
C33   C     C_R   0.396045 0.980530 0.616317 0.116101
C34   C     C_R   0.592958 0.128210 0.386681 0.119922
C35   C     C_R   0.407055 0.871793 0.613325 0.119925
C36   C     C_R   0.447629 0.135632 0.536272 -0.127741
Cu1   Cu    Cu3+1 0.509250 0.507730 0.615930 1.014914
Cu2   Cu    Cu3+1 0.490750 0.492270 0.384070 1.014914
H1    H     H_    0.379757 0.305635 0.956081 0.147730
H2    H     H_    0.387455 0.182757 0.592768 0.150472
H3    H     H_    0.427286 0.372211 0.783077 0.126850
H4    H     H_    0.572713 0.627790 0.216923 0.126847
H5    H     H_    0.620246 0.694365 0.043919 0.147724
H6    H     H_    0.823185 0.647137 0.699439 0.162629
H7    H     H_    0.176817 0.352853 0.300565 0.162625
H8    H     H_    0.067069 0.338376 0.109263 0.171779
H9    H     H_    0.932931 0.661608 0.890737 0.171778
H10   H     H_    0.207702 0.469601 0.733024 0.153852
H11   H     H_    0.792298 0.530390 0.266972 0.153854
H12   H     H_    0.612541 0.817240 0.407227 0.150472
I1    I     I_    0.170731 0.574222 0.987129 -0.335667
I2    I     I_    0.829266 0.425759 0.012869 -0.335657
I3    I     I_    0.292649 0.791034 0.712761 -0.194773
I4    I     I_    0.707362 0.208975 0.287248 -0.194780
I5    I     I_    0.718332 0.930440 0.261118 -0.282633
I6    I     I_    0.281734 0.069568 0.738912 -0.282645
I7    I     I_    0.648653 0.753153 0.826563 -0.279011
I8    I     I_    0.351355 0.246843 0.173434 -0.279008
N1    N     N_R   0.523180 0.519350 0.790130 -0.223337
N2    N     N_R   0.476820 0.480650 0.209870 -0.223337
O1    O     O_R   0.506570 0.354460 0.582000 -0.518283
O2    O     O_R   0.493430 0.645540 0.418000 -0.518285
O3    O     O_R   0.490940 0.341410 0.386200 -0.458617
O4    O     O_R   0.509060 0.658590 0.613800 -0.458615
O5    O     O_R   0.327470 0.506520 0.597900 -0.510734
O6    O     O_R   0.672530 0.493480 0.402100 -0.510734
O7    O     O_R   0.311840 0.493460 0.402100 -0.487139
O8    O     O_R   0.688160 0.506540 0.597900 -0.487141

loop_
_geom_bond_atom_site_label_1
_geom_bond_atom_site_label_2
_ccdc_geom_bond_type
C19   C21   A    
Cu1   O1    S    
C14   O7    A    
C10   C13   A    
C34   I4    S    
Cu1   Cu2   S    
C8    I7    S    
C25   C27   A    
C11   C13   A    
C7    I8    S    
C5    C13   A    
C6    C11   A    
C1    C31   S    
C9    N2    A    
C16   H10   S    
C33   I6    S    
C2    H12   S    
C10   N1    A    
C31   C34   A    
C4    C32   A    
C27   C30   A    
C9    C11   A    
C12   C23   S    
C15   O8    A    
C9    H4    S    
Cu1   N1    S    
C3    C36   A    
C14   C30   S    
Cu2   N2    S    
C2    C4    A    
C1    O3    A    
C16   C27   A    
C28   C29   A    
C33   C35   A    
C14   O5    A    
C20   C22   A    
C18   I1    S    
C15   C29   S    
C10   H3    S    
C23   C35   A    
C6    H5    S    
C5    H1    S    
C8    N1    A    
C25   C29   A    
C12   O4    A    
Cu1   O5    S    
C20   H9    S    
C35   I3    S    
C24   H7    S    
C1    O1    A    
C3    C4    A    
Cu1   O8    S    
C7    N2    A    
C36   H2    S    
Cu1   O4    S    
C12   O2    A    
Cu2   O7    S    
C18   C20   A    
C16   C18   A    
C21   H8    S    
C21   C24   A    
C17   H11   S    
C2    C23   A    
C5    C7    A    
C3    C33   A    
C31   C36   A    
C6    C8    A    
C32   I5    S    
C17   C19   A    
Cu2   O3    S    
C15   O6    A    
C26   C28   A    
C19   I2    S    
C22   C25   A    
C22   H6    S    
Cu2   O6    S    
C17   C28   A    
C24   C26   A    
Cu2   O2    S    
C26   C30   A    
C32   C34   A    
