data_mof_unit_42091.cif
_audit_creation_date              2012-12-10T17:28:38-0500
_audit_creation_method            fapswitch 2.2
_symmetry_space_group_name_H-M    P1
_symmetry_Int_Tables_number       1
_space_group_crystal_system       triclinic
_cell_length_a                    10.592761
_cell_length_b                    12.017314
_cell_length_c                    12.798894
_cell_angle_alpha                 94.387312
_cell_angle_beta                  90.647855
_cell_angle_gamma                 85.811444
_cell_volume                      1620.11503243

loop_
_atom_site_label
_atom_site_type_symbol
_atom_type_description
_atom_site_fract_x
_atom_site_fract_y
_atom_site_fract_z
_atom_type_partial_charge
C1    C     C_R   0.497436 0.522678 0.700480 0.874651
C2    C     C_R   0.435956 0.540526 0.131712 -0.281095
C3    C     C_R   0.538334 0.456740 0.974826 0.178521
C4    C     C_R   0.452498 0.538983 0.025077 0.189643
C5    C     C_R   0.432949 0.945050 0.370495 0.501817
C6    C     C_R   0.591312 0.051432 0.616210 0.475502
C7    C     C_R   0.435746 0.830323 0.388325 -0.247958
C8    C     C_R   0.584596 0.166143 0.602755 -0.227687
C9    C     C_R   0.521041 0.863378 0.558840 0.636610
C10   C     C_R   0.469118 0.139436 0.443455 0.640719
C11   C     C_R   0.529595 0.978468 0.543267 -0.291671
C12   C     C_R   0.500846 0.477036 0.299602 0.874325
C13   C     C_R   0.476707 0.021079 0.451106 -0.277500
C14   C     C_R   0.740379 0.497387 0.486484 0.883327
C15   C     C_R   0.261321 0.503358 0.517775 0.867403
C16   C     C_R   0.910570 0.286176 0.476615 -0.124815
C17   C     C_R   0.094349 0.715865 0.540646 -0.110173
C18   C     C_R   0.975266 0.194561 0.518815 -0.193555
C19   C     C_R   0.029861 0.808969 0.500987 -0.188106
C20   C     C_R   0.081543 0.210141 0.581483 -0.187468
C21   C     C_R   0.922719 0.795393 0.438914 -0.162147
C22   C     C_R   0.129296 0.315439 0.593989 -0.131977
C23   C     C_R   0.504214 0.461560 0.188091 -0.038550
C24   C     C_R   0.874791 0.690298 0.423570 -0.102213
C25   C     C_R   0.069202 0.407125 0.545101 0.075988
C26   C     C_R   0.933738 0.596846 0.470877 0.081430
C27   C     C_R   0.950973 0.395670 0.497667 0.088693
C28   C     C_R   0.052155 0.607312 0.518232 0.097756
C29   C     C_R   0.125986 0.508789 0.539439 -0.267300
C30   C     C_R   0.877394 0.493885 0.473341 -0.267404
C31   C     C_3   0.301969 0.929963 0.223106 -0.351948
C32   C     C_3   0.786149 0.005040 0.682155 -0.261470
C33   C     C_3   0.280068 0.185893 0.361027 -0.161375
C34   C     C_R   0.489537 0.536287 0.812056 -0.027739
C35   C     C_3   0.457626 0.848989 0.724658 -0.199863
C36   C     C_R   0.385262 0.618667 0.968055 -0.209535
C37   C     C_R   0.602198 0.374560 0.031275 -0.214877
C38   C     C_R   0.402216 0.615896 0.860796 -0.229131
C39   C     C_R   0.584483 0.376618 0.138464 -0.182576
C40   C     C_R   0.558015 0.457557 0.868722 -0.266113
H1    H     H_    0.875089 0.866698 0.404521 0.130793
H2    H     H_    0.623838 0.394916 0.829405 0.147819
H3    H     H_    0.637578 0.315745 0.183092 0.161147
H4    H     H_    0.343459 0.672125 0.815654 0.130140
H5    H     H_    0.317814 0.680738 0.005811 0.132574
H6    H     H_    0.666980 0.310560 0.993028 0.148294
H7    H     H_    0.628234 0.222560 0.659870 0.181836
H8    H     H_    0.407594 0.770286 0.327282 0.181463
H9    H     H_    0.224942 0.919289 0.279316 0.144928
H10   H     H_    0.334909 0.848657 0.181596 0.165133
H11   H     H_    0.261030 0.983879 0.162867 0.192080
H12   H     H_    0.129856 0.139856 0.616970 0.127885
H13   H     H_    0.821511 0.089685 0.679778 0.143547
H14   H     H_    0.809799 0.953224 0.608166 0.164262
H15   H     H_    0.836458 0.963867 0.746919 0.193048
H16   H     H_    0.236972 0.269990 0.385753 0.182316
H17   H     H_    0.244498 0.123827 0.411875 0.108362
H18   H     H_    0.244444 0.166128 0.280480 0.178706
H19   H     H_    0.487338 0.818388 0.801297 0.194379
H20   H     H_    0.435400 0.940817 0.738066 0.151637
H21   H     H_    0.370370 0.808790 0.697843 0.107315
H22   H     H_    0.830553 0.270000 0.425895 0.153506
H23   H     H_    0.176719 0.729431 0.589484 0.133806
H24   H     H_    0.941995 0.111740 0.503835 0.125234
H25   H     H_    0.064547 0.891191 0.516624 0.119501
H26   H     H_    0.213696 0.324805 0.641440 0.152596
H27   H     H_    0.792246 0.682569 0.373662 0.148320
H28   H     H_    0.372543 0.604832 0.171488 0.139457
N1    N     N_R   0.523130 0.207800 0.519340 -0.171701
N2    N     N_R   0.476870 0.792200 0.480660 -0.170019
O1    O     O_R   0.506170 0.421700 0.658830 -0.636162
O2    O     O_3   0.655130 0.012082 0.702356 -0.572300
O3    O     O_3   0.413579 0.187288 0.357546 -0.551266
O4    O     O_3   0.557394 0.821632 0.652776 -0.538509
O5    O     O_R   0.493830 0.578300 0.341170 -0.640282
O6    O     O_R   0.491330 0.609310 0.646410 -0.576882
O7    O     O_R   0.508670 0.390690 0.353590 -0.568116
O8    O     O_R   0.690650 0.406190 0.506220 -0.622516
O9    O     O_R   0.309350 0.593810 0.493780 -0.620164
O10   O     O_R   0.675800 0.593810 0.493800 -0.589301
O11   O     O_R   0.324200 0.406190 0.506200 -0.615350
O12   O     O_3   0.404929 0.982307 0.271816 -0.554560
Zn1   Zn    Zn3+2 0.509910 0.374730 0.508290 0.960498
Zn2   Zn    Zn3+2 0.490090 0.625270 0.491710 0.964406

loop_
_geom_bond_atom_site_label_1
_geom_bond_atom_site_label_2
_ccdc_geom_bond_type
C4    C36   A    
C35   O4    S    
C33   H18   S    
O10   Zn2   S    
O6    Zn2   S    
C7    N2    A    
C15   O11   A    
C6    O2    S    
C12   C23   S    
C8    N1    A    
C1    O1    A    
C31   O12   S    
C34   C40   A    
C28   C29   A    
C19   C21   A    
C31   H9    S    
C2    H28   S    
O9    Zn2   S    
C10   O3    S    
O5    Zn2   S    
O7    Zn1   S    
C35   H19   S    
C22   H26   S    
C24   H27   S    
O8    Zn1   S    
C15   O9    A    
C22   C25   A    
C14   O10   A    
N2    Zn2   S    
C32   H15   S    
C5    C13   A    
C16   C27   A    
C40   H2    S    
C27   C30   A    
C17   C28   A    
C16   H22   S    
C14   C30   S    
C32   H14   S    
O11   Zn1   S    
C1    C34   S    
C15   C29   S    
O1    Zn1   S    
C25   C29   A    
C9    N2    A    
C32   O2    S    
C6    C11   A    
C5    C7    A    
C39   H3    S    
C35   H20   S    
C2    C4    A    
C38   H4    S    
N1    Zn1   S    
C12   O7    A    
C36   H5    S    
C35   H21   S    
C16   C18   A    
C9    C11   A    
C21   H1    S    
C33   O3    S    
C20   C22   A    
C3    C40   A    
C26   C30   A    
C12   O5    A    
C9    O4    S    
C31   H10   S    
C3    C4    A    
C32   H13   S    
C33   H17   S    
C34   C38   A    
C1    O6    A    
C24   C26   A    
C31   H11   S    
C10   C13   A    
C6    C8    A    
C25   C27   A    
C26   C28   A    
C7    H8    S    
C36   C38   A    
C8    H7    S    
C37   C39   A    
C17   H23   S    
C5    O12   S    
C11   C13   A    
C18   H24   S    
C33   H16   S    
C23   C39   A    
C17   C19   A    
C19   H25   S    
C18   C20   A    
C14   O8    A    
C10   N1    A    
C3    C37   A    
C20   H12   S    
C21   C24   A    
C2    C23   A    
C37   H6    S    
