data_mof_unit_12352.cif
_audit_creation_date              2012-12-10T17:47:12-0500
_audit_creation_method            fapswitch 2.2
_symmetry_space_group_name_H-M    P1
_symmetry_Int_Tables_number       1
_space_group_crystal_system       triclinic
_cell_length_a                    11.704599
_cell_length_b                    14.717818
_cell_length_c                    14.906536
_cell_angle_alpha                 63.829427
_cell_angle_beta                  104.353029
_cell_angle_gamma                 103.007382
_cell_volume                      2212.83770992

loop_
_atom_site_label
_atom_site_type_symbol
_atom_type_description
_atom_site_fract_x
_atom_site_fract_y
_atom_site_fract_z
_atom_type_partial_charge
C1    C     C_R   0.480312 0.120928 0.311677 0.843966
C2    C     C_R   0.513063 0.879819 0.687618 0.854008
C3    C     C_R   0.425967 0.322128 0.993437 -0.066819
C4    C     C_R   0.404279 0.672726 0.971394 -0.071861
C5    C     C_R   0.408724 0.462214 0.033387 -0.158355
C6    C     C_R   0.426567 0.531871 0.934939 -0.136529
C7    C     C_R   0.415502 0.493540 0.860534 0.468114
C8    C     C_R   0.362739 0.496214 0.091371 0.478989
C9    C     C_R   0.415557 0.388335 0.889924 0.330724
C10   C     C_R   0.362067 0.601934 0.060927 0.321042
C11   C     C_R   0.746047 0.331060 0.561025 0.417695
C12   C     C_R   0.260813 0.693587 0.376036 0.403843
C13   C     C_R   0.695409 0.229093 0.589508 0.400306
C14   C     C_R   0.308991 0.782971 0.389753 0.414164
C15   C     C_R   0.500768 0.275652 0.529625 0.660358
C16   C     C_R   0.498144 0.724575 0.463165 0.610491
C17   C     C_R   0.546591 0.382287 0.499181 -0.158044
C18   C     C_R   0.455998 0.636649 0.438534 -0.158296
C19   C     C_R   0.671914 0.408043 0.515142 -0.176202
C20   C     C_R   0.333018 0.618559 0.403592 -0.133920
C21   C     C_R   0.474515 0.463719 0.457505 0.021220
C22   C     C_R   0.528814 0.563401 0.451975 0.012962
C23   C     C_R   0.284157 0.999995 0.499851 0.819247
C24   C     C_R   0.715862 0.999953 0.500274 0.807563
C25   C     C_R   0.652267 0.588608 0.450235 0.430565
C26   C     C_R   0.353073 0.452679 0.413733 0.459137
C27   C     C_R   0.722574 0.510504 0.485064 -0.252259
C28   C     C_R   0.283876 0.528758 0.389962 -0.282336
C29   C     C_1   0.162390 0.999827 0.499957 -0.113742
C30   C     C_1   0.837699 0.000110 0.500369 -0.129994
C31   C     C_1   0.059951 0.999913 0.500130 0.010613
C32   C     C_1   0.940189 0.000066 0.500313 0.008624
C33   C     C_R   0.463571 0.190402 0.201868 -0.227363
C34   C     C_R   0.491728 0.813148 0.792385 -0.205886
C35   C     C_R   0.434318 0.218686 0.024547 -0.220937
C36   C     C_R   0.406290 0.778356 0.939369 -0.221586
C37   C     C_R   0.449639 0.151910 0.127491 0.321025
C38   C     C_R   0.443979 0.848580 0.847422 0.314571
C39   C     C_R   0.460208 0.295861 0.170822 0.469063
C40   C     C_R   0.503814 0.709430 0.832181 0.493468
C41   C     C_R   0.428395 0.359531 0.066704 -0.080855
C42   C     C_R   0.443178 0.637707 0.911331 -0.077403
Cu1   Cu    Cu3+1 0.469550 0.918260 0.475690 1.026480
Cu2   Cu    Cu3+1 0.530450 0.081740 0.524310 1.017333
H1    H     H_    0.429208 0.188988 0.968653 0.196898
H2    H     H_    0.373756 0.806353 0.983209 0.196915
H3    H     H_    0.818029 0.530566 0.488927 0.188674
H4    H     H_    0.190680 0.518124 0.357907 0.169234
N1    N     N_R   0.576230 0.204580 0.560790 -0.318222
N2    N     N_R   0.423770 0.795420 0.439210 -0.291446
O1    O     O_R   0.459870 0.022090 0.338120 -0.550760
O2    O     O_R   0.540130 0.977910 0.661880 -0.560796
O3    O     O_R   0.511290 0.160150 0.379180 -0.539650
O4    O     O_R   0.488710 0.839850 0.620820 -0.555895
O5    O     O_R   0.311490 0.930960 0.479480 -0.562191
O6    O     O_R   0.688510 0.069040 0.520520 -0.584012
O7    O     O_R   0.362910 0.069020 0.520540 -0.509879
O8    O     O_R   0.637090 0.930980 0.479460 -0.507115
O9    O     O_3   0.408155 0.348679 0.819611 -0.759341
H5    H     H_    0.410485 0.404561 0.751265 0.348238
O10   O     O_3   0.321157 0.637864 0.117098 -0.757447
H6    H     H_    0.302949 0.580724 0.181267 0.357487
O11   O     O_3   0.701093 0.689685 0.406607 -0.672423
H7    H     H_    0.787743 0.693773 0.410187 0.331441
O12   O     O_3   0.307375 0.375589 0.380626 -0.626151
H8    H     H_    0.220927 0.377225 0.354519 0.314909
O13   O     O_3   0.582591 0.679607 0.798396 -0.569634
C43   C     C_3   0.690567 0.669699 0.867926 -0.380872
H9    H     H_    0.678306 0.609753 0.944554 0.172053
H10   H     H_    0.730967 0.743911 0.872602 0.165289
H11   H     H_    0.754367 0.645822 0.841199 0.183213
O14   O     O_3   0.493018 0.337405 0.242213 -0.488901
C44   C     C_3   0.614019 0.379560 0.244238 -0.270061
H12   H     H_    0.629018 0.444227 0.170725 0.139705
H13   H     H_    0.671977 0.320559 0.264241 0.132116
H14   H     H_    0.640767 0.410008 0.303572 0.186798
O15   O     O_3   0.433427 0.951045 0.809961 -0.719816
H15   H     H_    0.397583 0.962606 0.857135 0.314372
O16   O     O_3   0.456117 0.049808 0.156527 -0.704188
H16   H     H_    0.444064 0.035602 0.095449 0.321134
O17   O     O_3   0.395875 0.557220 0.758428 -0.591006
C45   C     C_3   0.273237 0.565031 0.726327 -0.336892
H17   H     H_    0.241895 0.601375 0.765740 0.166576
H18   H     H_    0.219926 0.489068 0.737650 0.179284
H19   H     H_    0.257880 0.614411 0.643918 0.200866
O18   O     O_3   0.307213 0.426416 0.171765 -0.513584
C46   C     C_3   0.188891 0.397126 0.133140 -0.324018
H20   H     H_    0.185344 0.359100 0.082252 0.163341
H21   H     H_    0.138162 0.463699 0.092803 0.147684
H22   H     H_    0.144338 0.341079 0.197525 0.193752
O19   O     O_3   0.612304 0.739178 0.513169 -0.518517
C47   C     C_3   0.623823 0.666806 0.614551 -0.188681
H23   H     H_    0.697269 0.698761 0.659820 0.199147
H24   H     H_    0.648395 0.594946 0.622395 0.133101
H25   H     H_    0.541668 0.649264 0.646475 0.234504
O20   O     O_3   0.383058 0.240795 0.539338 -0.514916
C48   C     C_3   0.371337 0.218791 0.638947 -0.270681
H26   H     H_    0.394397 0.288980 0.653963 0.152414
H27   H     H_    0.426635 0.159097 0.696093 0.192929
H28   H     H_    0.277085 0.188771 0.647712 0.197249
O21   O     O_3   0.235985 0.857274 0.351337 -0.683098
H29   H     H_    0.282770 0.921854 0.313118 0.357486
O22   O     O_3   0.768790 0.155056 0.646987 -0.691744
H30   H     H_    0.718278 0.091040 0.681682 0.356684
O23   O     O_3   0.867950 0.354716 0.584862 -0.544452
C49   C     C_3   0.921672 0.355259 0.509642 -0.263274
H31   H     H_    0.887005 0.411002 0.432775 0.129551
H32   H     H_    0.909378 0.277774 0.510327 0.190697
H33   H     H_    0.018720 0.379080 0.525900 0.190870
O24   O     O_3   0.140827 0.679405 0.337311 -0.558585
C50   C     C_3   0.125890 0.722127 0.230427 -0.264688
H34   H     H_    0.174969 0.685179 0.203468 0.174944
H35   H     H_    0.153907 0.806077 0.199020 0.191553
H36   H     H_    0.030052 0.708779 0.199929 0.178650

loop_
_geom_bond_atom_site_label_1
_geom_bond_atom_site_label_2
_ccdc_geom_bond_type
Cu2   N1    S    
C21   C26   A    
C4    C36   A    
O21   H29   S    
C44   H12   S    
C50   H34   S    
C46   H20   S    
Cu1   O1    S    
C12   O24   S    
O17   C45   S    
C1    C33   S    
C39   C41   A    
O15   H15   S    
C37   O16   S    
C11   C19   A    
C33   C39   A    
C4    C42   A    
C34   C40   A    
C23   C29   S    
C35   C37   A    
C16   N2    A    
C5    C6    A    
C49   H31   S    
C23   O7    A    
C25   O11   S    
C1    O3    A    
O24   C50   S    
Cu1   O8    S    
Cu2   O3    S    
C3    C41   A    
C43   H9    S    
C22   C25   A    
C11   O23   S    
C39   O14   S    
C36   H2    S    
C13   O22   S    
C19   C27   A    
C18   C20   A    
Cu2   O2    S    
C40   C42   A    
O9    H5    S    
C34   C38   A    
C21   C22   A    
C44   H13   S    
C48   H27   S    
C48   H26   S    
C24   C30   S    
O13   C43   S    
C2    O4    A    
O19   C47   S    
O18   C46   S    
C14   O21   S    
C20   C28   A    
C40   O13   S    
C47   H25   S    
C33   C37   A    
O16   H16   S    
C9    O9    S    
Cu1   Cu2   S    
C3    C9    A    
Cu2   O6    S    
Cu1   O4    S    
C31   C32   S    
C3    C35   A    
Cu2   O7    S    
O20   C48   S    
C12   C20   A    
C47   H24   S    
C50   H35   S    
C16   C18   A    
C1    O1    A    
C2    O2    A    
C13   N1    A    
C24   O8    A    
C7    O17   S    
C12   C14   A    
O12   H8    S    
C45   H18   S    
C46   H21   S    
C44   H14   S    
C10   O10   S    
C24   O6    A    
C4    C10   A    
C35   H1    S    
C15   O20   S    
C48   H28   S    
C27   H3    S    
C15   C17   A    
C5    C41   A    
C28   H4    S    
C18   C22   A    
C26   O12   S    
O14   C44   S    
C5    C8    A    
Cu1   N2    S    
C23   O5    A    
C6    C7    A    
Cu1   O5    S    
C38   O15   S    
C25   C27   A    
C45   H19   S    
O23   C49   S    
C26   C28   A    
C36   C38   A    
C29   C31   T    
C30   C32   T    
C11   C13   A    
C2    C34   S    
C14   N2    A    
C49   H32   S    
C43   H11   S    
C47   H23   S    
C17   C19   A    
C50   H36   S    
C8    O18   S    
C15   N1    A    
O10   H6    S    
C17   C21   A    
O11   H7    S    
C7    C9    A    
C16   O19   S    
C8    C10   A    
C45   H17   S    
C6    C42   A    
C46   H22   S    
O22   H30   S    
C43   H10   S    
C49   H33   S    
