data_mof_unit_10203.cif
_audit_creation_date              2012-10-26T20:21:34-0400
_audit_creation_method            fapswitch 2.2
_symmetry_space_group_name_H-M    P1
_symmetry_Int_Tables_number       1
_space_group_crystal_system       triclinic
_cell_length_a                    11.01734
_cell_length_b                    9.671578
_cell_length_c                    11.685247
_cell_angle_alpha                 89.871065
_cell_angle_beta                  96.354555
_cell_angle_gamma                 89.562639
_cell_volume                      1237.43017172

loop_
_atom_site_label
_atom_site_type_symbol
_atom_type_description
_atom_site_fract_x
_atom_site_fract_y
_atom_site_fract_z
_atom_type_partial_charge
C1    C     C_R   0.262096 0.500401 0.500483 0.571661
C2    C     C_R   0.933951 0.620975 0.475711 0.204265
C3    C     C_R   0.941473 0.377481 0.523277 0.142083
C4    C     C_R   0.059734 0.624768 0.509027 0.186943
C5    C     C_R   0.871245 0.499085 0.499370 -0.099820
C6    C     C_R   0.127492 0.500478 0.501943 -0.101778
C7    C     C_R   0.437915 0.075169 0.411502 0.399512
C8    C     C_R   0.577829 0.925496 0.578816 0.331728
C9    C     C_R   0.562376 0.073341 0.588331 0.391373
C10   C     C_R   0.422909 0.927354 0.420555 0.330491
C11   C     C_3   0.397882 0.090965 0.212791 0.017162
C12   C     C_R   0.737473 0.499584 0.500109 0.581572
C13   C     C_3   0.412098 0.201437 0.124006 -0.353491
C14   C     C_3   0.692374 0.790440 0.722637 0.028446
C15   C     C_3   0.808402 0.816341 0.804393 -0.347958
C16   C     C_3   0.595845 0.086049 0.787252 0.019074
C17   C     C_3   0.578352 0.195783 0.875624 -0.347723
C18   C     C_3   0.309574 0.793614 0.276597 0.026020
C19   C     C_3   0.193832 0.820270 0.193913 -0.349517
C20   C     C_R   0.500870 0.501057 0.284443 0.536134
C21   C     C_R   0.499243 0.500839 0.715566 0.533299
C22   C     C_1   0.501961 0.506738 0.162753 -0.025130
C23   C     C_1   0.498622 0.506150 0.837294 -0.026956
C24   C     C_1   0.501344 0.511064 0.060068 -0.052849
C25   C     C_1   0.499503 0.510732 0.939980 -0.052937
C26   C     C_R   0.060729 0.375328 0.494266 0.147115
Cu1   Cu    Cu3+1 0.500000 0.640660 0.500000 1.050635
Cu2   Cu    Cu3+1 0.500000 0.359340 0.500000 1.171455
H1    H     H_    0.100999 0.336129 0.258357 0.316042
H2    H     H_    0.699356 0.680131 0.700575 0.175386
H3    H     H_    0.610543 0.807256 0.768825 0.092860
H4    H     H_    0.849512 0.917655 0.786821 0.246190
H5    H     H_    0.786934 0.814361 0.895056 0.089940
H6    H     H_    0.877285 0.733745 0.795426 0.166135
H7    H     H_    0.677507 0.029056 0.823362 0.159878
H8    H     H_    0.513800 0.018221 0.781102 0.071107
H9    H     H_    0.483965 0.237291 0.859905 0.152354
H10   H     H_    0.590959 0.148940 0.962942 0.086568
H11   H     H_    0.647231 0.278400 0.872224 0.200303
H12   H     H_    0.712255 0.773876 0.253633 0.352350
H13   H     H_    0.302134 0.683879 0.300124 0.178752
H14   H     H_    0.391620 0.808946 0.230623 0.094464
H15   H     H_    0.146569 0.916727 0.216365 0.249098
H16   H     H_    0.217316 0.828893 0.104142 0.089983
H17   H     H_    0.129429 0.732716 0.196003 0.165742
H18   H     H_    0.877523 0.375211 0.754768 0.311534
H19   H     H_    0.279772 0.828029 0.695505 0.355812
H20   H     H_    0.314619 0.036737 0.179637 0.166011
H21   H     H_    0.479431 0.021268 0.215791 0.074822
H22   H     H_    0.507325 0.239089 0.135821 0.152098
H23   H     H_    0.394257 0.156694 0.036430 0.090813
H24   H     H_    0.345322 0.286605 0.131501 0.193429
N1    N     N_R   0.500000 0.852070 0.500000 -0.279660
N2    N     N_R   0.500000 0.147930 0.500000 -0.248186
O1    O     O_R   0.319640 0.618740 0.499990 -0.443846
O2    O     O_2   0.001143 0.134593 0.385186 -0.168240
O3    O     O_3   0.166566 0.280487 0.301827 -0.502392
O4    O     O_2   0.823334 0.869929 0.451044 -0.133104
O5    O     O_2   0.962967 0.809101 0.312309 -0.269719
O6    O     O_3   0.752355 0.691277 0.291772 -0.538598
O7    O     O_2   0.814676 0.144423 0.537033 -0.134876
O8    O     O_2   0.005524 0.161378 0.664023 -0.206193
O9    O     O_3   0.820804 0.307255 0.715070 -0.510541
O10   O     O_2   0.139117 0.883820 0.505471 -0.107429
O11   O     O_2   0.017923 0.823508 0.657980 -0.247072
O12   O     O_R   0.680360 0.381260 0.500010 -0.428237
O13   O     O_3   0.241286 0.737083 0.678296 -0.524768
O14   O     O_3   0.379292 0.150295 0.320221 -0.443702
O15   O     O_3   0.691827 0.870656 0.621090 -0.461858
O16   O     O_3   0.619335 0.145943 0.681122 -0.442033
O17   O     O_3   0.309448 0.874716 0.377242 -0.470869
O18   O     O_R   0.680360 0.618740 0.500010 -0.439356
O19   O     O_R   0.319640 0.381260 0.499990 -0.423643
O20   O     O_R   0.500010 0.618790 0.337200 -0.530957
O21   O     O_R   0.499990 0.381210 0.662800 -0.457244
O22   O     O_R   0.499990 0.618790 0.662800 -0.531823
O23   O     O_R   0.500010 0.381210 0.337200 -0.460578
O24   O     O_2   0.201037 0.148767 0.498327 -0.166014
S1    S     S_3+6 0.107183 0.227705 0.420769 0.122231
S2    S     S_3+6 0.868224 0.753490 0.382379 0.089415
S3    S     S_3+6 0.896067 0.240969 0.610018 0.112714
S4    S     S_3+6 0.114909 0.771920 0.588021 0.104102

loop_
_geom_bond_atom_site_label_1
_geom_bond_atom_site_label_2
_ccdc_geom_bond_type
C7    C10   A    
H12   O6    S    
O3    S1    S    
Cu2   O12   S    
C14   H3    S    
C15   H4    S    
C19   H16   S    
C21   O22   A    
C8    O15   S    
O2    S1    D    
C20   O23   A    
O9    S3    S    
C18   H14   S    
C16   H7    S    
Cu1   O1    S    
C18   C19   S    
C17   H11   S    
C10   N1    A    
C7    O14   S    
C13   H23   S    
C8    C9    A    
C3    S3    S    
Cu1   O20   S    
C15   H6    S    
O4    S2    D    
C10   O17   S    
C12   O18   A    
C11   H20   S    
C14   H2    S    
Cu2   O19   S    
H19   O13   S    
C19   H15   S    
C1    C6    S    
C16   O16   S    
C24   C25   S    
C5    C12   S    
C4    C6    A    
C18   H13   S    
Cu2   N2    S    
O24   S1    D    
C16   C17   S    
C12   O12   A    
O5    S2    D    
C2    C4    A    
C11   H21   S    
C13   H24   S    
Cu1   N1    S    
C20   O20   A    
C17   H9    S    
C9    O16   S    
Cu2   O23   S    
O10   S4    D    
O8    S3    D    
H1    O3    S    
C21   C23   S    
C14   O15   S    
C22   C24   T    
C2    C5    A    
Cu1   O22   S    
C11   O14   S    
C18   O17   S    
O6    S2    S    
C3    C26   A    
C20   C22   S    
C3    C5    A    
C8    N1    A    
C19   H17   S    
C21   O21   A    
C26   S1    S    
H18   O9    S    
C1    O19   A    
C1    O1    A    
O7    S3    D    
C16   H8    S    
C11   C13   S    
O11   S4    D    
C6    C26   A    
C17   H10   S    
C23   C25   T    
C2    S2    S    
C13   H22   S    
C4    S4    S    
O13   S4    S    
Cu1   Cu2   S    
C14   C15   S    
C9    N2    A    
C7    N2    A    
Cu2   O21   S    
C15   H5    S    
Cu1   O18   S    
