data_mof_unit_46762.cif
_audit_creation_date              2012-10-26T20:06:14-0400
_audit_creation_method            fapswitch 2.2
_symmetry_space_group_name_H-M    P1
_symmetry_Int_Tables_number       1
_space_group_crystal_system       triclinic
_cell_length_a                    9.613848
_cell_length_b                    10.809167
_cell_length_c                    13.508522
_cell_angle_alpha                 91.780791
_cell_angle_beta                  73.37322
_cell_angle_gamma                 91.986738
_cell_volume                      1343.94444009

loop_
_atom_site_label
_atom_site_type_symbol
_atom_type_description
_atom_site_fract_x
_atom_site_fract_y
_atom_site_fract_z
_atom_type_partial_charge
C1    C     C_R   0.501959 0.737431 0.499941 0.552818
C2    C     C_R   0.383804 0.458718 0.809952 -0.002043
C3    C     C_R   0.595290 0.940620 0.545105 -0.137599
C4    C     C_R   0.423720 0.486941 0.698518 0.542146
C5    C     C_R   0.591258 0.068948 0.546815 -0.133558
C6    C     C_R   0.498337 0.127806 0.500738 0.021117
C7    C     C_R   0.412257 0.057327 0.451418 -0.150521
C8    C     C_R   0.414177 0.929648 0.451222 -0.134636
C9    C     C_R   0.505146 0.871023 0.498337 0.023173
C10   C     C_R   0.910172 0.592506 0.548959 -0.003063
C11   C     C_R   0.058915 0.593593 0.547498 -0.005801
C12   C     C_R   0.444651 0.456732 0.974485 0.034689
C13   C     C_R   0.083798 0.403925 0.453883 0.133441
C14   C     C_R   0.938841 0.409998 0.449773 0.018622
C15   C     C_R   0.498585 0.262162 0.500040 0.535363
C16   C     C_R   0.577493 0.503197 0.300729 0.538928
C17   C     C_R   0.806169 0.505393 0.023604 -0.136892
C18   C     C_R   0.621321 0.504086 0.187663 -0.003032
C19   C     C_R   0.236555 0.441779 0.863710 -0.136990
C20   C     C_R   0.194594 0.425238 0.969794 -0.145090
C21   C     C_R   0.295316 0.439157 0.025330 -0.118289
C22   C     C_3   0.148583 0.278910 0.417494 -0.235779
C23   C     C_R   0.490083 0.450474 0.864934 0.027763
C24   C     C_3   0.260434 0.279627 0.311308 -0.395882
C25   C     C_R   0.551071 0.475917 0.028519 0.030092
C26   C     C_R   0.700310 0.479935 0.972790 0.052368
C27   C     C_R   0.742956 0.453729 0.867426 -0.148466
C28   C     C_R   0.639499 0.433360 0.815294 -0.122802
C29   C     C_R   0.514236 0.493327 0.136033 -0.141169
C30   C     C_R   0.767744 0.513805 0.130840 -0.136266
Cu1   Cu    Cu3+1 0.359340 0.499980 0.500000 0.928972
Cu2   Cu    Cu3+1 0.640660 0.500020 0.500000 0.921875
H1    H     H_    0.852170 0.527691 0.168995 0.131063
H2    H     H_    0.402812 0.499307 0.181254 0.120824
H3    H     H_    0.153706 0.439491 0.823610 0.125293
H4    H     H_    0.253014 0.431032 0.107563 0.092082
H5    H     H_    0.082927 0.403583 0.010547 0.112936
H6    H     H_    0.680401 0.398269 0.737231 0.158435
H7    H     H_    0.666005 0.895952 0.581922 0.116441
H8    H     H_    0.235441 0.352309 0.263778 0.134653
H9    H     H_    0.372211 0.292007 0.317096 0.187434
H10   H     H_    0.256233 0.189256 0.270592 0.110488
H11   H     H_    0.179254 0.233647 0.479423 0.165460
H12   H     H_    0.659925 0.122098 0.584567 0.120971
H13   H     H_    0.062478 0.211590 0.408464 0.079831
H14   H     H_    0.346989 0.099424 0.410144 0.110330
H15   H     H_    0.346253 0.876692 0.412716 0.127571
H16   H     H_    0.841964 0.666550 0.589042 0.113546
H17   H     H_    0.101060 0.668523 0.586403 0.117419
H18   H     H_    0.891915 0.338677 0.410214 0.123245
H19   H     H_    0.856895 0.446008 0.825403 0.103585
H20   H     H_    0.918435 0.517692 0.979647 0.103990
N1    N     N_R   0.147940 0.499970 0.499970 -0.214535
N2    N     N_R   0.852060 0.500060 0.499990 -0.245223
O1    O     O_R   0.381250 0.680340 0.500010 -0.508873
O2    O     O_R   0.618820 0.680370 0.500010 -0.501956
O3    O     O_R   0.323240 0.499950 0.650980 -0.500681
O4    O     O_R   0.560810 0.499980 0.650980 -0.514114
O5    O     O_R   0.381180 0.319630 0.499990 -0.516882
O6    O     O_R   0.618750 0.319660 0.499990 -0.518847
O7    O     O_R   0.439190 0.500020 0.349020 -0.508372
O8    O     O_R   0.676760 0.500050 0.349020 -0.499602

loop_
_geom_bond_atom_site_label_1
_geom_bond_atom_site_label_2
_ccdc_geom_bond_type
C4    O3    A    
C2    C4    S    
C24   H9    S    
C6    C7    A    
C3    C9    A    
C28   H6    S    
C24   H10   S    
C15   O6    A    
Cu1   O7    S    
C22   H11   S    
C11   N1    A    
Cu2   O4    S    
C12   C25   A    
C25   C26   A    
Cu1   O1    S    
Cu1   O3    S    
C19   C20   A    
C1    O2    A    
C1    O1    A    
C8    H15   S    
Cu2   O8    S    
C7    C8    A    
C18   C29   A    
C19   H3    S    
C13   C14   A    
Cu1   N1    S    
C10   H16   S    
C20   H5    S    
C12   C23   A    
C26   C27   A    
C14   H18   S    
C17   C30   A    
C11   H17   S    
C17   C26   A    
C12   C21   A    
C17   H20   S    
Cu2   N2    S    
C14   N2    A    
C5    H12   S    
C27   H19   S    
C13   C22   S    
C13   N1    A    
C25   C29   A    
C5    C6    A    
C10   N2    A    
C22   C24   S    
C10   C11   A    
Cu2   O6    S    
C18   C30   A    
C4    O4    A    
C7    H14   S    
C2    C23   A    
C22   H13   S    
C1    C9    S    
C20   C21   A    
C16   C18   S    
C16   O7    A    
Cu1   O5    S    
C27   C28   A    
C21   H4    S    
Cu2   O2    S    
C30   H1    S    
C24   H8    S    
C6    C15   S    
C23   C28   A    
C15   O5    A    
C29   H2    S    
C16   O8    A    
C3    H7    S    
Cu1   Cu2   S    
C2    C19   A    
C8    C9    A    
C3    C5    A    
