data_mof_unit_19923.cif
_audit_creation_date              2012-10-26T18:53:56-0400
_audit_creation_method            fapswitch 2.2
_symmetry_space_group_name_H-M    P1
_symmetry_Int_Tables_number       1
_space_group_crystal_system       triclinic
_cell_length_a                    14.713942
_cell_length_b                    14.739297
_cell_length_c                    17.305315
_cell_angle_alpha                 106.227422
_cell_angle_beta                  72.87933
_cell_angle_gamma                 114.990027
_cell_volume                      3198.43424699

loop_
_atom_site_label
_atom_site_type_symbol
_atom_type_description
_atom_site_fract_x
_atom_site_fract_y
_atom_site_fract_z
_atom_type_partial_charge
C1    C     C_R   0.118658 0.688074 0.513498 0.542276
C2    C     C_R   0.710526 0.176895 0.485982 -0.136669
C3    C     C_R   0.358645 0.923690 0.512522 0.018525
C4    C     C_R   0.641358 0.076307 0.487465 0.018508
C5    C     C_R   0.320686 0.997762 0.511943 0.065278
C6    C     C_R   0.679318 0.002234 0.488042 0.065270
C7    C     C_R   0.465294 0.950723 0.507059 0.040001
C8    C     C_R   0.534709 0.049273 0.492925 0.039995
C9    C     C_R   0.495472 0.117271 0.483487 -0.138589
C10   C     C_R   0.504532 0.882724 0.516495 -0.138589
C11   C     C_R   0.391197 0.093024 0.494772 -0.096445
C12   C     C_R   0.881342 0.311926 0.486501 0.542305
C13   C     C_R   0.608807 0.906971 0.505209 -0.096454
C14   C     C_R   0.292359 0.324532 0.366144 -0.137415
C15   C     C_R   0.707640 0.675466 0.633857 -0.137394
C16   C     C_R   0.987218 0.500011 0.652092 0.524749
C17   C     C_R   0.012785 0.499995 0.347910 0.524726
C18   C     C_R   0.210225 0.356164 0.386128 0.056480
C19   C     C_R   0.789775 0.643835 0.613872 0.056511
C20   C     C_R   0.286777 0.492010 0.487163 0.049872
C21   C     C_R   0.713222 0.507989 0.512837 0.049879
C22   C     C_R   0.373466 0.464196 0.469324 0.014840
C23   C     C_R   0.185470 0.795914 0.518594 -0.016833
C24   C     C_R   0.626533 0.535803 0.530676 0.014841
C25   C     C_R   0.373776 0.377683 0.407735 0.051888
C26   C     C_R   0.626223 0.622315 0.592266 0.051890
C27   C     C_R   0.458466 0.517650 0.510462 0.034035
C28   C     C_R   0.541533 0.482349 0.489539 0.034036
C29   C     C_R   0.536562 0.394733 0.428463 -0.134279
C30   C     C_R   0.463437 0.605266 0.571538 -0.134284
C31   C     C_R   0.454680 0.344062 0.388404 -0.120876
C32   C     C_R   0.545319 0.655936 0.611598 -0.120875
C33   C     C_R   0.978314 0.498022 0.737596 -0.011822
C34   C     C_R   0.814531 0.204085 0.481401 -0.016839
C35   C     C_R   0.021719 0.502029 0.262414 -0.011786
C36   C     C_R   0.067491 0.546426 0.769723 -0.127261
C37   C     C_R   0.932586 0.453522 0.230230 -0.127264
C38   C     C_R   0.062966 0.550276 0.851598 -0.102588
C39   C     C_R   0.937152 0.449723 0.148357 -0.102604
C40   C     C_R   0.969016 0.504552 0.902300 0.013697
C41   C     C_R   0.031098 0.495597 0.097716 0.013669
C42   C     C_R   0.879328 0.457473 0.871035 -0.070551
C43   C     C_R   0.120743 0.542791 0.129039 -0.070507
C44   C     C_R   0.882692 0.451864 0.788194 0.006065
C45   C     C_R   0.213387 0.971757 0.522876 0.017182
C46   C     C_R   0.117334 0.548356 0.211882 0.006069
C47   C     C_2   0.962376 0.503296 0.988052 -0.127493
C48   C     C_2   0.037766 0.496878 0.011966 -0.127514
C49   C     C_2   0.212521 0.607360 0.245076 0.237000
C50   C     C_2   0.787441 0.392985 0.755076 0.237047
C51   C     C_2   0.165428 0.046132 0.532691 0.208357
C52   C     C_2   0.834577 0.953866 0.467293 0.208356
C53   C     C_R   0.786617 0.028241 0.477110 0.017171
C54   C     C_R   0.147367 0.870490 0.525032 -0.156247
C55   C     C_R   0.852635 0.129509 0.474959 -0.156261
C56   C     C_R   0.289476 0.823103 0.514009 -0.136637
Cu1   Cu    Cu3+1 0.916740 0.524770 0.521640 0.944192
Cu2   Cu    Cu3+1 0.083260 0.475230 0.478360 0.944161
H1    H     H_    0.140672 0.582928 0.731569 0.121453
H2    H     H_    0.708182 0.741737 0.681157 0.100406
H3    H     H_    0.107845 0.496021 0.968418 0.128444
H4    H     H_    0.892303 0.504154 0.031611 0.128460
H5    H     H_    0.867343 0.409771 0.124690 0.117130
H6    H     H_    0.132815 0.590153 0.875212 0.117105
H7    H     H_    0.684497 0.237237 0.492633 0.125779
H8    H     H_    0.315503 0.762761 0.507361 0.125783
H9    H     H_    0.934070 0.150441 0.469294 0.123894
H10   H     H_    0.065932 0.849559 0.530699 0.123891
H11   H     H_    0.543448 0.189776 0.465267 0.097861
H12   H     H_    0.859414 0.416903 0.268339 0.121411
H13   H     H_    0.456557 0.810218 0.534713 0.097858
H14   H     H_    0.595022 0.362832 0.410066 0.084957
H15   H     H_    0.404976 0.637166 0.589935 0.084949
H16   H     H_    0.209436 0.628750 0.310753 0.136520
H17   H     H_    0.790470 0.371404 0.689408 0.136480
H18   H     H_    0.807351 0.421741 0.910856 0.158753
H19   H     H_    0.192713 0.578640 0.089263 0.158803
H20   H     H_    0.367526 0.148574 0.485370 0.173021
H21   H     H_    0.632479 0.851420 0.514610 0.173019
H22   H     H_    0.092836 0.020491 0.514193 0.095451
H23   H     H_    0.454531 0.277225 0.341824 0.110964
H24   H     H_    0.907168 0.979506 0.485792 0.095446
H25   H     H_    0.545468 0.722773 0.658178 0.110955
H26   H     H_    0.721347 0.445156 0.465413 0.114144
H27   H     H_    0.278652 0.554844 0.534587 0.114137
H28   H     H_    0.853150 0.685663 0.645265 0.131154
H29   H     H_    0.146849 0.314336 0.354736 0.131147
H30   H     H_    0.291817 0.258261 0.318844 0.100409
N1    N     N_R   0.208390 0.438070 0.445820 -0.233048
N2    N     N_R   0.791610 0.561930 0.554180 -0.233050
O1    O     O_R   0.020090 0.662480 0.528530 -0.500811
O2    O     O_2   0.703815 0.366369 0.801078 -0.499326
O3    O     O_2   0.202319 0.134571 0.565794 -0.505329
O4    O     O_2   0.797687 0.865428 0.434186 -0.505314
O5    O     O_R   0.979910 0.337520 0.471470 -0.500805
O6    O     O_R   0.160710 0.620650 0.491980 -0.520661
O7    O     O_R   0.839290 0.379350 0.508020 -0.520643
O8    O     O_R   0.921540 0.523360 0.633990 -0.511895
O9    O     O_R   0.078460 0.476640 0.366010 -0.511919
O10   O     O_R   0.062170 0.481520 0.597440 -0.496219
O11   O     O_R   0.937830 0.518480 0.402560 -0.496206
O12   O     O_2   0.296152 0.634303 0.199129 -0.499352

loop_
_geom_bond_atom_site_label_1
_geom_bond_atom_site_label_2
_ccdc_geom_bond_type
C25   C31   A    
C40   C47   S    
C38   C40   A    
C13   H21   S    
C26   C32   A    
C7    C10   A    
C15   H2    S    
C14   C18   A    
C4    C8    A    
C2    H7    S    
C16   O8    A    
C47   H4    S    
Cu1   Cu2   S    
C7    C8    A    
C39   C41   A    
C15   C19   A    
C46   C49   S    
C28   C29   A    
C35   C37   A    
C24   C26   A    
C5    C11   A    
C3    C7    A    
C54   H10   S    
C45   C51   S    
C33   C36   A    
C17   O11   A    
C51   H22   S    
Cu2   O6    S    
C36   H1    S    
C8    C9    A    
C33   C44   A    
C22   C25   A    
C12   O5    A    
C52   O4    D    
C29   H14   S    
C10   H13   S    
C19   H28   S    
C40   C42   A    
C34   C55   A    
C1    O1    A    
C37   H12   S    
C27   C30   A    
C41   C43   A    
C42   C44   A    
Cu2   N1    S    
C38   H6    S    
C21   N2    A    
C53   C55   A    
Cu1   N2    S    
C23   C56   A    
Cu2   O10   S    
C4    C6    A    
C49   O12   D    
C30   H15   S    
C16   O10   A    
C15   C26   A    
C5    C45   A    
C2    C4    A    
Cu2   O5    S    
C11   H20   S    
C16   C33   S    
C9    C11   A    
C3    C56   A    
C47   C48   D    
C21   H26   S    
Cu1   O7    S    
C20   H27   S    
C52   H24   S    
C17   O9    A    
C12   O7    A    
C51   O3    D    
C50   O2    D    
C20   C22   A    
C45   C54   A    
C1    C23   S    
C22   C27   A    
C6    C53   A    
C12   C34   S    
C39   H5    S    
C52   C53   S    
C23   C54   A    
C44   C50   S    
C32   H25   S    
Cu1   O1    S    
C18   N1    A    
Cu2   O9    S    
C24   C28   A    
C9    H11   S    
C3    C5    A    
C10   C13   A    
C55   H9    S    
C43   H19   S    
Cu1   O11   S    
C20   N1    A    
C42   H18   S    
C18   H29   S    
C31   H23   S    
C36   C38   A    
C14   H30   S    
C37   C39   A    
C19   N2    A    
C50   H17   S    
C6    C13   A    
C30   C32   A    
C2    C34   A    
C48   H3    S    
C1    O6    A    
C56   H8    S    
Cu1   O8    S    
C41   C48   S    
C14   C25   A    
C43   C46   A    
C29   C31   A    
C21   C24   A    
C27   C28   A    
C49   H16   S    
C17   C35   S    
C35   C46   A    
