data_mof_unit_45102.cif
_audit_creation_date              2013-03-05T16:44:38-0500
_audit_creation_method            fapswitch 2.2
_symmetry_space_group_name_H-M    P1
_symmetry_Int_Tables_number       1
_space_group_crystal_system       triclinic
_cell_length_a                    26.67761
_cell_length_b                    10.804022
_cell_length_c                    9.867281
_cell_angle_alpha                 88.532072
_cell_angle_beta                  89.421678
_cell_angle_gamma                 89.916273
_cell_volume                      2842.92162997

loop_
_atom_site_label
_atom_site_type_symbol
_atom_site_description
_atom_site_fract_x
_atom_site_fract_y
_atom_site_fract_z
_atom_type_partial_charge
O1    O     O_R   0.500010 0.316790 0.614690 -0.571549
O2    O     O_R   0.500000 0.316760 0.385350 -0.642948
C1    C     C_R   0.500328 0.260191 0.501393 0.882992
O3    O     O_R   0.428760 0.500040 0.614660 -0.610128
O4    O     O_R   0.428750 0.500000 0.385310 -0.592283
C2    C     C_R   0.405399 0.498232 0.500702 0.875926
Zn1   Zn    Zn3+2 0.500000 0.500020 0.653130 1.001334
Zn2   Zn    Zn3+2 0.500000 0.499980 0.346870 0.981647
O5    O     O_R   0.500000 0.683240 0.614650 -0.587645
O6    O     O_R   0.499990 0.683210 0.385310 -0.614510
O7    O     O_R   0.571250 0.500000 0.614690 -0.624641
O8    O     O_R   0.571240 0.499960 0.385340 -0.551365
C3    C     C_R   0.499242 0.739435 0.498617 0.848150
C4    C     C_R   0.594807 0.495759 0.500672 0.859928
C5    C     C_R   0.181827 0.418369 0.714204 0.570999
O9    O     O_2   0.213116 0.327159 0.755970 -0.564510
N1    N     N_R   0.198929 0.512573 0.629925 -0.327825
C6    C     C_R   0.168829 0.612550 0.599872 0.537717
C7    C     C_R   0.279813 0.616239 0.595674 -0.227652
C8    C     C_R   0.329228 0.620024 0.549214 0.171526
C9    C     C_R   0.321808 0.404779 0.484541 -0.432161
C10   C     C_R   0.269770 0.406263 0.514234 0.561433
C11   C     C_R   0.249885 0.511084 0.579279 0.167749
C12   C     C_R   0.101259 0.520350 0.732061 -0.066683
C13   C     C_R   0.131613 0.416436 0.757755 -0.008291
C14   C     C_R   0.111040 0.313105 0.824925 -0.185651
C15   C     C_R   0.121197 0.622081 0.659517 -0.094569
C16   C     C_R   0.351197 0.509589 0.505188 -0.111819
H1    H     H_    0.340339 0.322458 0.448896 0.132332
H2    H     H_    0.133958 0.233119 0.849722 0.181640
C17   C     C_R   0.648870 0.475018 0.511238 -0.027922
C18   C     C_R   0.974265 0.397911 0.810866 -0.049117
C19   C     C_R   0.969221 0.624204 0.784562 0.009509
C20   C     C_R   0.946446 0.507000 0.779410 -0.051138
C21   C     C_R   0.947019 0.284708 0.823156 0.483165
C22   C     C_R   0.899395 0.276817 0.766159 -0.250389
C23   C     C_R   0.874377 0.383068 0.719963 -0.055776
C24   C     C_R   0.895906 0.499486 0.739265 -0.108423
C25   C     C_R   0.867625 0.608077 0.714117 -0.078538
C26   C     C_R   0.819081 0.595779 0.659838 0.525224
N2    N     N_R   0.800782 0.481219 0.629704 -0.356050
C27   C     C_R   0.827368 0.375731 0.659614 0.521672
C28   C     C_R   0.715453 0.402088 0.658142 -0.113809
C29   C     C_R   0.665449 0.402595 0.622371 -0.216283
C30   C     C_R   0.683859 0.539133 0.429657 -0.228543
C31   C     C_R   0.734679 0.535885 0.463610 -0.103786
C32   C     C_R   0.750383 0.470606 0.581020 0.295295
O10   O     O_2   0.808409 0.263860 0.630328 -0.584257
C33   C     C_R   0.027584 0.407533 0.817550 0.091843
C34   C     C_R   0.050268 0.520418 0.772744 0.007285
C35   C     C_R   0.021925 0.631694 0.762672 -0.047205
C36   C     C_R   0.059735 0.307256 0.850975 -0.208493
H3    H     H_    0.639082 0.351783 0.686907 0.168013
H4    H     H_    0.726659 0.352648 0.749809 0.151020
H5    H     H_    0.881381 0.187073 0.763794 0.187485
H6    H     H_    0.047082 0.222494 0.896912 0.198828
O11   O     O_2   0.184734 0.702375 0.512061 -0.587405
C37   C     C_R   0.093649 0.731415 0.649643 -0.273507
H7    H     H_    0.264410 0.695656 0.646189 0.183619
H8    H     H_    0.109560 0.811888 0.597782 0.194097
C38   C     C_R   0.937456 0.727694 0.800673 0.234836
C39   C     C_R   0.887635 0.722992 0.753599 0.138252
O12   O     O_2   0.790041 0.696573 0.638735 -0.543454
C40   C     C_R   0.046742 0.741294 0.714037 0.495269
H9    H     H_    0.671782 0.597812 0.346373 0.147529
H10   H     H_    0.761389 0.589107 0.402885 0.147539
C41   C     C_R   0.507619 0.057312 0.618700 -0.021197
C42   C     C_R   0.499509 0.128591 0.501779 -0.070764
C43   C     C_R   0.489992 0.067653 0.379549 -0.234343
H11   H     H_    0.483577 0.118721 0.285763 0.171787
C44   C     C_R   0.489287 0.939007 0.376878 -0.213871
H12   H     H_    0.482556 0.894182 0.281790 0.176489
C45   C     C_R   0.497554 0.870449 0.496955 -0.109135
C46   C     C_R   0.505049 0.933202 0.615395 -0.061921
C47   C     C_3   0.517265 0.913641 0.762604 0.561319
C48   C     C_3   0.519227 0.058216 0.768187 0.216487
H13   H     H_    0.488795 0.103167 0.827014 0.109967
C49   C     C_R   0.456998 0.523158 0.071423 0.061531
N3    N     N_R   0.499670 0.499140 0.142800 -0.161436
C50   C     C_R   0.544189 0.505020 0.069664 0.498649
C51   C     C_R   0.543547 0.498908 0.925226 -0.232871
H14   H     H_    0.578134 0.492621 0.868191 0.161184
N4    N     N_R   0.499670 0.499180 0.857150 -0.084578
C52   C     C_R   0.456789 0.517522 0.929835 0.111641
C53   C     C_3   0.410219 0.440824 0.931640 0.180901
C54   C     C_3   0.407576 0.460710 0.086001 0.176534
H15   H     H_    0.379798 0.483976 0.870218 0.112776
H16   H     H_    0.409112 0.378723 0.155673 0.123373
N5    N     N_2   0.951452 0.820976 0.892281 -0.268303
H17   H     H_    0.938340 0.908632 0.869294 0.253750
C55   C     C_3   0.943865 0.784937 0.033399 -0.866817
H18   H     H_    0.958884 0.857213 0.099544 0.238801
H19   H     H_    0.964023 0.697131 0.057585 0.257849
H20   H     H_    0.903238 0.772823 0.055896 0.240623
N6    N     N_2   0.857054 0.831143 0.754511 -0.260557
H21   H     H_    0.854796 0.873345 0.846893 0.215174
C56   C     C_3   0.866415 0.917261 0.642421 -0.668712
H22   H     H_    0.904679 0.957046 0.648661 0.220957
H23   H     H_    0.838650 0.993794 0.645571 0.262081
H24   H     H_    0.862489 0.869984 0.544392 0.255224
O13   O     O_3   0.024632 0.856789 0.723553 -0.644896
C57   C     C_3   0.055903 0.940301 0.793656 0.093192
H25   H     H_    0.033170 0.024002 0.812018 0.218425
H26   H     H_    0.087981 0.971701 0.728900 0.129031
C58   C     C_3   0.074725 0.889118 0.932231 -0.386018
H27   H     H_    0.043081 0.849793 0.992421 0.258691
H28   H     H_    0.102572 0.814146 0.916588 0.214721
C59   C     C_3   0.099802 0.988778 0.014444 -0.949805
H29   H     H_    0.131555 0.030764 0.956216 0.266520
H30   H     H_    0.114568 0.946640 0.109805 0.272771
H31   H     H_    0.072275 0.061250 0.041586 0.262369
O14   O     O_3   0.479483 0.859628 0.849463 -0.675432
C60   C     C_3   0.429702 0.877121 0.804115 0.034661
H32   H     H_    0.423745 0.824940 0.710867 0.178928
H33   H     H_    0.421592 0.976600 0.783058 0.116112
C61   C     C_3   0.393071 0.826900 0.912386 -0.273036
H34   H     H_    0.395806 0.724548 0.918548 0.232955
H35   H     H_    0.403025 0.862478 0.013130 0.235879
C62   C     C_3   0.339057 0.862980 0.880114 -0.950482
H36   H     H_    0.335777 0.964206 0.859824 0.260481
H37   H     H_    0.314370 0.837962 0.967570 0.257633
H38   H     H_    0.325924 0.813092 0.790489 0.285638
O15   O     O_3   0.237103 0.308071 0.490767 -0.619364
C63   C     C_3   0.256200 0.218878 0.401576 0.062791
H39   H     H_    0.285763 0.162556 0.452829 0.152963
H40   H     H_    0.271228 0.263747 0.307016 0.121101
C64   C     C_3   0.213715 0.132231 0.363089 -0.292008
H41   H     H_    0.199431 0.082497 0.455635 0.237535
H42   H     H_    0.182475 0.187466 0.318553 0.226665
C65   C     C_3   0.231342 0.037816 0.260388 -0.952593
H43   H     H_    0.243393 0.085575 0.164505 0.265040
H44   H     H_    0.200112 0.973971 0.237901 0.276657
H45   H     H_    0.263093 0.982573 0.301572 0.272441
N7    N     N_2   0.565041 0.849229 0.783879 -0.267695
H46   H     H_    0.576055 0.839833 0.883329 0.199541
C66   C     C_3   0.605839 0.858574 0.685496 -0.734101
H47   H     H_    0.638737 0.806029 0.724157 0.227108
H48   H     H_    0.617218 0.956166 0.667002 0.273574
H49   H     H_    0.594950 0.817096 0.588566 0.230951
O16   O     O_3   0.567131 0.107702 0.793553 -0.626967
C67   C     C_3   0.579634 0.088571 0.932071 0.062582
H50   H     H_    0.618595 0.052189 0.935879 0.169587
H51   H     H_    0.555345 0.019925 0.987976 0.122561
C68   C     C_3   0.577357 0.209826 0.007201 -0.333269
H52   H     H_    0.601054 0.279753 0.952891 0.225065
H53   H     H_    0.537900 0.242884 0.009911 0.223496
C69   C     C_3   0.596202 0.192129 0.152191 -0.910084
H54   H     H_    0.575519 0.116051 0.205642 0.257574
H55   H     H_    0.590448 0.278039 0.209334 0.312045
H56   H     H_    0.636842 0.169649 0.151293 0.257437
O17   O     O_3   0.589382 0.508220 0.137470 -0.619888
C70   C     C_3   0.623553 0.595441 0.078657 0.066378
H57   H     H_    0.633880 0.661800 0.157405 0.150174
H58   H     H_    0.608095 0.654557 0.994878 0.116998
C71   C     C_3   0.670775 0.528006 0.030534 -0.376392
H59   H     H_    0.688495 0.479326 0.118362 0.236618
H60   H     H_    0.660562 0.457585 0.955650 0.211781
C72   C     C_3   0.708575 0.617462 0.964854 -0.905370
H61   H     H_    0.692172 0.663653 0.873733 0.276014
H62   H     H_    0.742509 0.565613 0.933026 0.265682
H63   H     H_    0.719796 0.688611 0.037926 0.257734
O18   O     O_3   0.422235 0.318153 0.894994 -0.631032
C73   C     C_3   0.385010 0.232874 0.939853 0.080945
H64   H     H_    0.373742 0.177376 0.852067 0.151100
H65   H     H_    0.349967 0.277268 0.977203 0.125762
C74   C     C_3   0.407220 0.145296 0.048824 -0.370003
H66   H     H_    0.426624 0.067624 0.999850 0.215157
H67   H     H_    0.436310 0.193387 0.106908 0.218012
C75   C     C_3   0.367351 0.095034 0.147637 -0.981206
H68   H     H_    0.336951 0.048844 0.092230 0.280881
H69   H     H_    0.351145 0.171655 0.206894 0.249119
H70   H     H_    0.384552 0.026723 0.219237 0.270674
O19   O     O_3   0.371013 0.549239 0.122437 -0.633463
C76   C     C_3   0.322921 0.494802 0.125153 0.072177
H71   H     H_    0.322042 0.412046 0.194384 0.129346
H72   H     H_    0.311952 0.467774 0.021623 0.134821
C77   C     C_3   0.284704 0.589359 0.174897 -0.303772
H73   H     H_    0.293740 0.615380 0.279802 0.242819
H74   H     H_    0.286712 0.674111 0.109247 0.220328
C78   C     C_3   0.231348 0.538789 0.172038 -0.918845
H75   H     H_    0.221003 0.515470 0.066937 0.261941
H76   H     H_    0.204828 0.609914 0.209181 0.286543
H77   H     H_    0.227839 0.454865 0.238492 0.271896
O20   O     O_3   0.966239 0.179900 0.886289 -0.694488
C79   C     C_3   0.943835 0.163524 0.016429 0.030854
H78   H     H_    0.949779 0.065862 0.048926 0.178139
H79   H     H_    0.902432 0.177998 0.015649 0.142631
C80   C     C_3   0.968433 0.246177 0.121204 -0.375675
H80   H     H_    0.009432 0.228346 0.123136 0.223877
H81   H     H_    0.962245 0.345244 0.093328 0.220441
C81   C     C_3   0.946698 0.220980 0.262903 -0.903553
H82   H     H_    0.905775 0.240150 0.264363 0.268222
H83   H     H_    0.965109 0.282044 0.336278 0.268482
H84   H     H_    0.953320 0.123055 0.295007 0.263960
N8    N     N_2   0.356983 0.733136 0.551408 -0.314911
H85   H     H_    0.394286 0.726033 0.525469 0.215829
C82   C     C_3   0.334174 0.839260 0.483640 -0.807988
H86   H     H_    0.359161 0.920910 0.491499 0.232105
H87   H     H_    0.297727 0.863029 0.531463 0.261815
H88   H     H_    0.328731 0.820370 0.374592 0.250247

loop_
_geom_bond_atom_site_label_1
_geom_bond_atom_site_label_2
_geom_bond_distance
_ccdc_geom_bond_type
C50   O17   1.385640 S    
Zn1   N4    2.012841 S    
C12   C13   1.402625 A    
O13   C57   1.426307 S    
C71   H60   1.110201 S    
N6    H21   1.030806 S    
N2    C27   1.368824 A    
C65   H44   1.110149 S    
C69   H54   1.109723 S    
C12   C15   1.398952 A    
C4    C17   1.463590 S    
C47   C48   1.565345 S    
C81   H83   1.110545 S    
C51   H14   1.078882 S    
C47   N7    1.465672 S    
C10   O15   1.399244 S    
C53   C54   1.544541 S    
C61   H34   1.108256 S    
Zn1   O7    1.934497 S    
C58   H28   1.110934 S    
C47   O14   1.431659 S    
N1    C11   1.443793 S    
C26   O12   1.348547 S    
C80   C81   1.526376 S    
C59   H31   1.108678 S    
C22   C23   1.395740 A    
C69   H55   1.107991 S    
C1    C42   1.421908 S    
C31   H10   1.082747 S    
C67   H51   1.116891 S    
O4    C2    1.292077 A    
O7    C4    1.284940 A    
C54   H16   1.108236 S    
C79   H79   1.115399 S    
C37   H8    1.082510 S    
C5    O9    1.349584 S    
C59   H29   1.109672 S    
C57   C58   1.549801 S    
C80   H81   1.110771 S    
C45   C46   1.382454 A    
C23   C27   1.396922 A    
C43   C44   1.390981 A    
O5    C3    1.282458 A    
C76   H71   1.111340 S    
C28   H4    1.083081 S    
C72   H63   1.110769 S    
C51   N4    1.355412 A    
C60   H32   1.104297 S    
C29   H3    1.084358 S    
C72   H62   1.110746 S    
C2    C16   1.451315 S    
C7    C8    1.391651 A    
C38   N5    1.423643 S    
C42   C43   1.414175 A    
C77   H74   1.109055 S    
N1    C6    1.373073 A    
Zn2   N3    2.013977 S    
O17   C70   1.421128 S    
N5    C55   1.448538 S    
C8    N8    1.430544 S    
C38   C39   1.413763 A    
C78   H77   1.108790 S    
C60   C61   1.530193 S    
C77   C78   1.526185 S    
C53   H15   1.112489 S    
O1    Zn1   2.025151 S    
C39   N6    1.424290 S    
C71   C72   1.525964 S    
C74   H67   1.107303 S    
C53   O18   1.418096 S    
C75   H69   1.110278 S    
C82   H86   1.111211 S    
C68   C69   1.528500 S    
O14   C60   1.416546 S    
C56   H23   1.110121 S    
C78   H76   1.110401 S    
C56   H22   1.111087 S    
C62   H37   1.108413 S    
C37   C40   1.402883 A    
C40   O13   1.384382 S    
C58   C59   1.524079 S    
C46   C47   1.501460 S    
C6    C15   1.399747 A    
C57   H25   1.105868 S    
C75   H68   1.108945 S    
O15   C63   1.412673 S    
C69   H56   1.110684 S    
C48   H13   1.111606 S    
C66   H48   1.107765 S    
C17   C29   1.405400 A    
C67   C68   1.522526 S    
C55   H18   1.108405 S    
C44   C45   1.400342 A    
C49   N3    1.365752 A    
C50   C51   1.428705 A    
C79   C80   1.536092 S    
N7    C66   1.452983 S    
C8    C16   1.405411 A    
C7    H7    1.081772 S    
C21   O20   1.379064 S    
C30   C31   1.399986 A    
C9    H1    1.081830 S    
C15   C37   1.392108 A    
C41   C42   1.389213 A    
C80   H80   1.110586 S    
O1    C1    1.287869 A    
C21   C22   1.398186 A    
C66   H49   1.108111 S    
C72   H61   1.110509 S    
C82   H88   1.111319 S    
C7    C11   1.403217 A    
C28   C29   1.383309 A    
C64   H42   1.111895 S    
C3    C45   1.415809 S    
C23   C24   1.401701 A    
C14   C36   1.391294 A    
C55   H19   1.111575 S    
C68   H53   1.111361 S    
C6    O11   1.350285 S    
N4    C52   1.361020 A    
C76   C77   1.528590 S    
C70   C71   1.531757 S    
Zn2   O8    1.941803 S    
C33   C36   1.415225 A    
C73   C74   1.536759 S    
C19   C20   1.407612 A    
N2    C32   1.438054 S    
C34   C35   1.421154 A    
C41   C46   1.343980 A    
C27   O10   1.350108 S    
C52   C53   1.494081 S    
C57   H26   1.111038 S    
C12   C34   1.414433 A    
C74   C75   1.526569 S    
C63   C64   1.528120 S    
O3    C2    1.291705 A    
C26   N2    1.371923 A    
C9    C16   1.398615 A    
O8    C4    1.305428 A    
C14   H2    1.082186 S    
C18   C21   1.425509 A    
C30   H9    1.076611 S    
C74   H66   1.104613 S    
C75   H70   1.110512 S    
N3    C50   1.384159 A    
C65   H45   1.109906 S    
C48   O16   1.413159 S    
C64   H41   1.111873 S    
C25   C26   1.414147 A    
C56   H24   1.111313 S    
C78   H75   1.111085 S    
C63   H40   1.111824 S    
O18   C73   1.415602 S    
C62   H38   1.107496 S    
C81   H82   1.110917 S    
Zn1   O5    2.006022 S    
C25   C39   1.417424 A    
C31   C32   1.407887 A    
C73   H65   1.113823 S    
C20   C24   1.412137 A    
O2    Zn2   2.006023 S    
C35   C40   1.427422 A    
C70   H58   1.113743 S    
C68   H52   1.109693 S    
O6    C3    1.285965 A    
O4    Zn2   1.934500 S    
C62   H36   1.110249 S    
N6    C56   1.446964 S    
C5    N1    1.373292 A    
N7    H46   1.029676 S    
C19   C35   1.422465 A    
C58   H27   1.106295 S    
C61   C62   1.526759 S    
C54   O19   1.415401 S    
C82   H87   1.109161 S    
C65   H43   1.110870 S    
C13   C14   1.394053 A    
C64   C65   1.526603 S    
C44   H12   1.083535 S    
C22   H5    1.083668 S    
C67   H50   1.111343 S    
C55   H20   1.111371 S    
C49   C54   1.485930 S    
C79   H78   1.106570 S    
C24   C25   1.411912 A    
C59   H30   1.110326 S    
C19   C38   1.413198 A    
O16   C67   1.420077 S    
C61   H35   1.109796 S    
O2    C1    1.284144 A    
C43   H11   1.080209 S    
C76   H72   1.111782 S    
C18   C33   1.428684 A    
C81   H84   1.110991 S    
C73   H64   1.110219 S    
C5    C13   1.402707 A    
C77   H73   1.108500 S    
O19   C76   1.411854 S    
N8    H85   1.028292 S    
C49   C52   1.400041 A    
C70   H57   1.107756 S    
O3    Zn1   1.941803 S    
Zn2   O6    2.025150 S    
C33   C34   1.420647 A    
C17   C30   1.399022 A    
C71   H59   1.111441 S    
C10   C11   1.415801 A    
C66   H47   1.110079 S    
O20   C79   1.417988 S    
C41   C48   1.510522 S    
C60   H33   1.110811 S    
N5    H17   1.029712 S    
C9    C10   1.416083 A    
C28   C32   1.397944 A    
C36   H6    1.065173 S    
C18   C20   1.421122 A    
C63   H39   1.113054 S    
N8    C82   1.448764 S    
