data_mof_unit_29398.cif
_audit_creation_date              2012-12-11T15:18:38-0500
_audit_creation_method            fapswitch 2.2
_symmetry_space_group_name_H-M    P1
_symmetry_Int_Tables_number       1
_space_group_crystal_system       triclinic
_cell_length_a                    6.947829
_cell_length_b                    19.896638
_cell_length_c                    23.722556
_cell_angle_alpha                 93.480158
_cell_angle_beta                  90.823767
_cell_angle_gamma                 88.937999
_cell_volume                      3272.4707291

loop_
_atom_site_label
_atom_site_type_symbol
_atom_type_description
_atom_site_fract_x
_atom_site_fract_y
_atom_site_fract_z
_atom_type_partial_charge
O1    O     O_R   0.620100 0.812200 0.810870 -0.523541
O2    O     O_R   0.379900 0.187800 0.189130 -0.518552
O3    O     O_R   0.296960 0.671650 0.794750 -0.538794
O4    O     O_R   0.703040 0.328350 0.205250 -0.539138
O5    O     O_R   0.120160 0.687800 0.689130 -0.543889
O6    O     O_R   0.879840 0.312200 0.310870 -0.543956
C1    C     C_R   0.466933 0.646894 0.804580 0.704847
C2    C     C_R   0.532715 0.352882 0.195139 0.702144
O7    O     O_R   0.290810 0.810670 0.817290 -0.544091
O8    O     O_R   0.709190 0.189330 0.182710 -0.546020
O9    O     O_R   0.113980 0.827820 0.711840 -0.534742
O10   O     O_R   0.886020 0.172180 0.288160 -0.537295
C3    C     C_R   0.459212 0.831757 0.834270 0.734759
C4    C     C_R   0.540819 0.167825 0.166033 0.737968
O11   O     O_R   0.626290 0.672180 0.788160 -0.538788
O12   O     O_R   0.373710 0.327820 0.211840 -0.539533
O13   O     O_3   0.451520 0.755460 0.715370 -0.373768
O14   O     O_3   0.548480 0.244540 0.284630 -0.373370
V1    V     V_3+5 0.179200 0.748980 0.756420 1.449332
V2    V     V_3+5 0.820800 0.251020 0.243580 1.448727
O15   O     O_R   0.783880 0.828350 0.705250 -0.525845
O16   O     O_R   0.216120 0.171650 0.294750 -0.520817
C5    C     C_R   0.950385 0.852845 0.695073 0.780150
C6    C     C_R   0.049873 0.146970 0.304695 0.780149
O17   O     O_R   0.790030 0.689320 0.682700 -0.548184
O18   O     O_R   0.209970 0.310680 0.317300 -0.548569
C7    C     C_R   0.959109 0.668220 0.665697 0.697046
C8    C     C_R   0.040891 0.331786 0.334299 0.695884
V3    V     V_3+5 0.678400 0.751010 0.743570 1.462338
V4    V     V_3+5 0.321600 0.248990 0.256430 1.471419
O19   O     O_3   0.955950 0.744540 0.784620 -0.369153
O20   O     O_3   0.044050 0.255460 0.215380 -0.369209
C9    C     C_R   0.181687 0.425799 0.396147 -0.205560
C10   C     C_R   0.818296 0.574231 0.603830 -0.204468
C11   C     C_R   0.030538 0.380848 0.383876 -0.077325
C12   C     C_R   0.969460 0.619171 0.616110 -0.077591
C13   C     C_R   0.867490 0.383801 0.418587 -0.217561
C14   C     C_R   0.132501 0.616225 0.581396 -0.218127
C15   C     C_R   0.855411 0.430521 0.465277 0.091177
C16   C     C_R   0.144567 0.569514 0.534699 0.091497
C17   C     C_R   0.006249 0.476085 0.476776 0.057053
C18   C     C_R   0.993727 0.523951 0.523197 0.057091
C19   C     C_R   0.169452 0.473928 0.441887 0.089753
C20   C     C_R   0.830522 0.526109 0.558085 0.089538
C21   C     C_R   0.695062 0.432531 0.500706 -0.185917
C22   C     C_R   0.304907 0.567509 0.499266 -0.186743
C23   C     C_R   0.682897 0.479814 0.546739 -0.167007
C24   C     C_R   0.317068 0.520227 0.453230 -0.167848
H1    H     H_    0.307126 0.424235 0.369390 0.125354
H2    H     H_    0.692852 0.575794 0.630585 0.125739
H3    H     H_    0.750755 0.349170 0.409620 0.124237
H4    H     H_    0.249242 0.650853 0.590367 0.124272
H5    H     H_    0.578212 0.397778 0.492605 0.135562
H6    H     H_    0.421754 0.602262 0.507366 0.135217
H7    H     H_    0.557125 0.480458 0.573269 0.144185
H8    H     H_    0.442834 0.519586 0.426698 0.143938
C25   C     C_R   0.949018 0.914935 0.663963 -0.127072
C26   C     C_R   0.052935 0.084467 0.335259 -0.121444
C27   C     C_R   0.858338 0.032508 0.659113 -0.178154
C28   C     C_R   0.158634 0.968415 0.341035 -0.202791
C29   C     C_R   0.880873 0.975641 0.690207 0.383914
C30   C     C_R   0.139309 0.025803 0.310454 0.361776
C31   C     C_R   0.995459 0.912121 0.606284 -0.282738
C32   C     C_R   0.992835 0.085548 0.391721 -0.280327
C33   C     C_R   0.971340 0.969516 0.573501 0.096016
C34   C     C_R   0.021636 0.028610 0.424798 0.095631
C35   C     C_R   0.900250 0.029841 0.601331 0.066156
C36   C     C_R   0.102602 0.969402 0.397675 0.077370
C37   C     C_R   0.012469 0.969118 0.514213 0.070820
C38   C     C_R   0.978202 0.028740 0.483919 0.068816
C39   C     C_R   0.905693 0.086872 0.514047 -0.180823
C40   C     C_R   0.088441 0.911370 0.484328 -0.181940
C41   C     C_R   0.868907 0.087305 0.571411 -0.165030
C42   C     C_R   0.132521 0.911756 0.427470 -0.169881
H9    H     H_    0.814067 0.133392 0.592627 0.137087
H10   H     H_    0.193642 0.866383 0.406700 0.135002
H11   H     H_    0.931317 0.132335 0.408924 0.112929
H12   H     H_    0.043169 0.863865 0.588082 0.111665
H13   H     H_    0.804507 0.078872 0.680107 0.159387
H14   H     H_    0.223662 0.923346 0.320887 0.153820
H15   H     H_    0.877067 0.133598 0.494655 0.123852
H16   H     H_    0.119152 0.864891 0.503898 0.124371
C43   C     C_R   0.474814 0.584574 0.835201 -0.108931
C44   C     C_R   0.521515 0.415262 0.164664 -0.106028
C45   C     C_R   0.410035 0.465368 0.834787 0.442470
C46   C     C_R   0.553433 0.536460 0.166747 0.433993
C47   C     C_R   0.431279 0.523926 0.806248 -0.207142
C48   C     C_R   0.547549 0.476738 0.194516 -0.209855
C49   C     C_R   0.501215 0.586861 0.893807 -0.189448
C50   C     C_R   0.498033 0.413166 0.105919 -0.190857
C51   C     C_R   0.478998 0.528626 0.925203 0.011883
C52   C     C_R   0.497629 0.472938 0.075753 0.012952
C53   C     C_R   0.429251 0.466819 0.894864 -0.052024
C54   C     C_R   0.530315 0.535586 0.106832 -0.060452
C55   C     C_R   0.498134 0.530769 0.985809 0.026624
C56   C     C_R   0.470939 0.471623 0.015470 0.027343
C57   C     C_R   0.410831 0.413210 0.984380 -0.277465
C58   C     C_R   0.537153 0.590895 0.017949 -0.273949
C59   C     C_R   0.395128 0.409310 0.925469 0.433559
C60   C     C_R   0.540610 0.594770 0.076905 0.425536
H17   H     H_    0.488660 0.363766 0.084812 0.097977
H18   H     H_    0.532767 0.635683 0.913323 0.099867
H19   H     H_    0.568096 0.478054 0.239968 0.145466
H20   H     H_    0.409648 0.522456 0.760826 0.146178
H21   H     H_    0.364037 0.369851 0.005178 0.133076
H22   H     H_    0.560700 0.637690 0.998983 0.135379
C61   C     C_R   0.659487 0.062844 0.112616 -0.134570
C62   C     C_R   0.335993 0.934673 0.889350 -0.147783
C63   C     C_R   0.530590 0.118185 0.116958 -0.086628
C64   C     C_R   0.468519 0.880507 0.883985 -0.087504
C65   C     C_R   0.387693 0.124957 0.075134 -0.160089
C66   C     C_R   0.611011 0.873436 0.925934 -0.189751
C67   C     C_R   0.374682 0.077810 0.028774 0.078990
C68   C     C_R   0.620181 0.919296 0.973337 0.050290
C69   C     C_R   0.503108 0.021995 0.024693 -0.010345
C70   C     C_R   0.489241 0.974369 0.978049 -0.018001
C71   C     C_R   0.645544 0.013953 0.067137 0.018617
C72   C     C_R   0.346880 0.982495 0.935601 0.014874
C73   C     C_R   0.235563 0.085925 0.986281 -0.278764
C74   C     C_R   0.759050 0.911066 0.015948 -0.310455
C75   C     C_R   0.218923 0.038380 0.940200 0.405501
C76   C     C_R   0.768760 0.956671 0.063679 0.409159
H23   H     H_    0.767787 0.057407 0.145450 0.179635
H24   H     H_    0.227016 0.940068 0.856701 0.181285
H25   H     H_    0.288047 0.167579 0.078385 0.108850
H26   H     H_    0.712922 0.831524 0.922032 0.118056
H27   H     H_    0.139410 0.129512 0.988501 0.136514
H28   H     H_    0.859961 0.868893 0.012413 0.139605
O21   O     O_3   0.317940 0.351677 0.899204 -0.520588
C77   C     C_3   0.453311 0.297846 0.900706 0.132319
H29   H     H_    0.490183 0.285591 0.944759 0.080209
H30   H     H_    0.587421 0.310076 0.878553 0.153112
C78   C     C_3   0.366712 0.235437 0.870812 -0.581804
H31   H     H_    0.326100 0.245630 0.826663 0.264086
H32   H     H_    0.473199 0.193249 0.870020 0.165739
H33   H     H_    0.236669 0.220520 0.893386 0.212845
O22   O     O_3   0.568055 0.657281 0.104244 -0.522319
C79   C     C_3   0.391391 0.693796 0.104435 0.161624
H34   H     H_    0.285974 0.670213 0.131745 0.156584
H35   H     H_    0.328318 0.696552 0.061160 0.085592
C80   C     C_3   0.425102 0.765511 0.127709 -0.659726
H36   H     H_    0.525423 0.790499 0.099980 0.196743
H37   H     H_    0.286575 0.794215 0.129007 0.172154
H38   H     H_    0.487465 0.765431 0.171055 0.252866
Cl1   Cl    Cl    0.357531 0.392863 0.791104 -0.608515
Cl2   Cl    Cl    0.598223 0.609406 0.210762 -0.612336
O23   O     O_3   0.088199 0.049790 0.897123 -0.543341
C81   C     C_3   0.898097 0.041023 0.915666 0.140670
H39   H     H_    0.883755 0.038024 0.962257 0.093372
H40   H     H_    0.842856 0.993443 0.895148 0.183974
C82   C     C_3   0.771231 0.099146 0.897629 -0.657683
H41   H     H_    0.775447 0.102246 0.851092 0.269733
H42   H     H_    0.620484 0.091337 0.910237 0.178082
H43   H     H_    0.822145 0.147252 0.918364 0.193878
O24   O     O_3   0.901742 0.946413 0.106536 -0.540165
C83   C     C_3   0.850299 0.888751 0.134578 0.089659
H44   H     H_    0.888809 0.842141 0.108603 0.122379
H45   H     H_    0.693445 0.889047 0.144131 0.129443
C84   C     C_3   0.959390 0.887374 0.190476 -0.609001
H46   H     H_    0.913002 0.930847 0.218919 0.245788
H47   H     H_    0.928307 0.840151 0.211022 0.176351
H48   H     H_    0.116679 0.889703 0.183415 0.249050
Cl3   Cl    Cl    0.230930 0.023378 0.241374 -0.684559
Cl4   Cl    Cl    0.819376 0.981762 0.762173 -0.682234

loop_
_geom_bond_atom_site_label_1
_geom_bond_atom_site_label_2
_ccdc_geom_bond_type
C26   C30   A    
C4    C63   S    
C43   C47   A    
C31   C33   A    
C49   H18   S    
C29   Cl4   S    
O13   V3    S    
C17   C18   A    
C1    C43   S    
C55   C56   A    
C81   C82   S    
C61   H23   S    
O4    C2    A    
V1    O19   S    
C66   C68   A    
C55   C58   A    
C15   C17   A    
C34   C38   A    
C16   C22   A    
O9    V1    S    
C18   C20   A    
C83   H44   S    
C11   C13   A    
C45   Cl1   S    
O3    C1    A    
C80   H37   S    
C13   H3    S    
C46   C48   A    
C14   H4    S    
C34   C36   A    
C36   C42   A    
C69   C70   A    
C52   C56   A    
C28   C30   A    
C76   O24   S    
C82   H43   S    
C30   Cl3   S    
O7    C3    A    
C46   C54   A    
C63   C65   A    
C27   C35   A    
C67   C73   A    
C45   C53   A    
O7    V1    S    
O6    C8    A    
O23   C81   S    
C8    C11   S    
O8    V2    S    
C69   C71   A    
C42   H10   S    
C65   H25   S    
C78   H33   S    
C82   H41   S    
C75   O23   S    
O3    V1    S    
C38   C39   A    
C35   C41   A    
C49   C51   A    
C19   C24   A    
C53   C59   A    
C66   H26   S    
C24   H8    S    
C20   C23   A    
C15   C21   A    
C57   H21   S    
C21   C23   A    
C21   H5    S    
C2    O12   A    
O5    C7    A    
C26   C32   A    
C17   C19   A    
C22   H6    S    
C44   C50   A    
C62   H24   S    
C46   Cl2   S    
O1    V3    S    
C57   C59   A    
C74   C76   A    
O11   V3    S    
C73   C75   A    
O17   V3    S    
C43   C49   A    
C22   C24   A    
C10   H2    S    
C27   C29   A    
C59   O21   S    
C45   C47   A    
C9    C19   A    
C62   C72   A    
C10   C20   A    
C81   H39   S    
C40   C42   A    
O8    C4    A    
C80   H38   S    
C27   H13   S    
C39   C41   A    
C1    O11   A    
C33   C35   A    
O15   V3    S    
C72   C75   A    
C32   C34   A    
C37   C40   A    
C77   H30   S    
C71   C76   A    
C50   H17   S    
C3    C64   S    
V4    O20   S    
C51   C53   A    
C50   C52   A    
C84   H46   S    
C54   C60   A    
C56   C57   A    
O10   V2    S    
C52   C54   A    
C84   H48   S    
C65   C67   A    
C68   C74   A    
C79   H35   S    
C70   C72   A    
O14   V4    S    
C6    C26   S    
O18   V4    S    
C58   C60   A    
O15   C5    A    
C78   H31   S    
O16   C6    A    
C77   C78   S    
O1    C3    A    
C41   H9    S    
O12   V4    S    
C12   C14   A    
C48   H19   S    
C23   H7    S    
O21   C77   S    
V2    O20   S    
C5    C25   S    
C28   H14   S    
O16   V4    S    
C2    C44   S    
C83   C84   S    
C44   C48   A    
C25   C31   A    
C81   H40   S    
C16   C18   A    
C79   C80   S    
C68   C70   A    
C74   H28   S    
C25   C29   A    
O5    V1    S    
C7    C12   S    
O17   C7    A    
O6    V2    S    
O22   C79   S    
O10   C6    A    
O18   C8    A    
C58   H22   S    
O2    V4    S    
C83   H45   S    
C77   H29   S    
C13   C15   A    
C80   H36   S    
C14   C16   A    
C9    C11   A    
C61   C63   A    
C33   C37   A    
O9    C5    A    
O13   V1    S    
C10   C12   A    
C62   C64   A    
O14   V2    S    
C82   H42   S    
C37   C38   A    
O2    C4    A    
C64   C66   A    
C60   O22   S    
C51   C55   A    
C47   H20   S    
O4    V2    S    
C28   C36   A    
V3    O19   S    
O24   C83   S    
C78   H32   S    
C32   H11   S    
C39   H15   S    
C84   H47   S    
C9    H1    S    
C61   C71   A    
C40   H16   S    
C79   H34   S    
C67   C69   A    
C31   H12   S    
C73   H27   S    
