data_mof_unit_37842.cif
_audit_creation_date              2012-12-10T17:21:11-0500
_audit_creation_method            fapswitch 2.2
_symmetry_space_group_name_H-M    P1
_symmetry_Int_Tables_number       1
_space_group_crystal_system       triclinic
_cell_length_a                    10.235949
_cell_length_b                    11.028015
_cell_length_c                    10.83968
_cell_angle_alpha                 88.963563
_cell_angle_beta                  95.11126
_cell_angle_gamma                 79.936666
_cell_volume                      1199.28441509

loop_
_atom_site_label
_atom_site_type_symbol
_atom_type_description
_atom_site_fract_x
_atom_site_fract_y
_atom_site_fract_z
_atom_type_partial_charge
C1    C     C_R   0.443290 0.503725 0.267927 0.898783
C2    C     C_3   0.499779 0.879851 0.502484 -0.579276
C3    C     C_3   0.589377 0.910884 0.627180 0.437003
C4    C     C_3   0.350702 0.954433 0.503623 0.501183
C5    C     C_2   0.406613 0.506983 0.136003 0.239770
C6    C     C_2   0.490007 0.433984 0.068321 -0.210718
C7    C     C_2   0.579515 0.460526 0.868902 0.061452
C8    C     C_2   0.478185 0.435814 0.934002 0.352570
C9    C     C_2   0.074232 0.494172 0.488146 0.024806
C10   C     C_2   0.924645 0.516230 0.496035 0.054953
C11   C     C_R   0.501934 0.257747 0.503541 1.079255
C12   C     C_R   0.554789 0.483821 0.733594 0.930449
C13   C     C_R   0.499625 0.742705 0.500376 1.121841
C14   C     C_3   0.552961 0.069482 0.378651 0.021847
C15   C     C_3   0.560643 0.925477 0.377550 0.478162
C16   C     C_3   0.612518 0.050528 0.613550 0.456075
C17   C     C_3   0.355341 0.096014 0.511109 0.525826
C18   C     C_3   0.504524 0.121284 0.504694 -0.516551
H1    H     H_    0.653920 0.087954 0.369607 0.242942
H2    H     H_    0.573830 0.370794 0.114645 0.222693
H3    H     H_    0.879585 0.594873 0.544222 0.212597
H4    H     H_    0.117599 0.427441 0.425476 0.198055
N1    N     N_2   0.157300 0.551950 0.551120 0.030270
N2    N     N_2   0.842730 0.448000 0.448950 0.026980
O1    O     O_R   0.568940 0.489540 0.307530 -0.570107
O2    O     O_R   0.348880 0.522880 0.340350 -0.626125
O3    O     O_R   0.610030 0.298130 0.483570 -0.549970
O4    O     O_R   0.389960 0.331470 0.516390 -0.588591
O5    O     O_R   0.651120 0.477120 0.659650 -0.579407
O6    O     O_R   0.431060 0.510460 0.692470 -0.552914
O7    O     O_R   0.610040 0.668530 0.483610 -0.584846
O8    O     O_R   0.389970 0.701870 0.516430 -0.527100
Zn1   Zn    Zn3+2 0.646940 0.477740 0.478080 1.183146
Zn2   Zn    Zn3+2 0.353060 0.522260 0.521920 1.183661
Cl1   Cl    Cl    0.254358 0.908479 0.620228 -0.279509
S1    S     S_3+6 0.632344 0.129461 0.759027 0.128140
O9    O     O_2   0.687869 0.243260 0.734221 -0.325647
O10   O     O_2   0.507310 0.164688 0.820903 -0.213404
O11   O     O_3   0.747666 0.042142 0.858675 -0.390038
H5    H     H_    0.753658 0.091544 0.933757 0.396941
S2    S     S_3+6 0.528923 0.871891 0.775650 0.171998
O12   O     O_2   0.641692 0.851335 0.876755 -0.131711
O13   O     O_2   0.419706 0.965454 0.819040 -0.123218
O14   O     O_3   0.474193 0.738675 0.764179 -0.535499
H6    H     H_    0.484273 0.704931 0.850192 0.399606
Cl2   Cl    Cl    0.332151 0.387009 0.866639 -0.309208
S3    S     S_3+6 0.737342 0.472794 0.944944 0.130301
O15   O     O_2   0.722845 0.583623 0.024555 -0.160606
O16   O     O_2   0.790532 0.359670 0.025782 -0.251732
O17   O     O_3   0.846696 0.487011 0.841886 -0.405998
H7    H     H_    0.879303 0.401986 0.816634 0.403190
S4    S     S_3+6 0.268233 0.620332 0.075910 0.164757
O18   O     O_2   0.319475 0.715434 0.002514 -0.207954
O19   O     O_2   0.168654 0.565466 0.994799 -0.161329
O20   O     O_3   0.189103 0.692310 0.190989 -0.415530
H8    H     H_    0.123779 0.640494 0.212064 0.381344
S5    S     S_3+6 0.895783 0.321330 0.363430 0.219909
O21   O     O_2   0.982197 0.352995 0.266825 -0.212699
O22   O     O_2   0.970898 0.219987 0.449935 -0.149664
O23   O     O_3   0.763826 0.272442 0.290876 -0.493683
H9    H     H_    0.801938 0.198638 0.246613 0.399545
Cl3   Cl    Cl    0.481233 0.161145 0.241303 -0.498584
S6    S     S_3+6 0.100774 0.655481 0.659817 0.249208
O24   O     O_2   0.027757 0.771828 0.593704 -0.144265
O25   O     O_2   0.009749 0.603402 0.738770 -0.187323
O26   O     O_3   0.227848 0.686521 0.753758 -0.404670
H10   H     H_    0.186425 0.755091 0.803049 0.440090
S7    S     S_3+6 0.495309 0.876529 0.227024 0.205789
O27   O     O_2   0.471203 0.747592 0.239618 -0.266557
O28   O     O_2   0.369034 0.955973 0.170300 -0.084546
O29   O     O_3   0.610214 0.876346 0.125209 -0.382705
H11   H     H_    0.612884 0.964186 0.107402 0.397023
Cl4   Cl    Cl    0.734222 0.856434 0.374650 -0.411558
Cl5   Cl    Cl    0.781451 0.053336 0.571886 -0.301555
Cl6   Cl    Cl    0.747085 0.805893 0.648191 -0.325757
Cl7   Cl    Cl    0.283636 0.163820 0.646385 -0.310567
Cl8   Cl    Cl    0.243085 0.179495 0.387475 -0.334556
Cl9   Cl    Cl    0.241558 0.915352 0.375989 -0.266479

loop_
_geom_bond_atom_site_label_1
_geom_bond_atom_site_label_2
_ccdc_geom_bond_type
C17   Cl7   S    
C2    C4    S    
O20   H8    S    
O7    Zn1   S    
C5    S4    S    
C4    Cl9   S    
C7    C8    D    
C12   O5    A    
C6    H2    S    
C9    C10   S    
C14   C18   S    
C13   O8    A    
N2    Zn1   S    
S4    O20   S    
C11   O3    A    
N1    Zn2   S    
C12   O6    A    
S6    O25   D    
S1    O10   D    
C17   C18   S    
C4    Cl1   S    
O4    Zn2   S    
O29   H11   S    
C11   C18   S    
C16   C18   S    
O26   H10   S    
O3    Zn1   S    
C1    O1    A    
C2    C15   S    
S2    O13   D    
S5    O21   D    
C7    C12   S    
C11   O4    A    
O23   H9    S    
S7    O29   S    
C16   Cl5   S    
C15   S7    S    
C17   Cl8   S    
S1    O9    D    
C15   Cl4   S    
S4    O19   D    
C9    N1    D    
C2    C3    S    
S3    O17   S    
C13   O7    A    
C10   H3    S    
C3    S2    S    
C5    C6    D    
C9    H4    S    
S2    O14   S    
C8    Cl2   S    
N1    S6    S    
S6    O26   S    
S5    O22   D    
C4    C17   S    
S6    O24   D    
C14   Cl3   S    
O5    Zn1   S    
C1    C5    S    
C3    Cl6   S    
O14   H6    S    
S3    O16   D    
S2    O12   D    
O1    Zn1   S    
O11   H5    S    
C2    C13   S    
O6    Zn2   S    
C14   C15   S    
S7    O27   D    
S5    O23   S    
C6    C8    S    
O17   H7    S    
C10   N2    D    
O8    Zn2   S    
C1    O2    A    
S7    O28   D    
C14   H1    S    
O2    Zn2   S    
S1    O11   S    
C16   S1    S    
C3    C16   S    
S3    O15   D    
S4    O18   D    
N2    S5    S    
C7    S3    S    
