data_mof_unit_34672.cif
_audit_creation_date              2012-12-11T15:52:27-0500
_audit_creation_method            fapswitch 2.2
_symmetry_space_group_name_H-M    P1
_symmetry_Int_Tables_number       1
_space_group_crystal_system       triclinic
_cell_length_a                    6.947683
_cell_length_b                    14.585286
_cell_length_c                    15.99773
_cell_angle_alpha                 90.358044
_cell_angle_beta                  89.938146
_cell_angle_gamma                 89.958382
_cell_volume                      1621.08003653

loop_
_atom_site_label
_atom_site_type_symbol
_atom_type_description
_atom_site_fract_x
_atom_site_fract_y
_atom_site_fract_z
_atom_type_partial_charge
O1    O     O_R   0.494400 0.415640 0.412830 -0.539711
O2    O     O_R   0.823920 0.405510 0.586560 -0.541932
O3    O     O_R   0.994250 0.584360 0.587170 -0.540338
C1    C     C_R   0.655297 0.385895 0.617050 0.704059
O4    O     O_R   0.824110 0.404610 0.413450 -0.542511
O5    O     O_R   0.994440 0.583460 0.412820 -0.539844
C2    C     C_R   0.655130 0.382216 0.384391 0.688282
O6    O     O_R   0.494210 0.416540 0.587180 -0.541946
O7    O     O_3   0.660810 0.558680 0.500000 -0.371242
V1    V     V_3+5 0.935650 0.489110 0.500000 1.389169
O8    O     O_R   0.324150 0.594490 0.413440 -0.542887
C3    C     C_R   0.155114 0.616616 0.384384 0.683974
O9    O     O_R   0.323970 0.595390 0.586550 -0.544639
C4    C     C_R   0.154707 0.618410 0.614925 0.654182
V2    V     V_3+5 0.435660 0.510890 0.500000 1.383249
O10   O     O_3   0.160630 0.441320 0.500000 -0.368374
C5    C     C_3   0.930159 0.711077 0.708240 -0.310015
H1    H     H_    0.854593 0.739627 0.652848 0.135903
H2    H     H_    0.852989 0.647559 0.725910 0.143931
C6    C     C_3   0.917541 0.780622 0.781143 -0.318663
H3    H     H_    0.838071 0.748966 0.834082 0.139014
H4    H     H_    0.833514 0.841530 0.760756 0.132259
H5    H     H_    0.170550 0.808695 0.603730 0.122897
H6    H     H_    0.149663 0.913518 0.711104 0.125029
C7    C     C_3   0.240960 0.780487 0.660482 -0.321347
C8    C     C_3   0.246495 0.652843 0.764651 -0.324873
C9    C     C_3   0.143282 0.688938 0.685318 0.119355
H7    H     H_    0.400930 0.639442 0.750477 0.137409
H8    H     H_    0.182824 0.586480 0.783982 0.129092
C10   C     C_3   0.121540 0.810597 0.810111 0.121053
C11   C     C_3   0.227541 0.851618 0.733183 -0.326931
C12   C     C_3   0.232101 0.723301 0.837639 -0.319623
H9    H     H_    0.157359 0.691280 0.891633 0.123110
H10   H     H_    0.379613 0.742003 0.858743 0.141906
H11   H     H_    0.394944 0.768319 0.644657 0.139516
H12   H     H_    0.375172 0.873636 0.751231 0.136723
C13   C     C_R   0.953775 0.773921 0.216082 -0.158462
H13   H     H_    0.813303 0.792328 0.192194 0.116517
C14   C     C_R   0.964830 0.710797 0.281643 -0.153268
H14   H     H_    0.832307 0.682434 0.305987 0.118722
C15   C     C_R   0.143987 0.684600 0.315143 -0.048291
C16   C     C_R   0.311761 0.723397 0.281069 -0.158567
H15   H     H_    0.452232 0.704990 0.304958 0.116346
C17   C     C_R   0.300707 0.786521 0.215507 -0.153029
H16   H     H_    0.433229 0.814882 0.191160 0.118957
C18   C     C_R   0.121548 0.812725 0.182013 -0.049328
C19   C     C_R   0.793391 0.312353 0.747079 0.130783
C20   C     C_R   0.801565 0.233193 0.797584 0.101752
C21   C     C_R   0.630348 0.182215 0.811871 -0.081165
C22   C     C_R   0.482191 0.192281 0.753970 -0.221160
H17   H     H_    0.367704 0.144006 0.753764 0.143927
C23   C     C_R   0.491517 0.257200 0.690306 -0.202838
H18   H     H_    0.377436 0.259169 0.644237 0.135255
C24   C     C_R   0.645869 0.318893 0.686387 -0.064591
C25   C     C_R   0.811781 0.274422 0.280927 -0.157859
H19   H     H_    0.952298 0.293136 0.304722 0.116724
C26   C     C_R   0.800613 0.210569 0.215334 -0.153232
H20   H     H_    0.933136 0.181937 0.190831 0.119010
C27   C     C_R   0.621323 0.184001 0.182018 -0.047486
C28   C     C_R   0.453524 0.223136 0.216212 -0.158436
H21   H     H_    0.313012 0.204423 0.192408 0.116501
C29   C     C_R   0.464692 0.286994 0.281806 -0.152572
H22   H     H_    0.332177 0.315636 0.306306 0.119210
C30   C     C_R   0.643983 0.313535 0.315143 -0.047211
O11   O     O_R   0.771300 0.080930 0.910090 -0.532365
O12   O     O_R   0.441270 0.092800 0.083770 -0.542095
O13   O     O_R   0.271080 0.913920 0.084380 -0.538654
C31   C     C_R   0.610222 0.115264 0.112820 0.688443
O14   O     O_R   0.441580 0.091910 0.910670 -0.543153
O15   O     O_R   0.271390 0.913020 0.910040 -0.541613
C32   C     C_R   0.612107 0.113202 0.880762 0.690550
O16   O     O_R   0.770990 0.081830 0.084440 -0.540268
O17   O     O_3   0.604750 0.938760 0.997250 -0.369009
V3    V     V_3+5 0.329850 0.008280 0.997210 1.378343
O18   O     O_R   0.941680 0.901940 0.910610 -0.542102
C33   C     C_R   0.110627 0.880030 0.881373 0.648657
O19   O     O_R   0.941370 0.902830 0.083720 -0.542081
C34   C     C_R   0.110411 0.880726 0.112786 0.687883
V4    V     V_3+5 0.829860 0.986420 0.997150 1.382045
O20   O     O_3   0.104830 0.056030 0.997180 -0.370618
C35   C     C_3   0.919904 0.394299 0.768642 -0.384383
C36   C     C_3   0.796551 0.472915 0.802938 -0.784717
H23   H     H_    0.703377 0.501766 0.753333 0.209713
H24   H     H_    0.704076 0.448226 0.854874 0.229863
H25   H     H_    0.889911 0.528118 0.828071 0.210828
H26   H     H_    0.024169 0.377659 0.818783 0.171774
H27   H     H_    0.006017 0.417114 0.714290 0.195564
C37   C     C_3   0.996836 0.192092 0.816185 -0.323969
C38   C     C_3   0.020794 0.099952 0.769330 -0.702557
H28   H     H_    0.888013 0.058013 0.766978 0.209574
H29   H     H_    0.063174 0.112583 0.703420 0.190568
H30   H     H_    0.131862 0.057799 0.800629 0.204629
H31   H     H_    0.114093 0.237361 0.794550 0.158885
H32   H     H_    0.019342 0.185333 0.884408 0.198818

loop_
_geom_bond_atom_site_label_1
_geom_bond_atom_site_label_2
_ccdc_geom_bond_type
C7    C11   S    
O12   C31   A    
C25   H19   S    
C8    C12   S    
O11   V4    S    
C15   C16   A    
C1    O6    A    
C35   C36   S    
C14   C15   A    
C6    C10   S    
O19   C34   A    
C17   H16   S    
C8    C9    S    
C29   H22   S    
O16   V4    S    
O5    C3    A    
C10   C11   S    
C26   C27   A    
V2    O10   S    
O12   V3    S    
C5    C6    S    
C28   C29   A    
O17   V3    S    
O14   C32   A    
C29   C30   A    
O8    V2    S    
C23   C24   A    
O15   V3    S    
C22   C23   A    
C20   C37   S    
O1    V2    S    
C4    C9    S    
C38   H29   S    
O7    V1    S    
C35   H26   S    
C13   C18   A    
C19   C35   S    
C27   C28   A    
V3    O20   S    
O9    C4    A    
O13   C34   A    
C16   C17   A    
C17   C18   A    
C22   H17   S    
O19   V4    S    
C37   H32   S    
C5    C9    S    
C14   H14   S    
O4    C2    A    
O11   C32   A    
C28   H21   S    
C12   H10   S    
O2    C1    A    
O18   C33   A    
C13   H13   S    
C27   C31   S    
C10   C33   S    
C19   C20   A    
C31   O16   A    
C25   C30   A    
C5    H1    S    
O17   V4    S    
O14   V3    S    
O13   V3    S    
C6    H3    S    
C38   H30   S    
C35   H27   S    
O3    C4    A    
C7    H11   S    
C19   C24   A    
C20   C21   A    
C6    H4    S    
C21   C22   A    
O6    V2    S    
C36   H24   S    
O9    V2    S    
O15   C33   A    
C16   H15   S    
O2    V1    S    
C23   H18   S    
C3    C15   S    
C18   C34   S    
C37   H31   S    
C1    C24   S    
O1    C2    A    
O5    V1    S    
O8    C3    A    
C7    C9    S    
C36   H25   S    
C8    H7    S    
C12   H9    S    
C25   C26   A    
O7    V2    S    
H6    C11   S    
O4    V1    S    
C13   C14   A    
O3    V1    S    
V1    O10   S    
C10   C12   S    
C26   H20   S    
C5    H2    S    
H5    C7    S    
C2    C30   S    
V4    O20   S    
C37   C38   S    
C8    H8    S    
C36   H23   S    
C21   C32   S    
C11   H12   S    
C38   H28   S    
O18   V4    S    
