data_mof_unit_58584.cif
_audit_creation_date              2013-03-05T15:44:33-0500
_audit_creation_method            fapswitch 2.2
_symmetry_space_group_name_H-M    P1
_symmetry_Int_Tables_number       1
_space_group_crystal_system       triclinic
_cell_length_a                    27.832198
_cell_length_b                    10.923477
_cell_length_c                    9.704695
_cell_angle_alpha                 90.27923
_cell_angle_beta                  90.477588
_cell_angle_gamma                 90.519847
_cell_volume                      2950.20375751

loop_
_atom_site_label
_atom_site_type_symbol
_atom_site_description
_atom_site_fract_x
_atom_site_fract_y
_atom_site_fract_z
_atom_type_partial_charge
O1    O     O_R   0.500010 0.321960 0.617040 -0.604905
O2    O     O_R   0.499990 0.321920 0.382900 -0.578857
C1    C     C_R   0.499532 0.265373 0.499805 0.825327
O3    O     O_R   0.430270 0.500040 0.617060 -0.585218
O4    O     O_R   0.430260 0.500000 0.382910 -0.552323
C2    C     C_R   0.407554 0.503781 0.499391 0.841444
Cu1   Cu    Cu3+1 0.500010 0.500020 0.638630 0.992797
Cu2   Cu    Cu3+1 0.499990 0.499980 0.361370 0.997151
O5    O     O_R   0.500010 0.678080 0.617100 -0.563878
O6    O     O_R   0.499990 0.678040 0.382960 -0.551489
O7    O     O_R   0.569740 0.500000 0.617090 -0.577408
O8    O     O_R   0.569730 0.499960 0.382940 -0.551184
C3    C     C_R   0.500920 0.734646 0.500354 0.861404
C4    C     C_R   0.592436 0.498689 0.500281 0.856399
C5    C     C_R   0.177608 0.385086 0.512081 0.533990
O9    O     O_2   0.202249 0.279255 0.513920 -0.535089
N1    N     N_R   0.201812 0.494625 0.505801 -0.462831
C6    C     C_R   0.177589 0.603190 0.502235 0.538189
C7    C     C_R   0.277297 0.549950 0.390738 -0.184234
C8    C     C_R   0.327496 0.559982 0.389491 -0.047698
C9    C     C_R   0.330153 0.452802 0.609369 -0.243763
C10   C     C_R   0.280165 0.448335 0.611564 -0.093896
C11   C     C_R   0.253472 0.496148 0.501987 0.348653
C12   C     C_R   0.101581 0.492589 0.507760 -0.044633
C13   C     C_R   0.127143 0.382159 0.515048 -0.020099
C14   C     C_R   0.101896 0.271328 0.523230 -0.142374
C15   C     C_R   0.127180 0.604067 0.500901 -0.022300
C16   C     C_R   0.354544 0.507233 0.498728 -0.054662
H1    H     H_    0.349835 0.412461 0.694285 0.160099
H2    H     H_    0.262120 0.407638 0.698764 0.152493
H3    H     H_    0.120660 0.184924 0.527106 0.187938
C17   C     C_R   0.645344 0.492272 0.499434 -0.229104
C18   C     C_R   0.974205 0.379180 0.527910 0.043225
C19   C     C_R   0.974458 0.601084 0.480692 0.042867
C20   C     C_R   0.949097 0.489617 0.502951 0.073318
C21   C     C_R   0.947218 0.272703 0.559585 -0.199669
C22   C     C_R   0.897280 0.273696 0.560764 -0.136505
C23   C     C_R   0.872266 0.380447 0.529484 -0.023708
C24   C     C_R   0.898044 0.488593 0.500050 -0.041697
C25   C     C_R   0.872669 0.595789 0.467805 -0.028975
C26   C     C_R   0.822279 0.592394 0.463290 0.591904
N2    N     N_R   0.797951 0.486474 0.492870 -0.419158
C27   C     C_R   0.821811 0.381928 0.527699 0.614523
C28   C     C_R   0.719327 0.424043 0.388481 -0.067060
C29   C     C_R   0.668714 0.422077 0.397291 0.307254
C30   C     C_R   0.672848 0.558690 0.596993 0.410842
C31   C     C_R   0.722836 0.551285 0.595368 -0.226035
C32   C     C_R   0.746324 0.486636 0.491583 0.215916
O10   O     O_2   0.796751 0.279835 0.560012 -0.545677
C33   C     C_R   0.025201 0.378935 0.521246 0.043384
C34   C     C_R   0.050518 0.491591 0.507026 0.069451
C35   C     C_R   0.025359 0.603302 0.491707 0.043296
C36   C     C_R   0.051971 0.269508 0.526727 -0.203516
H4    H     H_    0.878314 0.189736 0.585728 0.186301
H5    H     H_    0.963654 0.187318 0.587424 0.138773
H6    H     H_    0.035363 0.180122 0.529926 0.137360
O11   O     O_2   0.202233 0.710187 0.500794 -0.530320
C37   C     C_R   0.102064 0.714005 0.493700 -0.142284
H7    H     H_    0.256272 0.588387 0.307219 0.143772
H8    H     H_    0.120895 0.801197 0.490869 0.188231
C38   C     C_R   0.947856 0.706568 0.446352 -0.201002
C39   C     C_R   0.897995 0.703637 0.439778 -0.140518
O12   O     O_2   0.797711 0.694013 0.429285 -0.541395
C40   C     C_R   0.052183 0.713878 0.488880 -0.204468
H9    H     H_    0.964562 0.792583 0.420088 0.139727
H10   H     H_    0.879340 0.786890 0.412754 0.187831
H11   H     H_    0.743767 0.599392 0.673527 0.178093
H12   H     H_    0.035658 0.802643 0.486298 0.137221
C41   C     C_2   0.500911 0.932556 0.386986 -0.119942
C42   C     C_2   0.503959 0.866737 0.502906 -0.315509
H13   H     H_    0.497170 0.887343 0.287465 0.187282
H14   H     H_    0.509888 0.908321 0.603097 0.143863
C43   C     C_2   0.503178 0.066606 0.386978 -0.174096
C44   C     C_2   0.497374 0.133290 0.501667 -0.308312
H15   H     H_    0.508821 0.111084 0.288457 0.167727
H16   H     H_    0.489906 0.092314 0.600559 0.153434
C45   C     C_2   0.472957 0.427587 0.922017 0.085789
N3    N     N_2   0.499480 0.498660 0.846910 0.005953
H17   H     H_    0.453320 0.353190 0.872248 0.074967
C46   C     C_2   0.467884 0.442229 0.076397 -0.015912
N4    N     N_2   0.499460 0.498630 0.153040 -0.252607
H18   H     H_    0.437162 0.399375 0.125167 0.126901
H19   H     H_    0.531999 0.519389 0.109682 0.237902
O13   O     O_3   0.651011 0.630089 0.695758 -0.584478
C47   C     C_3   0.652271 0.752935 0.651517 -0.335990
H20   H     H_    0.631922 0.764253 0.553125 0.151447
H21   H     H_    0.689819 0.787275 0.640498 0.195762
H22   H     H_    0.634814 0.810777 0.730514 0.174518
O14   O     O_3   0.508796 0.609358 0.904016 -0.500011
C48   C     C_3   0.557845 0.636032 0.884566 -0.070005
H23   H     H_    0.563375 0.683769 0.785923 0.201691
H24   H     H_    0.580911 0.553323 0.891334 0.162973
H25   H     H_    0.569938 0.699777 0.967429 0.113463
O15   O     O_3   0.641912 0.356960 0.300471 -0.571886
C49   C     C_3   0.631518 0.240093 0.354529 -0.292773
H26   H     H_    0.664972 0.188018 0.375444 0.155822
H27   H     H_    0.610102 0.187658 0.277060 0.187758
H28   H     H_    0.609638 0.246307 0.449719 0.151577
C50   C     C_2   0.742559 0.362360 0.269454 0.459040
H29   H     H_    0.721915 0.300336 0.203892 0.104683
O16   O     O_2   0.784444 0.382291 0.239973 -0.537003
C51   C     C_2   0.349012 0.632424 0.276448 0.395722
H30   H     H_    0.331093 0.635342 0.176738 0.062964
O17   O     O_2   0.384881 0.695636 0.295337 -0.513952

loop_
_geom_bond_atom_site_label_1
_geom_bond_atom_site_label_2
_geom_bond_distance
_ccdc_geom_bond_type
C26   N2    1.368146 A    
C20   C24   1.420914 A    
C49   H26   1.113247 S    
C12   C15   1.407389 A    
C49   H28   1.112813 S    
Cu1   Cu2   2.690717 S    
C45   N3    1.297319 D    
Cu1   O7    1.953695 S    
N1    C11   1.438552 S    
C44   H16   1.081859 S    
C40   H12   1.077244 S    
C21   C22   1.390170 A    
C23   C24   1.408260 A    
C18   C20   1.420427 A    
O7    C4    1.302382 A    
C36   H6    1.077189 S    
C8    C51   1.482942 S    
C3    C42   1.444681 S    
C37   H8    1.083526 S    
C5    O9    1.349622 S    
C18   C21   1.415265 A    
C25   C39   1.396401 A    
Cu1   O5    1.957238 S    
C19   C20   1.420192 A    
C17   C29   1.416329 A    
C41   H13   1.086423 S    
C1    C44   1.443725 S    
O5    C3    1.293489 A    
C51   H30   1.085645 S    
C2    C16   1.476189 S    
C50   H29   1.084724 S    
C41   C43   1.465082 S    
C38   C39   1.388758 A    
C12   C34   1.421099 A    
C47   H21   1.113276 S    
C14   H3    1.083494 S    
C9    C10   1.392016 A    
C43   H15   1.086520 S    
C41   C42   1.340545 D    
O3    Cu1   1.950542 S    
C29   O15   1.384714 S    
C31   H11   1.083532 S    
N4    H19   1.025761 S    
N1    C6    1.369895 A    
C45   H17   1.084504 S    
N3    O14   1.349792 S    
C37   C40   1.388667 A    
C33   C36   1.415233 A    
C39   H10   1.083525 S    
Cu2   N4    2.021691 S    
C12   C13   1.407778 A    
C46   H18   1.084398 S    
C35   C40   1.414707 A    
C24   C25   1.408096 A    
C27   O10   1.349602 S    
C8    C16   1.422344 A    
C7    H7    1.084209 S    
C18   C33   1.421351 A    
C47   H20   1.114107 S    
C9    H1    1.083417 S    
O6    C3    1.293560 A    
C19   C38   1.414929 A    
C34   C35   1.420217 A    
O1    C1    1.292057 A    
C7    C11   1.400620 A    
C22   C23   1.396873 A    
C6    O11   1.349984 S    
C48   H24   1.114947 S    
C31   C32   1.397473 A    
Cu2   O8    1.950536 S    
C33   C34   1.420371 A    
N2    C32   1.436838 S    
O13   C47   1.411125 S    
C51   O17   1.220763 D    
Cu1   N3    2.021596 S    
C30   O13   1.381086 S    
C22   H4    1.083492 S    
O3    C2    1.301652 A    
C25   C26   1.402938 A    
C50   O16   1.220553 D    
C9    C16   1.406532 A    
O8    C4    1.297941 A    
N2    C27   1.368658 A    
C26   O12   1.349889 S    
C14   C36   1.390190 A    
C28   C29   1.411958 A    
C48   H25   1.109320 S    
C47   H22   1.109104 S    
C5    N1    1.369664 A    
C30   C31   1.394590 A    
C43   C44   1.338930 D    
C10   H2    1.082915 S    
O1    Cu1   1.955272 S    
C17   C30   1.407074 A    
O2    Cu2   1.957238 S    
C6    C15   1.403068 A    
C4    C17   1.474951 S    
C46   N4    1.296127 D    
C15   C37   1.396766 A    
O4    Cu2   1.953698 S    
C49   H27   1.109367 S    
C19   C35   1.419814 A    
C7    C8    1.400616 A    
O2    C1    1.294521 A    
C13   C14   1.397211 A    
C23   C27   1.404488 A    
C21   H5    1.077181 S    
C45   C46   1.513855 S    
C48   H23   1.103579 S    
O4    C2    1.300318 A    
C28   C50   1.489696 S    
O15   C49   1.411023 S    
C5    C13   1.405156 A    
C38   H9    1.077188 S    
Cu2   O6    1.955271 S    
C10   C11   1.398161 A    
C42   H14   1.081966 S    
O14   C48   1.407750 S    
C28   C32   1.415871 A    
