data_mof_unit_29801.cif
_audit_creation_date              2012-12-10T17:20:22-0500
_audit_creation_method            fapswitch 2.2
_symmetry_space_group_name_H-M    P1
_symmetry_Int_Tables_number       1
_space_group_crystal_system       triclinic
_cell_length_a                    11.704517
_cell_length_b                    10.872079
_cell_length_c                    9.647741
_cell_angle_alpha                 90.662002
_cell_angle_beta                  90.182822
_cell_angle_gamma                 94.589172
_cell_volume                      1223.6704255

loop_
_atom_site_label
_atom_site_type_symbol
_atom_type_description
_atom_site_fract_x
_atom_site_fract_y
_atom_site_fract_z
_atom_type_partial_charge
C1    C     C_R   0.509732 0.263635 0.499937 0.806866
C2    C     C_R   0.561703 0.069883 0.880369 -0.128750
C3    C     C_R   0.504221 0.953466 0.887434 -0.138614
C4    C     C_R   0.472493 0.889090 0.765708 -0.101742
C5    C     C_R   0.498635 0.940685 0.633903 0.130508
C6    C     C_R   0.533395 0.067665 0.629217 0.035061
C7    C     C_R   0.522991 0.130320 0.501825 -0.232242
C8    C     C_R   0.510465 0.061782 0.377699 0.602291
C9    C     C_R   0.499665 0.934468 0.380640 -0.235568
C10   C     C_R   0.492392 0.872055 0.506842 -0.201539
C11   C     C_R   0.651445 0.666410 0.151570 -0.216591
C12   C     C_R   0.284215 0.499298 0.499818 0.804414
C13   C     C_R   0.722520 0.755584 0.088417 0.416938
C14   C     C_R   0.724841 0.762927 0.946005 -0.214328
C15   C     C_R   0.655992 0.676350 0.866511 0.560298
C16   C     C_R   0.576268 0.584333 0.928126 0.018414
C17   C     C_R   0.575545 0.582133 0.077375 0.048064
C18   C     C_R   0.423677 0.425492 0.072598 0.063773
C19   C     C_R   0.424634 0.424458 0.924426 0.030172
C20   C     C_R   0.494742 0.737311 0.501698 0.878063
C21   C     C_R   0.715774 0.500245 0.500149 0.870179
C22   C     C_1   0.162440 0.499447 0.499569 -0.086816
C23   C     C_1   0.059924 0.499688 0.499789 0.057009
C24   C     C_1   0.940063 0.500006 0.500215 0.047904
C25   C     C_1   0.837546 0.500187 0.500407 -0.113067
C26   C     C_R   0.576404 0.126990 0.752507 -0.127062
Cu1   Cu    Cu3+1 0.499990 0.499990 0.640660 1.001869
Cu2   Cu    Cu3+1 0.500010 0.500010 0.359340 0.988821
H1    H     H_    0.623430 0.216658 0.751548 0.164674
H2    H     H_    0.592061 0.117499 0.974207 0.193870
H3    H     H_    0.486711 0.911539 0.987194 0.152882
H4    H     H_    0.424232 0.801262 0.778064 0.155371
H5    H     H_    0.495472 0.884763 0.282522 0.187077
H6    H     H_    0.658934 0.669967 0.260626 0.250004
N1    N     N_R   0.501070 0.501210 0.147910 -0.202623
N2    N     N_R   0.501110 0.501290 0.852040 -0.215186
O1    O     O_R   0.499990 0.319640 0.618810 -0.635391
O2    O     O_R   0.500000 0.319660 0.381240 -0.545650
O3    O     O_R   0.337190 0.500000 0.618790 -0.559983
O4    O     O_R   0.337200 0.500030 0.381210 -0.568321
O5    O     O_R   0.500000 0.680340 0.618760 -0.529284
O6    O     O_R   0.500010 0.680360 0.381190 -0.615212
O7    O     O_R   0.662800 0.499970 0.618790 -0.511067
O8    O     O_R   0.662810 0.500000 0.381210 -0.601402
F1    F     F_    0.510619 0.116935 0.252222 -0.696676
C27   C     C_2   0.801513 0.862704 0.882212 0.519657
H7    H     H_    0.861143 0.919821 0.946617 0.120595
O9    O     O_2   0.798260 0.884487 0.758446 -0.477374
F2    F     F_    0.674433 0.687085 0.731043 -0.600499
C28   C     C_2   0.342314 0.338368 0.848618 0.467835
H8    H     H_    0.369361 0.252965 0.805886 0.060614
O10   O     O_2   0.242011 0.360345 0.838436 -0.496070
C29   C     C_2   0.335996 0.345579 0.145463 0.432709
H9    H     H_    0.359648 0.268510 0.205712 0.132594
O11   O     O_2   0.234899 0.364627 0.136176 -0.502633
F3    F     F_    0.789536 0.835941 0.168617 -0.644838

loop_
_geom_bond_atom_site_label_1
_geom_bond_atom_site_label_2
_ccdc_geom_bond_type
C12   O4    A    
C20   O6    A    
C23   C24   S    
C6    C7    A    
C21   O7    A    
Cu1   O7    S    
Cu1   N2    S    
C21   O8    A    
C18   N1    A    
Cu1   O5    S    
C28   O10   D    
C14   C15   A    
C1    O1    A    
C2    H2    S    
C13   F3    S    
C12   O3    A    
C15   F2    S    
C28   H8    S    
C5    C10   A    
C2    C26   A    
C6    C26   A    
C29   H9    S    
C16   N2    A    
C3    H3    S    
C9    H5    S    
C11   C13   A    
C19   C28   S    
C4    H4    S    
C1    O2    A    
Cu1   O1    S    
C9    C10   A    
Cu2   O6    S    
C20   O5    A    
C2    C3    A    
C19   N2    A    
C29   O11   D    
C5    C6    A    
C13   C14   A    
C27   O9    D    
C16   C17   A    
C8    F1    S    
Cu2   O4    S    
C15   C16   A    
C12   C22   S    
C7    C8    A    
C24   C25   T    
C26   H1    S    
C14   C27   S    
C18   C19   A    
C27   H7    S    
C10   C20   S    
Cu1   Cu2   S    
C21   C25   S    
C22   C23   T    
C4    C5    A    
C17   N1    A    
C18   C29   S    
Cu2   O2    S    
C1    C7    S    
Cu2   O8    S    
C11   H6    S    
C11   C17   A    
C3    C4    A    
Cu2   N1    S    
Cu1   O3    S    
C8    C9    A    
