data_mof_unit_50840.cif
_audit_creation_date              2012-12-11T17:05:24-0500
_audit_creation_method            fapswitch 2.2
_symmetry_space_group_name_H-M    P1
_symmetry_Int_Tables_number       1
_space_group_crystal_system       triclinic
_cell_length_a                    6.975417
_cell_length_b                    14.471081
_cell_length_c                    16.067633
_cell_angle_alpha                 90.295286
_cell_angle_beta                  90.061991
_cell_angle_gamma                 89.970946
_cell_volume                      1621.87349646

loop_
_atom_site_label
_atom_site_type_symbol
_atom_type_description
_atom_site_fract_x
_atom_site_fract_y
_atom_site_fract_z
_atom_type_partial_charge
O1    O     O_R   0.494380 0.415640 0.412830 -0.537078
O2    O     O_R   0.823960 0.405540 0.586560 -0.543243
O3    O     O_R   0.994270 0.584360 0.587170 -0.542789
C1    C     C_R   0.655323 0.383556 0.615203 0.693299
O4    O     O_R   0.824090 0.404620 0.413450 -0.543265
O5    O     O_R   0.994400 0.583430 0.412820 -0.539372
C2    C     C_R   0.655354 0.382627 0.384453 0.693114
O6    O     O_R   0.494250 0.416570 0.587180 -0.536302
O7    O     O_3   0.660800 0.558670 0.500000 -0.372508
V1    V     V_3+5 0.935650 0.489120 0.500000 1.377491
O8    O     O_R   0.324110 0.594460 0.413440 -0.538953
C3    C     C_R   0.155067 0.616351 0.384711 0.711071
O9    O     O_R   0.323980 0.595380 0.586550 -0.542904
C4    C     C_R   0.155164 0.618479 0.614670 0.670099
V2    V     V_3+5 0.435660 0.510880 0.500000 1.384329
O10   O     O_3   0.160640 0.441330 0.500000 -0.370521
C5    C     C_3   0.062999 0.643941 0.764439 -0.357368
H1    H     H_    0.918535 0.614338 0.751864 0.135373
H2    H     H_    0.156639 0.585533 0.783779 0.129619
C6    C     C_3   0.048453 0.715383 0.836736 -0.327340
H3    H     H_    0.131424 0.690485 0.891299 0.148905
H4    H     H_    0.896813 0.721738 0.856338 0.132767
H5    H     H_    0.859916 0.742067 0.659786 0.103372
H6    H     H_    0.849993 0.855259 0.754500 0.128798
C7    C     C_3   0.006855 0.772296 0.662297 -0.085814
C8    C     C_3   0.346984 0.726727 0.708356 -0.323681
C9    C     C_3   0.144570 0.689787 0.684501 0.084389
H7    H     H_    0.422321 0.755544 0.653586 0.134582
C10   C     C_3   0.123252 0.811495 0.809621 0.102723
C11   C     C_3   0.001429 0.844806 0.734642 -0.352360
C12   C     C_3   0.333635 0.799611 0.778702 -0.312438
H8    H     H_    0.427245 0.777901 0.831070 0.147449
H9    H     H_    0.390024 0.866827 0.756051 0.125662
H10   H     H_    0.053860 0.913656 0.714362 0.123910
C13   C     C_R   0.288277 0.798495 0.225253 0.061284
C14   C     C_R   0.120498 0.810142 0.179427 -0.111611
C15   C     C_R   0.965560 0.753242 0.200248 -0.188851
H11   H     H_    0.843439 0.751130 0.160191 0.135941
C16   C     C_R   0.975710 0.691725 0.267736 -0.206776
H12   H     H_    0.858147 0.644709 0.278163 0.140689
C17   C     C_R   0.142178 0.685389 0.317076 -0.097506
C18   C     C_R   0.297425 0.741910 0.295757 0.100300
C19   C     C_3   0.494777 0.710328 0.274814 -0.451104
C20   C     C_3   0.475495 0.763003 0.193593 -0.168942
H13   H     H_    0.508027 0.634027 0.268503 0.165830
H14   H     H_    0.599895 0.741699 0.318407 0.162313
H15   H     H_    0.576879 0.821669 0.187259 0.124849
C21   C     C_R   0.494209 0.316993 0.741500 0.093424
C22   C     C_R   0.647810 0.317585 0.685357 -0.111259
C23   C     C_R   0.798863 0.255063 0.700013 -0.178174
C24   C     C_R   0.787407 0.189679 0.764472 -0.178733
H16   H     H_    0.901834 0.139808 0.771190 0.125885
C25   C     C_R   0.624279 0.184679 0.816017 -0.111168
C26   C     C_R   0.482506 0.252096 0.805060 0.102120
C27   C     C_3   0.271749 0.240986 0.793620 -0.407714
C28   C     C_3   0.284395 0.312202 0.724670 -0.398261
H17   H     H_    0.189371 0.265570 0.848628 0.174491
H18   H     H_    0.233709 0.170741 0.770740 0.164975
H19   H     H_    0.210228 0.378136 0.740024 0.162883
H20   H     H_    0.252763 0.283504 0.661843 0.172328
C29   C     C_R   0.494323 0.317056 0.256736 0.101738
C30   C     C_R   0.647583 0.316968 0.313254 -0.112350
C31   C     C_R   0.798713 0.254657 0.297496 -0.178779
H21   H     H_    0.920941 0.252375 0.338798 0.132443
C32   C     C_R   0.787471 0.190060 0.231681 -0.177609
H22   H     H_    0.901928 0.140281 0.224220 0.126630
C33   C     C_R   0.624512 0.185588 0.179727 -0.112397
C34   C     C_R   0.482783 0.252922 0.191868 0.104186
C35   C     C_3   0.271892 0.241935 0.202582 -0.408284
C36   C     C_3   0.284354 0.312292 0.272942 -0.400362
H23   H     H_    0.233354 0.171462 0.224013 0.165623
H24   H     H_    0.190066 0.267302 0.147861 0.174660
H25   H     H_    0.210652 0.378497 0.258671 0.165171
O11   O     O_R   0.771490 0.080820 0.910070 -0.537909
O12   O     O_R   0.441590 0.092730 0.083780 -0.538522
O13   O     O_R   0.271350 0.913900 0.084390 -0.535112
C37   C     C_R   0.610614 0.114865 0.112718 0.698099
O14   O     O_R   0.441780 0.091820 0.910670 -0.539169
O15   O     O_R   0.271540 0.912980 0.910040 -0.539324
C38   C     C_R   0.610697 0.113806 0.882008 0.696124
O16   O     O_R   0.771300 0.081740 0.084420 -0.537602
O17   O     O_3   0.604960 0.938700 0.997240 -0.380073
V3    V     V_3+5 0.330090 0.008230 0.997220 1.389238
O18   O     O_R   0.941820 0.901930 0.910640 -0.546738
C39   C     C_R   0.111030 0.880338 0.881316 0.663358
O19   O     O_R   0.941630 0.902840 0.083750 -0.551087
C40   C     C_R   0.110730 0.878563 0.110742 0.695735
V4    V     V_3+5 0.830090 0.986410 0.997190 1.365039
O20   O     O_3   0.105080 0.055990 0.997200 -0.364903
C41   C     C_R   0.043003 0.816884 0.577723 0.080516
C42   C     C_R   0.909415 0.803703 0.512860 -0.139849
C43   C     C_R   0.933828 0.847505 0.436268 -0.112773
C44   C     C_R   0.092832 0.903865 0.422714 -0.092854
C45   C     C_R   0.226807 0.917448 0.486113 -0.136780
C46   C     C_R   0.201498 0.875162 0.563358 -0.129092
H26   H     H_    0.784826 0.760201 0.521627 0.110154
H27   H     H_    0.829449 0.837763 0.387250 0.111196
H28   H     H_    0.111765 0.937277 0.363163 0.100680
H29   H     H_    0.349105 0.961958 0.475841 0.108811
H30   H     H_    0.303178 0.890638 0.612109 0.102894
C47   C     C_R   0.457198 0.699939 0.116924 0.136406
C48   C     C_R   0.560880 0.720053 0.044366 -0.133393
C49   C     C_R   0.543852 0.664060 0.973547 -0.137585
C50   C     C_R   0.424293 0.586894 0.974072 -0.112837
C51   C     C_R   0.321046 0.565406 0.045582 -0.142205
C52   C     C_R   0.337145 0.621157 0.116474 -0.113438
H31   H     H_    0.656292 0.778556 0.042528 0.134107
H32   H     H_    0.623011 0.680375 0.917991 0.093608
H33   H     H_    0.411438 0.543910 0.919006 0.104395
H34   H     H_    0.228366 0.505434 0.046189 0.111855
H35   H     H_    0.255785 0.602011 0.170766 0.119930
H36   H     H_    0.921089 0.253216 0.658790 0.133158
H37   H     H_    0.252132 0.282876 0.335140 0.171034
H38   H     H_    0.437934 0.668392 0.730239 0.136008

loop_
_geom_bond_atom_site_label_1
_geom_bond_atom_site_label_2
_ccdc_geom_bond_type
C29   C36   S    
C51   H34   S    
C31   C32   A    
C44   C45   A    
C17   C18   A    
C13   C14   A    
C33   C37   S    
C1    O6    A    
C41   C46   A    
C16   C17   A    
C25   C26   A    
C32   H22   S    
C21   C26   A    
C7    C41   S    
C30   C31   A    
C14   C15   A    
C15   H11   S    
C35   C36   S    
O5    C3    A    
C50   H33   S    
O19   V4    S    
V2    O10   S    
C47   C52   A    
C5    C6    S    
C35   H23   S    
C13   C18   A    
C48   C49   A    
C42   H26   S    
O8    V2    S    
O14   V3    S    
C34   C35   S    
C32   C33   A    
C12   H9    S    
C49   H32   S    
O1    V2    S    
C4    C9    S    
O7    V1    S    
C10   C39   S    
C20   H15   S    
C6    C10   S    
C8    C12   S    
C14   C40   S    
O11   C38   A    
O9    C4    A    
C45   C46   A    
C36   H25   S    
O13   V3    S    
C50   C51   A    
C43   H27   S    
C23   C24   A    
C52   H35   S    
C36   H37   S    
V3    O20   S    
C11   H10   S    
C24   H16   S    
C5    C9    S    
C47   C48   A    
C25   C38   S    
O18   C39   A    
C42   C43   A    
O4    C2    A    
C46   H30   S    
C33   C34   A    
C24   C25   A    
C35   H24   S    
O2    C1    A    
C19   C20   S    
C8    H38   S    
C2    C30   S    
C10   C11   S    
O12   C37   A    
C12   H8    S    
C37   O16   A    
C20   C47   S    
C27   C28   S    
C23   H36   S    
C5    H1    S    
C8    C9    S    
C48   H31   S    
V4    O20   S    
C13   C20   S    
C19   H13   S    
O13   C40   A    
O3    C4    A    
C21   C22   A    
C6    H4    S    
C22   C23   A    
O6    V2    S    
C27   H17   S    
C18   C19   S    
O2    V1    S    
O15   C39   A    
O19   C40   A    
C3    C17   S    
C7    C11   S    
C21   C28   S    
C26   C27   S    
O1    C2    A    
O18   V4    S    
O5    V1    S    
O8    C3    A    
C7    C9    S    
C51   C52   A    
C8    H7    S    
C28   H19   S    
C1    C22   S    
O9    V2    S    
O7    V2    S    
O4    V1    S    
C15   C16   A    
O3    V1    S    
V1    O10   S    
O15   V3    S    
C29   C34   A    
O12   V3    S    
C41   C42   A    
C45   H29   S    
O17   V4    S    
C43   C44   A    
C5    H2    S    
O14   C38   A    
H5    C7    S    
C29   C30   A    
C19   H14   S    
H6    C11   S    
O16   V4    S    
C31   H21   S    
C16   H12   S    
C28   H20   S    
C6    H3    S    
C10   C12   S    
O17   V3    S    
C27   H18   S    
C49   C50   A    
O11   V4    S    
C44   H28   S    
