data_mof_unit_13932.cif
_audit_creation_date              2012-12-10T18:32:54-0500
_audit_creation_method            fapswitch 2.2
_symmetry_space_group_name_H-M    P1
_symmetry_Int_Tables_number       1
_space_group_crystal_system       triclinic
_cell_length_a                    15.021029
_cell_length_b                    15.216148
_cell_length_c                    15.74722
_cell_angle_alpha                 90.16228
_cell_angle_beta                  104.847267
_cell_angle_gamma                 82.225526
_cell_volume                      3445.16661449

loop_
_atom_site_label
_atom_site_type_symbol
_atom_type_description
_atom_site_fract_x
_atom_site_fract_y
_atom_site_fract_z
_atom_type_partial_charge
C1    C     C_R   0.442017 0.663324 0.489702 0.905446
C2    C     C_R   0.594004 0.242389 0.539535 -0.406309
C3    C     C_R   0.276466 0.875848 0.485147 0.533902
C4    C     C_R   0.501305 0.500332 0.661684 0.880323
C5    C     C_R   0.311119 0.786652 0.476190 -0.412026
C6    C     C_R   0.469421 0.818147 0.528676 0.514514
C7    C     C_R   0.435919 0.904405 0.549377 -0.176631
C8    C     C_R   0.339496 0.936426 0.519924 -0.093216
C9    C     C_R   0.498437 0.962418 0.589775 -0.030220
C10   C     C_R   0.472642 0.053088 0.571874 -0.048257
C11   C     C_R   0.376209 0.087166 0.550270 0.364449
C12   C     C_3   0.406395 0.544643 0.026809 -0.532554
C13   C     C_R   0.309311 0.028132 0.525774 0.441791
C14   C     C_R   0.586196 0.932696 0.646358 -0.215872
C15   C     C_R   0.654966 0.988911 0.668385 0.567504
C16   C     C_R   0.558476 0.336550 0.513773 0.935029
C17   C     C_R   0.635750 0.075645 0.629664 -0.210131
C18   C     C_R   0.544790 0.105264 0.576450 -0.168674
C19   C     C_R   0.705389 0.131925 0.639094 0.460978
C20   C     C_R   0.684508 0.215180 0.593944 0.347824
C21   C     C_R   0.529888 0.181843 0.522513 0.441022
C22   C     C_R   0.853421 0.610159 0.651427 -0.380231
C23   C     C_3   0.503088 0.501447 0.083794 0.016005
C24   C     C_R   0.759668 0.599838 0.621961 0.666440
C25   C     C_R   0.790329 0.516905 0.501945 -0.095431
C26   C     C_R   0.887337 0.517942 0.532552 -0.032294
C27   C     C_R   0.918014 0.566685 0.609532 0.045709
C28   C     C_R   0.498831 0.499528 0.338328 0.865548
C29   C     C_R   0.954449 0.473954 0.490212 -0.009661
C30   C     C_R   0.048389 0.491077 0.520173 -0.034308
C31   C     C_R   0.076603 0.531380 0.601375 -0.295282
C32   C     C_R   0.012751 0.570439 0.645317 0.464668
C33   C     C_R   0.933661 0.410918 0.422772 0.307927
C34   C     C_3   0.516495 0.404861 0.050863 -0.593050
C35   C     C_R   0.004693 0.368950 0.386764 0.471428
C36   C     C_R   0.093017 0.396087 0.408815 -0.107062
C37   C     C_R   0.114304 0.461148 0.472242 -0.161308
C38   C     C_R   0.161130 0.357296 0.368767 -0.339734
C39   C     C_R   0.249284 0.383660 0.390756 0.631526
C40   C     C_3   0.407731 0.547386 0.928596 0.147606
C41   C     C_R   0.202646 0.491691 0.486020 0.475461
C42   C     C_3   0.589282 0.553601 0.974550 0.720183
C43   C     C_3   0.580082 0.560475 0.072923 0.910528
C44   C     C_1   0.496734 0.498833 0.248971 -0.188685
C45   C     C_3   0.519730 0.405437 0.953336 0.390965
C46   C     C_3   0.506040 0.504406 0.918523 -0.078021
C47   C     C_3   0.474066 0.159008 0.377559 -0.230968
C48   C     C_3   0.790842 0.268354 0.535473 -0.209496
C49   C     C_3   0.783721 0.881495 0.697935 -0.285039
C50   C     C_3   0.584455 0.819825 0.459121 -0.289662
C51   C     C_3   0.859463 0.076535 0.658917 -0.163085
C52   C     C_3   0.292990 0.354036 0.262991 -0.316086
C53   C     C_3   0.000351 0.221155 0.371532 -0.298132
C54   C     C_3   0.718453 0.624052 0.752534 -0.275232
C55   C     C_3   0.522965 0.697826 0.899158 -0.395094
C56   C     C_1   0.498328 0.499313 0.174077 0.038795
C57   C     C_3   0.608706 0.706523 0.120686 -0.171290
C58   C     C_3   0.706128 0.451667 0.160764 -0.252026
C59   C     C_3   0.597705 0.266706 0.932543 -0.289185
C60   C     C_1   0.505537 0.503490 0.826737 0.055107
C61   C     C_1   0.504057 0.502010 0.751127 -0.155400
C62   C     C_R   0.406910 0.757722 0.496375 -0.222126
H1    H     H_    0.386961 0.612912 0.047724 0.220795
H2    H     H_    0.147118 0.305360 0.322134 0.214123
H3    H     H_    0.460024 0.373786 0.914296 0.106412
H4    H     H_    0.456201 0.371677 0.055841 0.162207
H5    H     H_    0.325590 0.453747 0.905075 0.339426
H6    H     H_    0.204271 0.122963 0.515009 0.361248
H7    H     H_    0.495841 0.086083 0.388027 0.124617
H8    H     H_    0.529011 0.191054 0.358894 0.123348
H9    H     H_    0.411024 0.169357 0.321651 0.197822
H10   H     H_    0.853323 0.302759 0.552463 0.214034
H11   H     H_    0.741374 0.302915 0.476656 0.196483
H12   H     H_    0.351063 0.507089 0.036976 0.202089
H13   H     H_    0.813115 0.199514 0.517877 0.097072
H14   H     H_    0.859007 0.873328 0.731530 0.192895
H15   H     H_    0.777176 0.884122 0.625818 0.146285
H16   H     H_    0.756124 0.822384 0.716533 0.184939
H17   H     H_    0.148426 0.853657 0.437244 0.319063
H18   H     H_    0.571010 0.893206 0.448445 0.145434
H19   H     H_    0.544758 0.787111 0.400979 0.151881
H20   H     H_    0.659541 0.798614 0.465402 0.182487
H21   H     H_    0.395106 0.201874 0.601375 0.346337
H22   H     H_    0.899951 0.129645 0.649092 0.171070
H23   H     H_    0.576311 0.361332 0.092585 0.198041
H24   H     H_    0.832391 0.044291 0.595513 0.092319
H25   H     H_    0.908848 0.025323 0.703473 0.187406
H26   H     H_    0.110333 0.609687 0.739436 0.353475
H27   H     H_    0.165157 0.612318 0.513124 0.315828
H28   H     H_    0.356497 0.340729 0.238722 0.181736
H29   H     H_    0.259758 0.422903 0.240497 0.153055
H30   H     H_    0.246621 0.305072 0.233030 0.155611
H31   H     H_    0.073888 0.204469 0.410152 0.190451
H32   H     H_    0.985263 0.168744 0.322909 0.207234
H33   H     H_    0.952901 0.219985 0.415316 0.164964
H34   H     H_    0.262807 0.740074 0.451437 0.196995
H35   H     H_    0.655153 0.638315 0.776942 0.218514
H36   H     H_    0.768013 0.668520 0.786829 0.154136
H37   H     H_    0.747370 0.553129 0.769948 0.167415
H38   H     H_    0.684635 0.501274 0.917479 0.360180
H39   H     H_    0.838214 0.352821 0.342041 0.362175
H40   H     H_    0.478308 0.719238 0.943480 0.204569
H41   H     H_    0.484319 0.673615 0.835914 0.167957
H42   H     H_    0.547844 0.759009 0.881732 0.207284
H43   H     H_    0.667089 0.699596 0.088664 0.220197
H44   H     H_    0.635692 0.694004 0.192808 0.181171
H45   H     H_    0.391574 0.617245 0.906119 0.174441
H46   H     H_    0.574127 0.776204 0.109597 0.144450
H47   H     H_    0.708613 0.409030 0.104313 0.234880
H48   H     H_    0.670717 0.424262 0.206216 0.145449
H49   H     H_    0.779549 0.450192 0.198727 0.204908
H50   H     H_    0.550648 0.256213 0.867348 0.160667
H51   H     H_    0.573520 0.237726 0.986020 0.143237
H52   H     H_    0.667605 0.230896 0.934335 0.214900
H53   H     H_    0.600459 0.866115 0.674973 0.198624
H54   H     H_    0.875639 0.650912 0.707222 0.206574
H55   H     H_    0.757625 0.489877 0.441055 0.232451
H56   H     H_    0.149519 0.530394 0.633347 0.207809
N1    N     N_R   0.731690 0.552720 0.548990 -0.147863
N2    N     N_R   0.268300 0.447240 0.450950 -0.150914
O1    O     O_R   0.383120 0.605620 0.475300 -0.584238
O2    O     O_3   0.214979 0.058556 0.505513 -0.702864
O3    O     O_3   0.451834 0.197778 0.452253 -0.502926
O4    O     O_3   0.751956 0.270964 0.608404 -0.555077
O5    O     O_3   0.740214 0.959931 0.726974 -0.565369
O6    O     O_3   0.181811 0.904254 0.460023 -0.695836
O7    O     O_3   0.563687 0.793906 0.537068 -0.569897
O8    O     O_3   0.345428 0.175742 0.559129 -0.744112
O9    O     O_3   0.790040 0.110864 0.700694 -0.525567
O10   O     O_3   0.041716 0.612246 0.723806 -0.772710
O11   O     O_3   0.222915 0.569058 0.527470 -0.746115
O12   O     O_R   0.531890 0.639510 0.506740 -0.530381
O13   O     O_3   0.319436 0.343488 0.355526 -0.526164
O14   O     O_3   0.985889 0.303607 0.325824 -0.632190
O15   O     O_3   0.692974 0.641776 0.660831 -0.569182
O16   O     O_3   0.673521 0.499216 0.976945 -0.716739
O17   O     O_3   0.847054 0.383583 0.398437 -0.855517
O18   O     O_3   0.601904 0.637541 0.940543 -0.621070
O19   O     O_3   0.541976 0.649706 0.085458 -0.681484
O20   O     O_3   0.669596 0.541006 0.136243 -0.615528
O21   O     O_3   0.604729 0.357789 0.944041 -0.563781
O22   O     O_R   0.425580 0.483050 0.607130 -0.573549
O23   O     O_R   0.574360 0.516930 0.638570 -0.580383
O24   O     O_R   0.468110 0.360490 0.493260 -0.520470
O25   O     O_R   0.616880 0.394380 0.524700 -0.591247
O26   O     O_R   0.425640 0.483070 0.361430 -0.593384
O27   O     O_R   0.574420 0.516950 0.392870 -0.631149
O28   O     O_3   0.334842 0.507261 0.874449 -0.743047
Zn1   Zn    Zn3+2 0.400660 0.477370 0.479010 1.045400
Zn2   Zn    Zn3+2 0.599340 0.522630 0.520990 1.015283

loop_
_geom_bond_atom_site_label_1
_geom_bond_atom_site_label_2
_ccdc_geom_bond_type
C19   O9    S    
C57   H43   S    
C21   O3    S    
C8    C13   A    
C12   H12   S    
C53   H33   S    
C58   H47   S    
O12   Zn2   S    
C52   H28   S    
C35   C36   A    
H26   O10   S    
H21   O8    S    
C1    O12   A    
C1    C62   S    
C34   H4    S    
C4    O23   A    
C32   O10   S    
C51   O9    S    
C3    O6    S    
C23   C56   S    
C47   H8    S    
C45   C46   S    
C40   C46   S    
C12   C23   S    
N2    Zn1   S    
C29   C30   A    
C55   O18   S    
O22   Zn1   S    
C36   C37   A    
C16   O24   A    
C6    O7    S    
C49   H15   S    
C4    O22   A    
C30   C31   A    
C42   O18   S    
C14   H53   S    
C18   C21   A    
C55   H41   S    
C23   C43   S    
C49   H16   S    
C57   O19   S    
C42   O16   S    
C42   C46   S    
C47   H7    S    
C17   C19   A    
O23   Zn2   S    
C19   C20   A    
C29   C33   A    
C33   O17   S    
C24   N1    A    
C54   H35   S    
C43   O19   S    
C2    C16   S    
C9    C10   A    
O25   Zn2   S    
N1    Zn2   S    
C22   H54   S    
C57   H44   S    
C27   C32   A    
C45   O21   S    
C52   O13   S    
C48   H13   S    
C48   H10   S    
C25   N1    A    
C51   H24   S    
C59   H50   S    
C38   H2    S    
C40   O28   S    
C2    C20   A    
C58   H49   S    
C7    C8    A    
O27   Zn2   S    
C3    C8    A    
C51   H25   S    
C41   O11   S    
C12   H1    S    
H39   O17   S    
C25   C26   A    
C53   H31   S    
C4    C61   S    
C28   C44   S    
C30   C37   A    
C50   H18   S    
C60   C61   T    
C34   H23   S    
C12   C40   S    
C9    C14   A    
C31   H56   S    
O24   Zn1   S    
O26   Zn1   S    
C44   C56   T    
C47   O3    S    
C31   C32   A    
C55   H40   S    
C35   O14   S    
C59   H51   S    
C23   C34   S    
C2    C21   A    
C17   C18   A    
C26   C27   A    
C49   H14   S    
C43   O20   S    
C16   O25   A    
C34   C45   S    
C47   H9    S    
C40   H45   S    
C24   O15   S    
H17   O6    S    
C22   C27   A    
C45   H3    S    
C22   C24   A    
C54   H37   S    
C52   H30   S    
C42   C43   S    
H6    O2    S    
C5    H34   S    
C50   H20   S    
C39   O13   S    
C58   O20   S    
C7    C9    A    
C28   O27   A    
C46   C60   S    
C53   H32   S    
C58   H48   S    
C48   H11   S    
C53   O14   S    
C3    C5    A    
C25   H55   S    
C48   O4    S    
C15   C17   A    
C6    C7    A    
C49   O5    S    
C28   O26   A    
H27   O11   S    
C6    C62   A    
C36   C38   A    
C11   O8    S    
C13   O2    S    
C11   C13   A    
C38   C39   A    
C10   C18   A    
C59   H52   S    
C54   O15   S    
C55   H42   S    
C33   C35   A    
O1    Zn1   S    
C5    C62   A    
C41   N2    A    
C37   C41   A    
C1    O1    A    
C20   O4    S    
C10   C11   A    
H38   O16   S    
C57   H46   S    
C59   O21   S    
C26   C29   A    
C15   O5    S    
H5    O28   S    
C14   C15   A    
C54   H36   S    
C52   H29   S    
C50   O7    S    
C51   H22   S    
C39   N2    A    
C50   H19   S    
