data_mof_unit_53812.cif
_audit_creation_date              2012-12-10T17:03:54-0500
_audit_creation_method            fapswitch 2.2
_symmetry_space_group_name_H-M    P1
_symmetry_Int_Tables_number       1
_space_group_crystal_system       triclinic
_cell_length_a                    9.819099
_cell_length_b                    10.98605
_cell_length_c                    15.839373
_cell_angle_alpha                 94.499835
_cell_angle_beta                  79.284104
_cell_angle_gamma                 110.450044
_cell_volume                      1572.87136817

loop_
_atom_site_label
_atom_site_type_symbol
_atom_type_description
_atom_site_fract_x
_atom_site_fract_y
_atom_site_fract_z
_atom_type_partial_charge
C1    C     C_R   0.556512 0.745484 0.502750 0.900413
C2    C     C_R   0.447199 0.254920 0.490787 0.897386
C3    C     C_R   0.324539 0.459843 0.077601 -0.283253
C4    C     C_R   0.676094 0.543086 0.922612 -0.284257
C5    C     C_R   0.217740 0.425971 0.024151 0.484493
C6    C     C_R   0.782822 0.576958 0.976122 0.485936
C7    C     C_2   0.587603 0.884848 0.497451 -0.370296
C8    C     C_2   0.424803 0.116433 0.480168 -0.371634
C9    C     C_2   0.509725 0.931890 0.455389 0.325595
C10   C     C_2   0.539258 0.073104 0.458160 0.322205
C11   C     C_2   0.926700 0.496309 0.489027 0.410723
C12   C     C_2   0.079553 0.513638 0.505961 0.399965
C13   C     C_R   0.411369 0.486464 0.662703 0.813727
C14   C     C_R   0.588662 0.513674 0.337308 0.826168
C15   C     C_R   0.357199 0.472934 0.755722 -0.114323
C16   C     C_R   0.642984 0.527852 0.244353 -0.111870
C17   C     C_R   0.158528 0.400639 0.876517 0.465433
C18   C     C_R   0.841799 0.601455 0.123787 0.463547
C19   C     C_R   0.207395 0.418922 0.788416 -0.261717
C20   C     C_R   0.792798 0.582364 0.211815 -0.254881
C21   C     C_R   0.459051 0.508576 0.811619 -0.196610
C22   C     C_R   0.541261 0.492618 0.188397 -0.191108
C23   C     C_R   0.416284 0.483888 0.900200 -0.008790
C24   C     C_R   0.584167 0.518195 0.099939 -0.009292
C25   C     C_R   0.262283 0.435253 0.934238 0.018226
C26   C     C_R   0.738168 0.567132 0.066004 0.018187
C27   C     C_R   0.523556 0.508156 0.955192 0.049613
C28   C     C_R   0.476988 0.494334 0.044959 0.049426
Cu1   Cu    Cu3+1 0.362980 0.479380 0.485080 1.021056
Cu2   Cu    Cu3+1 0.637020 0.520620 0.514920 1.018824
H1    H     H_    0.428302 0.442293 0.215919 0.162408
H2    H     H_    0.571995 0.558433 0.783897 0.162595
H3    H     H_    0.872469 0.611505 0.255100 0.191189
H4    H     H_    0.127615 0.389568 0.745199 0.187573
H5    H     H_    0.283846 0.460795 0.145432 0.138250
H6    H     H_    0.717007 0.542623 0.854803 0.135325
H7    H     H_    0.312260 0.048354 0.490799 0.128073
H8    H     H_    0.675727 0.950429 0.528774 0.124515
H9    H     H_    0.110483 0.375798 0.420918 0.161861
H10   H     H_    0.881346 0.612926 0.586615 0.157965
N1    N     N_2   0.842890 0.551600 0.537350 -0.291255
N2    N     N_2   0.157110 0.448400 0.462650 -0.289217
O1    O     O_R   0.426810 0.668300 0.492040 -0.451433
O2    O     O_R   0.573190 0.331700 0.507960 -0.469895
O3    O     O_R   0.658240 0.703130 0.517240 -0.602390
O4    O     O_R   0.341760 0.296870 0.482760 -0.603387
O5    O     O_R   0.319390 0.472820 0.610170 -0.547580
O6    O     O_R   0.680610 0.527180 0.389830 -0.532621
O7    O     O_R   0.550820 0.507640 0.635370 -0.595665
O8    O     O_R   0.449180 0.492360 0.364630 -0.587406
O9    O     O_3   0.069820 0.388265 0.059819 -0.627925
H11   H     H_    0.057413 0.385673 0.123297 0.328956
O10   O     O_3   0.930793 0.615048 0.940531 -0.628927
H12   H     H_    0.943299 0.617958 0.877064 0.327034
Cl1   Cl    Cl    0.965871 0.327431 0.907588 -0.522302
Cl2   Cl    Cl    0.034405 0.675322 0.092913 -0.520415
O11   O     O_3   0.682333 0.159352 0.440419 -0.663049
H13   H     H_    0.748812 0.109710 0.417843 0.318454
O12   O     O_3   0.402124 0.849285 0.411819 -0.683492
H14   H     H_    0.367379 0.902460 0.378902 0.323269
O13   O     O_3   0.140955 0.600149 0.567777 -0.669830
H15   H     H_    0.065764 0.586563 0.620485 0.283062
O14   O     O_3   0.873225 0.422465 0.420180 -0.643322
H16   H     H_    0.956420 0.434312 0.371865 0.286688

loop_
_geom_bond_atom_site_label_1
_geom_bond_atom_site_label_2
_ccdc_geom_bond_type
C12   N2    D    
C11   C12   S    
C4    H6    S    
Cu2   N1    S    
C7    H8    S    
Cu1   Cu2   S    
C14   C16   S    
C23   C27   A    
Cu1   N2    S    
C9    C10   S    
C17   Cl1   S    
Cu2   O3    S    
C18   C20   A    
C18   C26   A    
C18   Cl2   S    
Cu1   O4    S    
C16   C20   A    
C17   C25   A    
C4    C27   A    
C13   C15   S    
O12   H14   S    
C1    O3    A    
C14   O8    A    
O10   H12   S    
Cu1   O1    S    
C15   C19   A    
C12   O13   S    
Cu2   O2    S    
O11   H13   S    
C6    C26   A    
Cu1   O5    S    
C13   O7    A    
C20   H3    S    
C22   C24   A    
Cu2   O6    S    
H10   N1    S    
C17   C19   A    
Cu2   O7    S    
C24   C26   A    
C11   N1    D    
H9    N2    S    
C11   O14   S    
Cu1   O8    S    
C23   C25   A    
C21   C23   A    
O13   H15   S    
C21   H2    S    
C5    C25   A    
C8    H7    S    
C6    O10   S    
C3    H5    S    
O14   H16   S    
C24   C28   A    
C15   C21   A    
C10   O11   S    
C4    C6    A    
C22   H1    S    
C2    C8    S    
C27   C28   A    
C7    C9    D    
C14   O6    A    
C3    C28   A    
C16   C22   A    
C2    O4    A    
C3    C5    A    
C1    C7    S    
C13   O5    A    
C1    O1    A    
C8    C10   D    
C5    O9    S    
O9    H11   S    
C2    O2    A    
C9    O12   S    
C19   H4    S    
