data_mof_unit_8136.cif
_audit_creation_date              2012-12-11T14:42:23-0500
_audit_creation_method            fapswitch 2.2
_symmetry_space_group_name_H-M    P1
_symmetry_Int_Tables_number       1
_space_group_crystal_system       triclinic
_cell_length_a                    19.06156
_cell_length_b                    10.948078
_cell_length_c                    18.864498
_cell_angle_alpha                 89.923498
_cell_angle_beta                  90.525987
_cell_angle_gamma                 89.716562
_cell_volume                      3936.56609361

loop_
_atom_site_label
_atom_site_type_symbol
_atom_type_description
_atom_site_fract_x
_atom_site_fract_y
_atom_site_fract_z
_atom_type_partial_charge
C1    C     C_R   0.725485 0.959572 0.855227 0.548603
C2    C     C_R   0.238270 0.433160 0.929741 0.033975
C3    C     C_3   0.901060 0.504304 0.611361 -0.298088
C4    C     C_R   0.261270 0.932106 0.070503 0.035251
C5    C     C_R   0.738690 0.931958 0.929486 0.034877
C6    C     C_R   0.792388 0.326529 0.043372 -0.139439
C7    C     C_R   0.180845 0.397279 0.970641 -0.126865
C8    C     C_R   0.318263 0.892343 0.029985 -0.127021
C9    C     C_R   0.681696 0.893094 0.970039 -0.130544
C10   C     C_R   0.788598 0.312138 0.971096 -0.124333
C11   C     C_R   0.186630 0.390735 0.043142 -0.130479
C12   C     C_R   0.312775 0.886278 0.957486 -0.129838
C13   C     C_R   0.274500 0.959549 0.144738 0.544331
C14   C     C_R   0.687110 0.887173 0.042542 -0.133628
C15   C     C_R   0.743359 0.385972 0.929843 0.034992
C16   C     C_R   0.251281 0.412249 0.076290 0.030597
C17   C     C_R   0.248604 0.911476 0.923881 0.030045
C18   C     C_R   0.751215 0.911613 0.076121 0.031660
C19   C     C_R   0.546230 0.264356 0.523805 -0.192542
C20   C     C_R   0.540535 0.258626 0.451371 -0.194142
C21   C     C_R   0.046233 0.764361 0.523803 -0.192498
C22   C     C_R   0.040537 0.758633 0.451368 -0.194079
C23   C     C_R   0.510779 0.156189 0.420169 -0.009643
C24   C     C_R   0.225353 0.459897 0.855340 0.549382
C25   C     C_R   0.521135 0.169013 0.566011 -0.000513
C26   C     C_R   0.010784 0.656193 0.420165 -0.009569
C27   C     C_R   0.021143 0.669012 0.566008 -0.000647
C28   C     C_R   0.499973 0.047944 0.460464 0.171428
C29   C     C_R   0.496647 0.060326 0.534711 0.143787
C30   C     C_R   0.999984 0.547945 0.460459 0.171498
C31   C     C_R   0.996661 0.560323 0.534705 0.143630
C32   C     C_R   0.787189 0.310998 0.528119 -0.172908
C33   C     C_R   0.188327 0.421745 0.453978 -0.193499
C34   C     C_R   0.287198 0.811017 0.528124 -0.172680
C35   C     C_R   0.772824 0.456449 0.146380 0.544310
C36   C     C_R   0.688326 0.921753 0.453977 -0.193551
C37   C     C_R   0.790528 0.326099 0.455995 -0.165390
C38   C     C_R   0.180031 0.438076 0.525804 -0.188053
C39   C     C_R   0.290536 0.826114 0.456000 -0.165455
C40   C     C_R   0.680029 0.938087 0.525802 -0.188078
C41   C     C_R   0.530156 0.177751 0.850903 0.554985
C42   C     C_R   0.469797 0.177562 0.149065 0.548396
C43   C     C_R   0.029986 0.677820 0.850776 0.555326
C44   C     C_R   0.969442 0.677462 0.148850 0.549337
C45   C     C_R   0.750006 0.415898 0.422637 0.039979
C46   C     C_R   0.704276 0.487244 0.035567 -0.132405
C47   C     C_R   0.238247 0.436522 0.571760 0.037508
C48   C     C_R   0.250011 0.915908 0.422640 0.039681
C49   C     C_R   0.738245 0.936529 0.571759 0.037390
C50   C     C_R   0.699725 0.483453 0.461768 0.093095
C51   C     C_R   0.306136 0.428440 0.545327 0.076611
C52   C     C_R   0.199729 0.983463 0.461772 0.092895
C53   C     C_R   0.806134 0.928450 0.545325 0.076549
C54   C     C_R   0.697025 0.469120 0.535667 0.120966
C55   C     C_R   0.315248 0.418414 0.471739 0.133165
C56   C     C_R   0.197030 0.969132 0.535671 0.121103
C57   C     C_R   0.301924 0.463451 0.962925 -0.137326
C58   C     C_R   0.815247 0.918423 0.471737 0.133222
C59   C     C_R   0.742693 0.384732 0.568892 0.019987
C60   C     C_R   0.255284 0.408007 0.426469 0.029330
C61   C     C_R   0.242699 0.884746 0.568896 0.020622
C62   C     C_R   0.755282 0.908013 0.426467 0.029242
C63   C     C_R   0.736783 0.357690 0.854960 0.546489
C64   C     C_R   0.261705 0.364205 0.147393 0.542747
C65   C     C_R   0.238237 0.864263 0.852650 0.544518
C66   C     C_R   0.761691 0.864148 0.147363 0.542056
C67   C     C_R   0.725725 0.959896 0.645937 0.574767
C68   C     C_R   0.198115 0.965660 0.036915 -0.136919
C69   C     C_R   0.271679 0.955215 0.352330 0.568411
C70   C     C_R   0.225726 0.459893 0.645938 0.574214
C71   C     C_R   0.771678 0.455212 0.352329 0.567245
C72   C     C_R   0.535109 0.177027 0.641438 0.547922
C73   C     C_R   0.472992 0.174133 0.353501 0.552000
C74   C     C_R   0.035112 0.677027 0.641436 0.548051
C75   C     C_R   0.972993 0.674133 0.353500 0.552074
C76   C     C_R   0.737219 0.355352 0.643814 0.551843
C77   C     C_R   0.261947 0.360892 0.354500 0.556689
C78   C     C_R   0.237221 0.855359 0.643816 0.550202
C79   C     C_R   0.801788 0.964612 0.963024 -0.146472
C80   C     C_R   0.761946 0.860895 0.354499 0.556782
C81   C     C_2   0.498176 0.169439 0.921047 -0.108221
C82   C     C_2   0.501635 0.168954 0.078855 -0.108346
C83   C     C_2   0.997167 0.670026 0.920508 -0.108776
C84   C     C_2   0.000591 0.667856 0.078373 -0.111636
C85   C     C_2   0.492108 0.069643 0.038112 -0.162924
C86   C     C_2   0.507352 0.069638 0.961734 -0.163267
C87   C     C_2   0.987692 0.570260 0.036984 -0.161457
C88   C     C_2   0.004007 0.569471 0.960872 -0.160191
C89   C     C_R   0.699394 0.470924 0.962583 -0.140722
C90   C     C_R   0.752593 0.417419 0.075745 0.029464
C91   C     C_R   0.308708 0.451686 0.036185 -0.134383
C92   C     C_R   0.191463 0.953897 0.963629 -0.135052
C93   C     C_R   0.808336 0.953215 0.036334 -0.140970
C94   C     C_3   0.678091 0.639790 0.616374 -0.273078
C95   C     C_3   0.410814 0.531656 0.422113 -0.276271
C96   C     C_3   0.178096 0.139776 0.616397 -0.273218
C97   C     C_3   0.910810 0.031666 0.422105 -0.276450
C98   C     C_3   0.497526 0.817534 0.462155 -0.299065
C99   C     C_3   0.401064 0.004306 0.611394 -0.298866
C100  C     C_3   0.997531 0.317534 0.462146 -0.299064
Cr1   Cr    Cr6+3 0.769270 0.163730 0.750710 1.021124
Cr2   Cr    Cr6+3 0.385840 0.322500 0.252290 1.021462
Cr3   Cr    Cr6+3 0.114160 0.822500 0.747710 1.023140
Cr4   Cr    Cr6+3 0.885840 0.822500 0.252290 1.019821
Cr5   Cr    Cr6+3 0.230730 0.163730 0.249290 1.030836
Cr6   Cr    Cr6+3 0.269270 0.663730 0.750710 1.023090
Cr7   Cr    Cr6+3 0.730730 0.663730 0.249290 1.028713
Cr8   Cr    Cr6+3 0.612620 0.009790 0.748780 0.993018
Cr9   Cr    Cr6+3 0.387380 0.009790 0.251220 1.016666
Cr10  Cr    Cr6+3 0.112620 0.509790 0.748780 0.995835
Cr11  Cr    Cr6+3 0.887380 0.509790 0.251220 1.017475
Cr12  Cr    Cr6+3 0.614160 0.322500 0.747710 1.024774
H1    H     H_    0.472235 0.985781 0.060861 0.140716
H2    H     H_    0.475670 0.252147 0.943303 0.107641
H3    H     H_    0.025964 0.748143 0.056689 0.105711
H4    H     H_    0.975736 0.753519 0.942896 0.107362
H5    H     H_    0.662649 0.525650 0.931836 0.122493
H6    H     H_    0.359373 0.467841 0.060792 0.131964
H7    H     H_    0.141159 0.972815 0.938694 0.130485
H8    H     H_    0.858586 0.971632 0.061255 0.128644
H9    H     H_    0.673100 0.558618 0.059762 0.135370
H10   H     H_    0.346174 0.494793 0.932343 0.123819
H11   H     H_    0.154188 0.999822 0.067182 0.122972
H12   H     H_    0.526926 0.985369 0.938937 0.140446
H13   H     H_    0.845735 0.997932 0.932707 0.118305
H14   H     H_    0.829356 0.270846 0.073319 0.127376
H15   H     H_    0.130444 0.376220 0.946950 0.129174
H16   H     H_    0.368219 0.868109 0.053948 0.127393
H17   H     H_    0.631802 0.869415 0.946100 0.126469
H18   H     H_    0.821133 0.241740 0.947787 0.138450
H19   H     H_    0.141300 0.361152 0.072759 0.131877
H20   H     H_    0.357928 0.854175 0.928246 0.131738
H21   H     H_    0.641984 0.855692 0.071814 0.129506
H22   H     H_    0.568021 0.345984 0.546942 0.168533
H23   H     H_    0.963867 0.488678 0.058817 0.155189
H24   H     H_    0.553206 0.338615 0.420280 0.141711
H25   H     H_    0.068021 0.845991 0.546942 0.168591
H26   H     H_    0.053204 0.838626 0.420279 0.141687
H27   H     H_    0.820107 0.240838 0.551922 0.151739
H28   H     H_    0.142398 0.416376 0.420012 0.137921
H29   H     H_    0.320118 0.740859 0.551927 0.151805
H30   H     H_    0.642396 0.916384 0.420011 0.137918
H31   H     H_    0.602388 0.544130 0.433712 0.194314
H32   H     H_    0.661584 0.656151 0.450918 0.246455
H33   H     H_    0.391046 0.344332 0.589829 0.223083
H34   H     H_    0.022322 0.484321 0.938078 0.142202
H35   H     H_    0.399025 0.498415 0.580146 0.231904
H36   H     H_    0.102392 0.044135 0.433715 0.194310
H37   H     H_    0.161586 0.156159 0.450922 0.246439
H38   H     H_    0.891046 0.844346 0.589827 0.223131
H39   H     H_    0.899023 0.998429 0.580142 0.231957
H40   H     H_    0.600581 0.557942 0.553655 0.229685
H41   H     H_    0.654555 0.726192 0.596911 0.145540
H42   H     H_    0.736129 0.645081 0.611403 0.135174
H43   H     H_    0.664800 0.628986 0.673162 0.170109
H44   H     H_    0.419549 0.366252 0.474549 0.253046
H45   H     H_    0.827915 0.271608 0.426763 0.136167
H46   H     H_    0.415143 0.593210 0.468540 0.094655
H47   H     H_    0.375610 0.573970 0.381681 0.159774
H48   H     H_    0.463551 0.519874 0.398536 0.138355
H49   H     H_    0.100588 0.057966 0.553656 0.229740
H50   H     H_    0.154566 0.226191 0.596944 0.145684
H51   H     H_    0.236136 0.145060 0.611432 0.134868
H52   H     H_    0.164799 0.128948 0.673182 0.170086
H53   H     H_    0.919549 0.866267 0.474548 0.253051
H54   H     H_    0.915137 0.093226 0.468529 0.094776
H55   H     H_    0.875605 0.073971 0.381670 0.159325
H56   H     H_    0.127636 0.450692 0.545964 0.144634
H57   H     H_    0.963547 0.019884 0.398528 0.138238
H58   H     H_    0.518065 0.928755 0.377074 0.247752
H59   H     H_    0.503019 0.742036 0.423342 0.110646
H60   H     H_    0.449130 0.800047 0.492529 0.183766
H61   H     H_    0.544553 0.815551 0.497128 0.130868
H62   H     H_    0.499468 0.918925 0.608335 0.261176
H63   H     H_    0.380499 0.925207 0.640682 0.171227
H64   H     H_    0.361780 0.035685 0.571438 0.158781
H65   H     H_    0.410243 0.078352 0.650352 0.138359
H66   H     H_    0.018078 0.428759 0.377068 0.247683
H67   H     H_    0.327924 0.771624 0.426769 0.136308
H68   H     H_    0.003023 0.242037 0.423332 0.110498
H69   H     H_    0.949132 0.300052 0.492516 0.183816
H70   H     H_    0.044555 0.315543 0.497122 0.130914
H71   H     H_    0.999469 0.418934 0.608338 0.261331
H72   H     H_    0.880490 0.425208 0.640648 0.172044
H73   H     H_    0.861787 0.535667 0.571390 0.158563
H74   H     H_    0.910226 0.578362 0.650314 0.139004
H75   H     H_    0.627635 0.950704 0.545963 0.144662
H76   H     H_    0.524334 0.251230 0.056628 0.110548
N1    N     N_3   0.654474 0.570806 0.427205 -0.592978
N2    N     N_2   0.465182 0.968193 0.576749 -0.523321
N3    N     N_2   0.991779 0.432647 0.424575 -0.467834
N4    N     N_2   0.965190 0.468192 0.576739 -0.523494
N5    N     N_3   0.364811 0.428085 0.593693 -0.622362
N6    N     N_3   0.154477 0.070814 0.427208 -0.593195
N7    N     N_3   0.864810 0.928099 0.593691 -0.622121
N8    N     N_2   0.648796 0.539270 0.576458 -0.514929
N9    N     N_2   0.384212 0.414179 0.443841 -0.466117
N10   N     N_2   0.148800 0.039279 0.576462 -0.514772
N11   N     N_2   0.884211 0.914189 0.443838 -0.465998
N12   N     N_2   0.491767 0.932644 0.424582 -0.467820
O1    O     O_R   0.784320 0.290430 0.830510 -0.528517
O2    O     O_R   0.456080 0.282180 0.333210 -0.502741
O3    O     O_R   0.043920 0.782180 0.666790 -0.518626
O4    O     O_R   0.956080 0.782180 0.333210 -0.502886
O5    O     O_R   0.679040 0.374160 0.674430 -0.469993
O6    O     O_R   0.320960 0.374160 0.325570 -0.471473
O7    O     O_R   0.179040 0.874160 0.674430 -0.470762
O8    O     O_R   0.820960 0.874160 0.325570 -0.471685
O9    O     O_3   0.665350 0.165340 0.749070 -0.257559
O10   O     O_3   0.334650 0.165340 0.250930 -0.250860
O11   O     O_3   0.165350 0.665340 0.749070 -0.256209
O12   O     O_R   0.215680 0.290430 0.169490 -0.525725
O13   O     O_3   0.834650 0.665340 0.250930 -0.249583
O14   O     O_R   0.762640 0.040960 0.825200 -0.503999
O15   O     O_R   0.237360 0.040960 0.174800 -0.504670
O16   O     O_R   0.262640 0.540960 0.825200 -0.498721
O17   O     O_R   0.737360 0.540960 0.174800 -0.508691
O18   O     O_R   0.667400 0.923970 0.829950 -0.529369
O19   O     O_R   0.332600 0.923970 0.170050 -0.532378
O20   O     O_R   0.167400 0.423970 0.829950 -0.528959
O21   O     O_R   0.832600 0.423970 0.170050 -0.529543
O22   O     O_R   0.553960 0.081340 0.821780 -0.498899
O23   O     O_R   0.284320 0.790430 0.830510 -0.524473
O24   O     O_R   0.446040 0.081340 0.178220 -0.504959
O25   O     O_R   0.053960 0.581340 0.821780 -0.497229
O26   O     O_R   0.946040 0.581340 0.178220 -0.502788
O27   O     O_R   0.543180 0.283240 0.826740 -0.513166
O28   O     O_R   0.456820 0.283240 0.173260 -0.520743
O29   O     O_R   0.043180 0.783240 0.826740 -0.516192
O30   O     O_R   0.956820 0.783240 0.173260 -0.521274
O31   O     O_R   0.678360 0.375140 0.822710 -0.505023
O32   O     O_R   0.321640 0.375140 0.177290 -0.509385
O33   O     O_R   0.178360 0.875140 0.822710 -0.507748
O34   O     O_R   0.715680 0.790430 0.169490 -0.529092
O35   O     O_R   0.821640 0.875140 0.177290 -0.509516
O36   O     O_R   0.785050 0.289380 0.670560 -0.546798
O37   O     O_R   0.214950 0.289380 0.329440 -0.517648
O38   O     O_R   0.285050 0.789380 0.670560 -0.548681
O39   O     O_R   0.714950 0.789380 0.329440 -0.517161
O40   O     O_R   0.763320 0.039990 0.676930 -0.465235
O41   O     O_R   0.236680 0.039990 0.323070 -0.460194
O42   O     O_R   0.263320 0.539990 0.676930 -0.465813
O43   O     O_R   0.736680 0.539990 0.323070 -0.460282
O44   O     O_R   0.668130 0.922920 0.670000 -0.555748
O45   O     O_R   0.554640 0.080370 0.673500 -0.509975
O46   O     O_R   0.331870 0.922920 0.330000 -0.516676
O47   O     O_R   0.168130 0.422920 0.670000 -0.555894
O48   O     O_R   0.831870 0.422920 0.330000 -0.517973
O49   O     O_R   0.445360 0.080370 0.326500 -0.491490
O50   O     O_R   0.054640 0.580370 0.673500 -0.509894
O51   O     O_R   0.945360 0.580370 0.326500 -0.491470
O52   O     O_R   0.543920 0.282180 0.666790 -0.518958

loop_
_geom_bond_atom_site_label_1
_geom_bond_atom_site_label_2
_ccdc_geom_bond_type
Cr10  O47   S    
C58   C62   A    
Cr2   O32   S    
C87   C88   S    
C41   O27   A    
C34   H29   S    
Cr3   O29   S    
Cr5   O15   S    
C53   C58   A    
C45   C71   S    
C95   H46   S    
C43   C83   S    
C97   N11   S    
Cr10  O11   S    
C42   C82   S    
C84   C87   D    
C21   H25   S    
C48   C69   S    
C4    C8    A    
H71   N4    S    
H58   N12   S    
Cr8   O9    S    
C2    C57   A    
C22   C26   A    
C40   H75   S    
C85   C86   S    
Cr10  O50   S    
C19   H22   S    
C7    C11   A    
C78   O7    A    
Cr9   O49   S    
C50   C54   A    
Cr12  O31   S    
H49   N10   S    
C66   O34   A    
C1    C5    S    
Cr4   O4    S    
C80   O39   A    
C65   O33   A    
C28   C29   A    
C92   H7    S    
Cr6   O42   S    
Cr4   O13   S    
C99   H65   S    
C10   C15   A    
H53   N11   S    
C30   C31   A    
C3    N4    S    
C36   C62   A    
H32   N1    S    
C33   H28   S    
C37   H45   S    
C97   H54   S    
C3    H73   S    
C67   O40   A    
C97   H57   S    
Cr11  O21   S    
H39   N7    S    
C4    C13   S    
C50   N1    S    
C44   O30   A    
C74   O3    A    
C36   H30   S    
C57   H10   S    
Cr7   O17   S    
C52   C56   A    
C8    H16   S    
Cr4   O35   S    
C99   H64   S    
C2    C7    A    
Cr11  O48   S    
C12   C17   A    
C46   H9    S    
C1    O18   A    
C93   H8    S    
C5    C79   A    
C27   C74   S    
Cr10  O20   S    
C3    H72   S    
Cr1   O14   S    
H33   N5    S    
C81   C86   D    
C95   N9    S    
C70   O47   A    
Cr8   O18   S    
C83   C88   D    
C21   C27   A    
C78   O38   A    
Cr12  O27   S    
C21   C22   A    
Cr1   O40   S    
C77   O37   A    
Cr7   O43   S    
C17   C92   A    
C71   O48   A    
C23   C73   S    
C75   O51   A    
C35   O17   A    
C68   H11   S    
Cr5   O41   S    
C74   O50   A    
Cr12  O52   S    
C73   O49   A    
C54   C59   A    
C25   C29   A    
C60   C77   S    
C58   N11   S    
C54   N8    S    
H40   N8    S    
C27   C31   A    
C34   C39   A    
C87   H23   S    
C36   C40   A    
C52   N6    S    
C63   O1    A    
C6    H14   S    
C32   H27   S    
C51   N5    S    
Cr3   O11   S    
C64   O32   A    
C56   N10   S    
C94   H43   S    
C47   C51   A    
Cr1   O9    S    
C97   H55   S    
Cr7   O39   S    
Cr8   O45   S    
C34   C61   A    
C13   O19   A    
Cr5   O10   S    
C96   H52   S    
C82   H76   S    
C72   O45   A    
C81   H2    S    
C38   H56   S    
C9    C14   A    
C10   H18   S    
C47   C70   S    
C5    C9    A    
Cr9   O19   S    
C46   C89   A    
H37   N6    S    
C15   C89   A    
Cr8   O22   S    
C11   C16   A    
Cr4   O30   S    
Cr6   O23   S    
Cr7   O13   S    
C20   C23   A    
C61   C78   S    
C8    C12   A    
C41   C81   S    
Cr8   O44   S    
Cr1   O36   S    
Cr2   O28   S    
C26   C75   S    
H31   N1    S    
C91   H6    S    
C76   O36   A    
C25   C72   S    
C28   N12   S    
C32   C37   A    
C72   O52   A    
C100  H69   S    
Cr5   O12   S    
C30   N3    S    
C38   C47   A    
Cr9   O24   S    
H44   N9    S    
H62   N2    S    
Cr2   O6    S    
C98   H59   S    
C24   O20   A    
H36   N6    S    
C80   O8    A    
Cr7   O34   S    
C89   H5    S    
Cr9   O46   S    
C26   C30   A    
C84   H3    S    
C9    H17   S    
C86   H12   S    
C53   N7    S    
C94   N8    S    
C100  N3    S    
C23   C28   A    
C37   C45   A    
Cr9   O10   S    
C100  H68   S    
C3    H74   S    
C65   O23   A    
C100  H70   S    
C76   O5    A    
C42   O24   A    
C63   O31   A    
C62   C80   S    
C98   H61   S    
C18   C66   S    
C95   H47   S    
Cr5   O37   S    
C57   C91   A    
C29   N2    S    
Cr11  O26   S    
C83   H4    S    
Cr2   O10   S    
Cr11  O13   S    
Cr3   O7    S    
C44   C84   S    
Cr10  O25   S    
C11   H19   S    
Cr12  O5    S    
C99   N2    S    
C39   H67   S    
C75   O4    A    
C43   O29   A    
C49   C67   S    
C46   C90   A    
C14   H21   S    
C42   O28   A    
C33   C60   A    
C82   C85   D    
Cr6   O16   S    
C73   O2    A    
C22   H26   S    
C17   C65   S    
C33   C38   A    
C96   H51   S    
C98   N12   S    
C66   O35   A    
C12   H20   S    
C7    H15   S    
Cr12  O9    S    
C13   O15   A    
C19   C20   A    
C35   O21   A    
Cr2   O2    S    
C79   C93   A    
C98   H60   S    
C20   H24   S    
C6    C90   A    
C77   O6    A    
C70   O42   A    
C2    C24   S    
H66   N3    S    
C24   O16   A    
C69   O41   A    
C55   N9    S    
C94   H42   S    
C44   O26   A    
C45   C50   A    
C41   O22   A    
C94   H41   S    
C49   C53   A    
Cr6   O11   S    
C31   N4    S    
C85   H1    S    
C68   C92   A    
C96   H50   S    
C14   C18   A    
H35   N5    S    
C51   C55   A    
C4    C68   A    
Cr4   O8    S    
C79   H13   S    
C19   C25   A    
C67   O44   A    
Cr3   O3    S    
H38   N7    S    
C6    C10   A    
C71   O43   A    
C35   C90   S    
C43   O25   A    
C69   O46   A    
C48   C52   A    
C99   H63   S    
C16   C91   A    
Cr3   O33   S    
Cr6   O38   S    
C1    O14   A    
C18   C93   A    
C15   C63   S    
C56   C61   A    
C64   O12   A    
Cr1   O1    S    
C16   C64   S    
C32   C59   A    
C88   H34   S    
C55   C60   A    
Cr11  O51   S    
C59   C76   S    
C96   N10   S    
C95   H48   S    
C40   C49   A    
C39   C48   A    
