data_mof_unit_34894.cif
_audit_creation_date              2012-12-10T18:13:36-0500
_audit_creation_method            fapswitch 2.2
_symmetry_space_group_name_H-M    P1
_symmetry_Int_Tables_number       1
_space_group_crystal_system       triclinic
_cell_length_a                    12.594106
_cell_length_b                    13.201947
_cell_length_c                    16.47554
_cell_angle_alpha                 91.286521
_cell_angle_beta                  98.236711
_cell_angle_gamma                 97.119483
_cell_volume                      2687.91824695

loop_
_atom_site_label
_atom_site_type_symbol
_atom_type_description
_atom_site_fract_x
_atom_site_fract_y
_atom_site_fract_z
_atom_type_partial_charge
C1    C     C_R   0.559474 0.691088 0.514486 0.881756
C2    C     C_R   0.468673 0.470946 0.733584 -0.191570
C3    C     C_R   0.272554 0.051372 0.506296 -0.247674
C4    C     C_R   0.511347 0.492360 0.348420 0.865375
C5    C     C_R   0.404512 0.199908 0.501569 -0.132617
C6    C     C_R   0.703357 0.836765 0.522092 -0.276039
C7    C     C_R   0.734066 0.940332 0.517215 -0.218815
C8    C     C_R   0.657682 0.008778 0.515673 0.473114
C9    C     C_R   0.550415 0.973980 0.532356 -0.038972
C10   C     C_R   0.523460 0.869031 0.544913 0.002778
C11   C     C_R   0.465861 0.036341 0.530473 0.069648
C12   C     C_R   0.600723 0.458222 0.227653 -0.196083
C13   C     C_R   0.356987 0.992522 0.529883 0.098494
C14   C     C_R   0.336677 0.892221 0.554783 -0.028124
C15   C     C_R   0.421887 0.834515 0.568310 -0.200952
C16   C     C_R   0.439831 0.308594 0.493562 0.857741
C17   C     C_R   0.485947 0.141283 0.529522 -0.244046
C18   C     C_R   0.296069 0.153317 0.486500 0.002782
C19   C     C_R   0.596672 0.800109 0.530599 -0.102880
C20   C     C_R   0.899317 0.344711 0.610799 -0.076160
C21   C     C_R   0.206248 0.626849 0.403159 -0.010610
C22   C     C_R   0.102296 0.653907 0.383874 0.406141
C23   C     C_R   0.392412 0.491783 0.859094 0.409683
C24   C     C_R   0.019020 0.603196 0.420096 -0.305997
C25   C     C_R   0.039396 0.528895 0.478481 -0.020046
C26   C     C_R   0.146494 0.505034 0.497018 0.204309
C27   C     C_R   0.957005 0.476436 0.517745 0.014837
C28   C     C_R   0.485768 0.499687 0.651181 0.895635
C29   C     C_R   0.981915 0.398834 0.573456 0.113554
C30   C     C_R   0.088433 0.377176 0.590441 -0.250989
C31   C     C_R   0.168902 0.429724 0.553102 -0.141956
C32   C     C_R   0.849924 0.498340 0.503825 -0.067459
C33   C     C_R   0.795023 0.370064 0.593204 -0.024100
C34   C     C_R   0.411429 0.527051 0.782013 -0.135299
C35   C     C_R   0.506129 0.457642 0.263262 -0.029954
C36   C     C_R   0.407653 0.408572 0.221594 -0.197741
C37   C     C_R   0.403163 0.362735 0.144389 -0.161262
C38   C     C_R   0.496605 0.368316 0.106601 0.158285
C39   C     C_R   0.595875 0.413871 0.149546 -0.178882
C40   C     C_3   0.588066 0.208036 0.836602 0.068873
C41   C     C_3   0.562740 0.124637 0.767932 -0.348694
C42   C     C_3   0.665899 0.095481 0.740511 -0.913622
C43   C     C_1   0.208026 0.206483 0.451518 0.167398
C44   C     C_1   0.230437 0.846934 0.568376 0.138334
C45   C     C_R   0.497785 0.376253 0.758474 -0.352944
C46   C     C_3   0.685261 0.116378 0.412396 0.054510
C47   C     C_3   0.732166 0.224434 0.394094 -0.299375
C48   C     C_3   0.728476 0.237978 0.302081 -0.948098
C49   C     C_1   0.370204 0.619444 0.753240 0.219576
C50   C     C_1   0.918647 0.263386 0.666191 0.153945
C51   C     C_1   0.290769 0.676836 0.362274 0.322626
C52   C     C_3   0.067789 0.817034 0.361034 0.075324
C53   C     C_3   0.020413 0.885260 0.295222 -0.315665
C54   C     C_3   0.005701 0.988901 0.331852 -0.963424
C55   C     C_3   0.404143 0.633902 0.945993 0.088633
C56   C     C_R   0.474762 0.337337 0.833395 0.473176
C57   C     C_3   0.457914 0.610931 0.031760 -0.359016
C58   C     C_3   0.512277 0.708157 0.079923 -0.931228
C59   C     C_R   0.421833 0.396003 0.883332 -0.031941
C60   C     C_2   0.490482 0.343102 0.018707 -0.229539
C61   C     C_2   0.405385 0.363398 0.965568 -0.103787
H1    H     H_    0.334489 0.403148 0.249597 0.162470
H2    H     H_    0.939502 0.623124 0.399723 0.151592
H3    H     H_    0.247533 0.407245 0.567823 0.207831
H4    H     H_    0.533258 0.330553 0.716770 0.165423
H5    H     H_    0.333122 0.382954 0.987706 0.175506
H6    H     H_    0.668799 0.418983 0.121266 0.131779
H7    H     H_    0.677954 0.493301 0.260033 0.147867
H8    H     H_    0.566009 0.334106 0.996251 0.165452
H9    H     H_    0.326180 0.325029 0.113764 0.137071
H10   H     H_    0.628738 0.174759 0.892216 0.160195
H11   H     H_    0.647590 0.272070 0.821553 0.124961
H12   H     H_    0.188782 0.017502 0.500700 0.146606
H13   H     H_    0.517274 0.055889 0.790406 0.237096
H14   H     H_    0.510973 0.151086 0.714300 0.224735
H15   H     H_    0.706408 0.160420 0.710015 0.268549
H16   H     H_    0.645545 0.029001 0.696263 0.272152
H17   H     H_    0.722046 0.074237 0.793872 0.267879
H18   H     H_    0.599400 0.101488 0.382395 0.153362
H19   H     H_    0.733025 0.061385 0.386198 0.141676
H20   H     H_    0.685314 0.280606 0.419000 0.259013
H21   H     H_    0.817519 0.240245 0.424599 0.232263
H22   H     H_    0.775232 0.182824 0.275535 0.262729
H23   H     H_    0.565224 0.178537 0.553955 0.225774
H24   H     H_    0.764778 0.316634 0.291311 0.268966
H25   H     H_    0.643434 0.226158 0.270753 0.273748
H26   H     H_    0.148348 0.855088 0.390580 0.146994
H27   H     H_    0.012105 0.807433 0.408029 0.142025
H28   H     H_    0.075132 0.897038 0.248035 0.234330
H29   H     H_    0.940537 0.846970 0.264874 0.225533
H30   H     H_    0.951997 0.979204 0.379821 0.258311
H31   H     H_    0.968514 0.035413 0.282869 0.269285
H32   H     H_    0.085334 0.030249 0.359105 0.272891
H33   H     H_    0.351519 0.694484 0.951808 0.183889
H34   H     H_    0.761875 0.785020 0.514354 0.181107
H35   H     H_    0.467478 0.665886 0.909374 0.118744
H36   H     H_    0.396353 0.571662 0.066373 0.249229
H37   H     H_    0.520446 0.560141 0.025693 0.220461
H38   H     H_    0.574934 0.748355 0.046834 0.260502
H39   H     H_    0.551658 0.688116 0.141118 0.270643
H40   H     H_    0.451407 0.759902 0.088881 0.269151
H41   H     H_    0.816101 0.967182 0.507893 0.162576
H42   H     H_    0.406487 0.760320 0.593747 0.187454
H43   H     H_    0.729634 0.329952 0.620699 0.137739
H44   H     H_    0.110596 0.318817 0.632473 0.167736
H45   H     H_    0.823306 0.556801 0.464366 0.132552
N1    N     N_R   0.774070 0.445420 0.541180 -0.118883
N2    N     N_R   0.226730 0.554050 0.459240 -0.172842
N3    N     N_1   0.137036 0.248168 0.422721 -0.201728
N4    N     N_1   0.145495 0.810474 0.579257 -0.210031
N5    N     N_1   0.336700 0.693275 0.730777 -0.212311
N6    N     N_1   0.934311 0.198262 0.710471 -0.197872
N7    N     N_1   0.357765 0.717846 0.328903 -0.217001
O1    O     O_R   0.631480 0.627510 0.519670 -0.612061
O2    O     O_3   0.691084 0.108594 0.498262 -0.670678
O3    O     O_3   0.079690 0.722620 0.323532 -0.643398
O4    O     O_3   0.336943 0.546151 0.908606 -0.641262
O5    O     O_R   0.455770 0.662400 0.493360 -0.619404
O6    O     O_R   0.598240 0.480510 0.398910 -0.617001
O7    O     O_R   0.422540 0.515400 0.372600 -0.609102
O8    O     O_R   0.544230 0.337600 0.506640 -0.629024
O9    O     O_R   0.368520 0.372490 0.480330 -0.624725
O10   O     O_R   0.577460 0.484600 0.627400 -0.607848
O11   O     O_R   0.401760 0.519490 0.601090 -0.632520
O12   O     O_3   0.490364 0.238450 0.856009 -0.627805
Zn1   Zn    Zn3+2 0.617320 0.476700 0.517570 0.929144
Zn2   Zn    Zn3+2 0.382680 0.523300 0.482430 0.939539

loop_
_geom_bond_atom_site_label_1
_geom_bond_atom_site_label_2
_ccdc_geom_bond_type
C46   H19   S    
C40   H10   S    
C27   C29   A    
C33   H43   S    
C41   C42   S    
C35   C36   A    
C33   N1    A    
C28   O10   A    
C7    C8    A    
C53   C54   S    
C23   C59   A    
C6    C19   A    
C12   H7    S    
C29   C30   A    
C46   O2    S    
C36   C37   A    
C10   C15   A    
C30   C31   A    
O1    Zn1   S    
C5    C17   A    
C57   H37   S    
C3    C18   A    
C47   H21   S    
O9    Zn2   S    
C16   O9    A    
C54   H32   S    
C20   C50   S    
C8    O2    S    
C41   H13   S    
C61   H5    S    
C46   H18   S    
C45   C56   A    
C8    C9    A    
C5    C16   S    
C7    H41   S    
C4    O6    A    
C13   C14   A    
C9    C10   A    
C3    C13   A    
C49   N5    T    
C2    C34   A    
C22   O3    S    
C4    C35   S    
C26   C31   A    
C32   H45   S    
C21   C22   A    
C55   H33   S    
C36   H1    S    
C20   C29   A    
C52   O3    S    
C2    C45   A    
C59   C61   S    
C1    C19   S    
O7    Zn2   S    
C52   H27   S    
C58   H39   S    
C24   C25   A    
C26   N2    A    
O10   Zn1   S    
C5    C18   A    
C25   C26   A    
C32   N1    A    
C60   C61   D    
C16   O8    A    
C54   H31   S    
C37   C38   A    
C41   H14   S    
C47   C48   S    
C10   C19   A    
C23   C34   A    
C57   H36   S    
C50   N6    T    
C58   H40   S    
C51   N7    T    
C56   O12   S    
C12   C35   A    
C9    C11   A    
O11   Zn2   S    
C38   C60   S    
C20   C33   A    
C40   C41   S    
C42   H17   S    
C24   H2    S    
C55   C57   S    
C30   H44   S    
C53   H28   S    
C48   H25   S    
C1    O1    A    
C21   C51   S    
C52   C53   S    
C14   C44   S    
C55   O4    S    
C46   C47   S    
C11   C17   A    
C34   C49   S    
C40   H11   S    
C27   C32   A    
C14   C15   A    
C39   H6    S    
C31   H3    S    
C52   H26   S    
C58   H38   S    
N1    Zn1   S    
C55   H35   S    
C23   O4    S    
C28   O11   A    
C6    C7    A    
C25   C27   A    
C42   H15   S    
C56   C59   A    
C17   H23   S    
C12   C39   A    
C54   H30   S    
C18   C43   S    
C45   H4    S    
C11   C13   A    
C57   C58   S    
C38   C39   A    
C60   H8    S    
C40   O12   S    
C22   C24   A    
C1    O5    A    
C47   H20   S    
N2    Zn2   S    
C3    H12   S    
C21   N2    A    
O6    Zn1   S    
O8    Zn1   S    
C42   H16   S    
C6    H34   S    
O5    Zn2   S    
C53   H29   S    
C48   H22   S    
C48   H24   S    
C4    O7    A    
C2    C28   S    
C43   N3    T    
C15   H42   S    
C37   H9    S    
C44   N4    T    
