data_mof_unit_47109.cif
_audit_creation_date              2013-03-05T15:44:32-0500
_audit_creation_method            fapswitch 2.2
_symmetry_space_group_name_H-M    P1
_symmetry_Int_Tables_number       1
_space_group_crystal_system       triclinic
_cell_length_a                    27.725239
_cell_length_b                    10.931015
_cell_length_c                    9.677603
_cell_angle_alpha                 90.582972
_cell_angle_beta                  89.780952
_cell_angle_gamma                 90.769559
_cell_volume                      2932.50650205

loop_
_atom_site_label
_atom_site_type_symbol
_atom_site_description
_atom_site_fract_x
_atom_site_fract_y
_atom_site_fract_z
_atom_type_partial_charge
O1    O     O_R   0.500010 0.321960 0.617040 -0.537111
O2    O     O_R   0.499990 0.321920 0.382900 -0.588672
C1    C     C_R   0.502864 0.265353 0.499086 0.797350
O3    O     O_R   0.430270 0.500040 0.617060 -0.574080
O4    O     O_R   0.430260 0.500000 0.382910 -0.579651
C2    C     C_R   0.407688 0.500388 0.500138 0.793619
Cu1   Cu    Cu3+1 0.500010 0.500020 0.638630 0.976729
Cu2   Cu    Cu3+1 0.499990 0.499980 0.361370 0.947006
O5    O     O_R   0.500010 0.678080 0.617100 -0.557523
O6    O     O_R   0.499990 0.678040 0.382960 -0.581150
O7    O     O_R   0.569740 0.500000 0.617090 -0.573356
O8    O     O_R   0.569730 0.499960 0.382940 -0.584382
C3    C     C_R   0.499362 0.734396 0.500612 0.843907
C4    C     C_R   0.592560 0.501434 0.499666 0.814096
C5    C     C_R   0.179339 0.472119 0.393494 0.560889
O9    O     O_2   0.205085 0.398089 0.309874 -0.484428
N1    N     N_R   0.203418 0.549944 0.481826 -0.473610
C6    C     C_R   0.179399 0.629633 0.566102 0.560562
C7    C     C_R   0.285908 0.635211 0.441442 0.049237
C8    C     C_R   0.335836 0.618134 0.445714 -0.278551
C9    C     C_R   0.324471 0.418666 0.552230 -0.042264
C10   C     C_R   0.274560 0.435644 0.547378 -0.151659
C11   C     C_R   0.255012 0.541563 0.490993 0.294256
C12   C     C_R   0.103118 0.554787 0.473273 -0.099993
C13   C     C_R   0.128400 0.470429 0.388927 -0.115260
C14   C     C_R   0.101650 0.385536 0.307486 0.414690
C15   C     C_R   0.128931 0.634430 0.562562 0.003157
C16   C     C_R   0.355239 0.510939 0.499399 -0.069619
H1    H     H_    0.250303 0.364593 0.584654 0.153716
C17   C     C_R   0.645533 0.508419 0.497836 -0.040229
C18   C     C_R   0.975351 0.493545 0.364745 -0.020984
C19   C     C_R   0.975661 0.625563 0.573042 0.064251
C20   C     C_R   0.950170 0.556224 0.471423 0.033879
C21   C     C_R   0.948294 0.445173 0.251412 0.338574
C22   C     C_R   0.898172 0.437479 0.259325 -0.158490
C23   C     C_R   0.873330 0.485919 0.372803 -0.088597
C24   C     C_R   0.899048 0.549720 0.476281 -0.050022
C25   C     C_R   0.873565 0.606974 0.584537 -0.005610
C26   C     C_R   0.822960 0.598039 0.588067 0.545557
N2    N     N_R   0.798623 0.532598 0.488235 -0.464829
C27   C     C_R   0.822885 0.476507 0.381990 0.568103
C28   C     C_R   0.719715 0.566650 0.380557 -0.089806
C29   C     C_R   0.669579 0.557143 0.382488 -0.208627
C30   C     C_R   0.672466 0.468627 0.611014 -0.197638
C31   C     C_R   0.722799 0.475884 0.607765 -0.087202
C32   C     C_R   0.746743 0.525215 0.492544 0.329453
O10   O     O_2   0.798306 0.410746 0.285985 -0.531443
C33   C     C_R   0.026163 0.482740 0.375980 -0.010167
C34   C     C_R   0.051902 0.558186 0.470562 0.071961
C35   C     C_R   0.026758 0.634702 0.564883 0.067911
C36   C     C_R   0.051564 0.391485 0.304130 -0.159150
H2    H     H_    0.649581 0.589745 0.294566 0.159828
H3    H     H_    0.737639 0.606199 0.291642 0.158648
H4    H     H_    0.878529 0.397572 0.172983 0.220055
H5    H     H_    0.032596 0.318593 0.250382 0.223287
O11   O     O_2   0.204317 0.702883 0.654251 -0.540556
C37   C     C_R   0.103891 0.716002 0.647877 -0.121354
H6    H     H_    0.359902 0.688961 0.406684 0.141718
H7    H     H_    0.122975 0.779612 0.715412 0.188342
C38   C     C_R   0.949073 0.681566 0.680881 -0.168869
C39   C     C_R   0.899024 0.672158 0.686396 -0.118542
O12   O     O_2   0.798285 0.655648 0.689474 -0.532671
C40   C     C_R   0.053779 0.715946 0.649644 -0.183436
H8    H     H_    0.966095 0.730248 0.765387 0.153919
H9    H     H_    0.654662 0.430475 0.700924 0.166577
H10   H     H_    0.880346 0.716091 0.771597 0.192286
H11   H     H_    0.743206 0.442768 0.694591 0.161769
H12   H     H_    0.037112 0.782456 0.716866 0.148505
C41   C     C_2   0.514787 0.929319 0.396173 -0.117866
C42   C     C_2   0.496446 0.865677 0.501370 -0.278962
H13   H     H_    0.530992 0.882563 0.308118 0.168359
H14   H     H_    0.477953 0.909670 0.587151 0.179391
C43   C     C_2   0.508079 0.061178 0.387027 -0.087960
C44   C     C_2   0.513969 0.135338 0.499327 0.170283
C45   C     C_2   0.464931 0.453965 0.922030 -0.071709
N3    N     N_2   0.499480 0.498660 0.846910 -0.279332
H15   H     H_    0.433487 0.415019 0.870789 0.161489
H16   H     H_    0.530225 0.530936 0.894130 0.198507
C46   C     C_2   0.465963 0.449028 0.077648 -0.044027
N4    N     N_2   0.499460 0.498630 0.153040 -0.282168
H17   H     H_    0.436554 0.400852 0.128626 0.163083
H18   H     H_    0.526275 0.548949 0.106283 0.194776
C47   C     C_R   0.342703 0.301988 0.607709 0.105846
C48   C     C_R   0.326556 0.260595 0.737193 -0.144740
C49   C     C_R   0.340849 0.146996 0.786331 -0.140361
C50   C     C_R   0.371576 0.073919 0.707274 -0.122505
C51   C     C_R   0.387753 0.114032 0.578456 -0.156879
C52   C     C_R   0.373352 0.227361 0.528310 -0.149876
H19   H     H_    0.302586 0.315936 0.799653 0.144139
H20   H     H_    0.327749 0.115321 0.885341 0.136277
H21   H     H_    0.382607 0.985892 0.745406 0.134857
H22   H     H_    0.410962 0.056413 0.516863 0.120820
H23   H     H_    0.385260 0.255462 0.426625 0.121026
C53   C     C_R   0.267280 0.751525 0.386348 0.126352
C54   C     C_R   0.284149 0.864033 0.440641 -0.113827
C55   C     C_R   0.266866 0.974223 0.389501 -0.133028
C56   C     C_R   0.232783 0.973151 0.283506 -0.078850
C57   C     C_R   0.216112 0.861897 0.228066 -0.119083
C58   C     C_R   0.233367 0.751447 0.278738 -0.149961
H24   H     H_    0.310357 0.866407 0.523410 0.135008
H25   H     H_    0.279856 0.060425 0.432214 0.157550
H26   H     H_    0.219403 0.058517 0.244045 0.191034
H27   H     H_    0.189938 0.861232 0.145354 0.161253
H28   H     H_    0.220654 0.666245 0.233050 0.157720
C59   C     C_R   0.493846 0.103594 0.248481 0.107950
C60   C     C_R   0.528880 0.150505 0.157425 -0.101415
C61   C     C_R   0.516713 0.176031 0.020688 -0.077840
C62   C     C_R   0.469690 0.154076 0.974016 -0.089344
C63   C     C_R   0.434681 0.107914 0.064474 -0.169535
C64   C     C_R   0.446700 0.082041 0.201038 -0.149726
H29   H     H_    0.565661 0.165151 0.191779 0.136998
H30   H     H_    0.543777 0.212176 0.950708 0.175135
H31   H     H_    0.460357 0.173261 0.867987 0.175666
H32   H     H_    0.398383 0.090365 0.028542 0.134869
H33   H     H_    0.419581 0.042767 0.268669 0.121196
Cl1   Cl    Cl    0.542193 0.083615 0.652136 -0.644788
Cl2   Cl    Cl    0.127468 0.264275 0.211792 -0.548627
Cl3   Cl    Cl    0.973172 0.415977 0.086010 -0.601479

loop_
_geom_bond_atom_site_label_1
_geom_bond_atom_site_label_2
_geom_bond_distance
_ccdc_geom_bond_type
C21   Cl3   1.768305 S    
C59   C64   1.403203 A    
C10   H1    1.084174 S    
C61   H30   1.082291 S    
C54   C55   1.398141 A    
C14   Cl2   1.767021 S    
C51   C52   1.398768 A    
C56   C57   1.397842 A    
C23   C27   1.403544 A    
Cu1   Cu2   2.683210 S    
C31   C32   1.404209 A    
N2    C32   1.440012 S    
N1    C11   1.437755 S    
C9    C10   1.399700 A    
C23   C24   1.405547 A    
N3    H16   1.025438 S    
C50   H21   1.082397 S    
C28   H3    1.082969 S    
C28   C32   1.402348 A    
O4    C2    1.293546 A    
O7    C4    1.298658 A    
C29   H2    1.083267 S    
C5    C13   1.413004 A    
C60   C61   1.398632 A    
C57   H27   1.082394 S    
C62   C63   1.397312 A    
Cu1   O5    1.959605 S    
C21   C22   1.392929 A    
C43   C44   1.358244 D    
C41   H13   1.087954 S    
C1    C44   1.458229 S    
O5    C3    1.290238 A    
C52   H23   1.082911 S    
C39   H10   1.083509 S    
C33   C36   1.405530 A    
C2    C16   1.460330 S    
C9    C47   1.484508 S    
C31   H11   1.082833 S    
C61   C62   1.398284 A    
C18   C20   1.419710 A    
C41   C43   1.459399 S    
C28   C29   1.392596 A    
C56   H26   1.082514 S    
C6    O11   1.349773 S    
C25   C39   1.398267 A    
C47   C52   1.406698 A    
O1    Cu1   1.955444 S    
C55   H25   1.082843 S    
C22   H4    1.083861 S    
C35   C40   1.412370 A    
C17   C30   1.403979 A    
C30   H9    1.083175 S    
C53   C54   1.407327 A    
C4    C17   1.469705 S    
O3    Cu1   1.945593 S    
Cu1   O7    1.943694 S    
C60   H29   1.083122 S    
C12   C13   1.416199 A    
N4    H18   1.025436 S    
C15   C37   1.398571 A    
C26   N2    1.370546 A    
C46   H17   1.084537 S    
C50   C51   1.396107 A    
C8    C16   1.401350 A    
C13   C14   1.415437 A    
C49   C50   1.396443 A    
C20   C24   1.418827 A    
C38   C39   1.390905 A    
O1    C1    1.295545 A    
C22   C23   1.397482 A    
C62   H31   1.082457 S    
C7    C11   1.412418 A    
C45   N3    1.293853 D    
C24   C25   1.407596 A    
C43   C59   1.479874 S    
C47   C48   1.406137 A    
Cu2   O8    1.945587 S    
C12   C15   1.410481 A    
C44   Cl1   1.776693 S    
C55   C56   1.397194 A    
N1    C6    1.365431 A    
C27   O10   1.349974 S    
C18   C21   1.424466 A    
C48   C49   1.397056 A    
C45   H15   1.084525 S    
C19   C35   1.420823 A    
C7    C53   1.483607 S    
C63   H32   1.080089 S    
O3    C2    1.295345 A    
N2    C27   1.370610 A    
C9    C16   1.410839 A    
O8    C4    1.296833 A    
C34   C35   1.419155 A    
C18   C33   1.419972 A    
C17   C29   1.403954 A    
C48   H19   1.083188 S    
C19   C38   1.414406 A    
C8    H6    1.085092 S    
C30   C31   1.396930 A    
C12   C34   1.421312 A    
C5    N1    1.369104 A    
C26   O12   1.349638 S    
C40   H12   1.078152 S    
C33   C34   1.414581 A    
C54   H24   1.083411 S    
O2    Cu2   1.959605 S    
C6    C15   1.401464 A    
C37   C40   1.389419 A    
O6    C3    1.289202 A    
O4    Cu2   1.943697 S    
C49   H20   1.081954 S    
Cu1   N3    2.015852 S    
C59   C60   1.404372 A    
C14   C36   1.391559 A    
C38   H8    1.078001 S    
C19   C20   1.420152 A    
C7    C8    1.400089 A    
O2    C1    1.291948 A    
C63   C64   1.396858 A    
C25   C26   1.405422 A    
C53   C58   1.405718 A    
C58   H28   1.082185 S    
C36   H5    1.079071 S    
C41   C42   1.334128 D    
C37   H7    1.083554 S    
C46   N4    1.293227 D    
Cu2   O6    1.955444 S    
C57   C58   1.398699 A    
C3    C42   1.438334 S    
Cu2   N4    2.016147 S    
C10   C11   1.401421 A    
C42   H14   1.085603 S    
C51   H22   1.079981 S    
C45   C46   1.507918 S    
C64   H33   1.082271 S    
C5    O9    1.347969 S    
