data_mof_unit_52356.cif
_audit_creation_date              2012-12-10T18:57:05-0500
_audit_creation_method            fapswitch 2.2
_symmetry_space_group_name_H-M    P1
_symmetry_Int_Tables_number       1
_space_group_crystal_system       triclinic
_cell_length_a                    10.672871
_cell_length_b                    9.861212
_cell_length_c                    10.631025
_cell_angle_alpha                 89.865148
_cell_angle_beta                  90.670155
_cell_angle_gamma                 90.138921
_cell_volume                      1118.80535576

loop_
_atom_site_label
_atom_site_type_symbol
_atom_type_description
_atom_site_fract_x
_atom_site_fract_y
_atom_site_fract_z
_atom_type_partial_charge
C1    C     C_R   0.260061 0.500029 0.501864 0.870537
C2    C     C_R   0.599163 0.554870 0.937247 0.048014
C3    C     C_R   0.497627 0.499619 0.128506 -0.289718
C4    C     C_R   0.500193 0.496092 0.871268 -0.275629
C5    C     C_R   0.400930 0.431775 0.063468 0.374624
C6    C     C_R   0.407759 0.420736 0.933141 0.334727
C7    C     C_3   0.652278 0.694716 0.929596 -0.464214
C8    C     C_3   0.652662 0.694688 0.072322 -0.437028
C9    C     C_R   0.064395 0.389758 0.554612 -0.192184
C10   C     C_R   0.935987 0.388981 0.552828 -0.202102
C11   C     C_R   0.872388 0.500680 0.502837 -0.003466
C12   C     C_R   0.739958 0.500102 0.500694 0.849304
C13   C     C_R   0.127618 0.501187 0.504829 -0.011781
C14   C     C_R   0.935627 0.613465 0.455496 -0.197510
C15   C     C_R   0.063933 0.613754 0.456538 -0.222171
C16   C     C_3   0.210075 0.500188 0.135270 0.124094
C17   C     C_3   0.090980 0.472636 0.059014 -0.822994
C18   C     C_3   0.331122 0.212128 0.882324 0.178342
C19   C     C_3   0.255514 0.136739 0.782528 -0.883879
C20   C     C_3   0.693967 0.084786 0.768441 0.054554
C21   C     C_3   0.744690 0.189946 0.860424 -0.816192
C22   C     C_3   0.210565 0.100106 0.368975 0.096746
C23   C     C_R   0.578998 0.073355 0.579619 0.469452
C24   C     C_3   0.120642 0.185244 0.290551 -0.749879
C25   C     C_R   0.417410 0.071754 0.424823 0.445984
C26   C     C_R   0.578918 0.927697 0.577828 -0.243683
C27   C     C_R   0.421818 0.927227 0.422079 -0.225038
C28   C     C_R   0.498683 0.500344 0.260420 0.950222
C29   C     C_R   0.500717 0.499607 0.739517 0.983260
C30   C     C_R   0.599334 0.554344 0.065772 0.055236
H1    H     H_    0.747846 0.695649 0.889132 0.194881
H2    H     H_    0.363530 0.870259 0.357288 0.145187
H3    H     H_    0.248826 0.600754 0.105945 0.106645
H4    H     H_    0.184620 0.510917 0.235388 0.140377
H5    H     H_    0.048328 0.374822 0.087688 0.253697
H6    H     H_    0.022232 0.554982 0.075108 0.199877
H7    H     H_    0.112383 0.469048 0.957202 0.281968
H8    H     H_    0.296779 0.180790 0.976410 0.179854
H9    H     H_    0.430998 0.181011 0.872984 0.127225
H10   H     H_    0.289453 0.164548 0.687553 0.259357
H11   H     H_    0.266639 0.025674 0.795844 0.205956
H12   H     H_    0.586569 0.769377 0.112928 0.209905
H13   H     H_    0.154714 0.162916 0.789891 0.251607
H14   H     H_    0.769325 0.009502 0.751727 0.141755
H15   H     H_    0.611927 0.034356 0.812821 0.122006
H16   H     H_    0.773750 0.139603 0.949603 0.206503
H17   H     H_    0.827019 0.242669 0.819916 0.250041
H18   H     H_    0.671122 0.265638 0.881249 0.249406
H19   H     H_    0.186470 0.111779 0.469987 0.125043
H20   H     H_    0.194678 0.993206 0.340275 0.107247
H21   H     H_    0.139598 0.170460 0.189032 0.260508
H22   H     H_    0.022575 0.154291 0.309709 0.187711
H23   H     H_    0.585691 0.769076 0.887439 0.200807
H24   H     H_    0.131866 0.293651 0.314567 0.273004
H25   H     H_    0.748508 0.695889 0.114426 0.191053
H26   H     H_    0.113994 0.303828 0.593997 0.160501
H27   H     H_    0.886735 0.302205 0.590923 0.186297
H28   H     H_    0.886130 0.699793 0.416051 0.152279
H29   H     H_    0.113066 0.700143 0.417382 0.140840
H30   H     H_    0.642490 0.870012 0.636764 0.143098
N1    N     N_R   0.500000 0.857200 0.500000 -0.100992
N2    N     N_R   0.500000 0.142810 0.500000 -0.151697
O1    O     O_R   0.316770 0.614620 0.499990 -0.633989
O2    O     O_3   0.315581 0.353291 0.864928 -0.602348
O3    O     O_3   0.660635 0.149786 0.654280 -0.580426
O4    O     O_3   0.335366 0.142610 0.346951 -0.554512
O5    O     O_R   0.683230 0.614620 0.500010 -0.631128
O6    O     O_R   0.316800 0.385290 0.500000 -0.590868
O7    O     O_R   0.683200 0.385290 0.500000 -0.587584
O8    O     O_R   0.500000 0.614690 0.316780 -0.637983
O9    O     O_R   0.500000 0.614690 0.683220 -0.629797
O10   O     O_R   0.500020 0.385360 0.316780 -0.560974
O11   O     O_R   0.499980 0.385360 0.683220 -0.569158
O12   O     O_3   0.294127 0.389424 0.124789 -0.592174
Zn1   Zn    Zn3+2 0.500000 0.653120 0.500000 0.932983
Zn2   Zn    Zn3+2 0.500000 0.346880 0.500000 1.038383

loop_
_geom_bond_atom_site_label_1
_geom_bond_atom_site_label_2
_ccdc_geom_bond_type
C24   H22   S    
C3    C30   A    
C2    C4    A    
C18   H9    S    
C16   H4    S    
C17   H6    S    
C16   H3    S    
O6    Zn2   S    
C27   N1    A    
C9    C10   A    
C20   H15   S    
C2    C30   A    
O10   Zn2   S    
C21   H18   S    
C8    C30   S    
C23   O3    S    
C24   H21   S    
C22   H20   S    
C18   H8    S    
C19   H11   S    
C7    C8    S    
C9    H26   S    
C17   H7    S    
C12   O5    A    
N1    Zn1   S    
O9    Zn1   S    
N2    Zn2   S    
C28   O10   A    
C26   H30   S    
O1    Zn1   S    
C22   H19   S    
C16   O12   S    
C1    O1    A    
C8    H25   S    
C3    C28   S    
C11   C14   A    
C12   O7    A    
C8    H12   S    
C18   C19   S    
C25   N2    A    
C13   C15   A    
C5    C6    A    
C14   H28   S    
O11   Zn2   S    
C22   C24   S    
O5    Zn1   S    
C10   C11   A    
C7    H23   S    
C23   N2    A    
C24   H24   S    
C18   O2    S    
C29   O9    A    
C3    C5    A    
C20   O3    S    
C5    O12   S    
C10   H27   S    
C29   O11   A    
C20   C21   S    
O7    Zn2   S    
C4    C6    A    
C21   H16   S    
C19   H10   S    
C23   C26   A    
C6    O2    S    
O8    Zn1   S    
C1    O6    A    
C9    C13   A    
C14   C15   A    
C22   O4    S    
C17   H5    S    
C2    C7    S    
C20   H14   S    
C27   H2    S    
C15   H29   S    
C26   N1    A    
C7    H1    S    
C28   O8    A    
C25   O4    S    
C4    C29   S    
C11   C12   S    
C19   H13   S    
C16   C17   S    
C21   H17   S    
C25   C27   A    
C1    C13   S    
