data_mof_unit_67835.cif
_audit_creation_date              2013-03-05T15:41:49-0500
_audit_creation_method            fapswitch 2.2
_symmetry_space_group_name_H-M    P1
_symmetry_Int_Tables_number       1
_space_group_crystal_system       triclinic
_cell_length_a                    8.040329
_cell_length_b                    8.6876
_cell_length_c                    10.646449
_cell_angle_alpha                 93.87688
_cell_angle_beta                  86.159865
_cell_angle_gamma                 93.386596
_cell_volume                      739.187085381

loop_
_atom_site_label
_atom_site_type_symbol
_atom_site_description
_atom_site_fract_x
_atom_site_fract_y
_atom_site_fract_z
_atom_type_partial_charge
O1    O     O_R   0.389250 0.738570 0.508410 -0.643831
O2    O     O_R   0.610750 0.261430 0.491590 -0.657329
O3    O     O_R   0.678390 0.711620 0.486450 -0.630318
O4    O     O_R   0.321610 0.288380 0.513550 -0.583459
C1    C     C_R   0.544286 0.793407 0.496963 0.922600
C2    C     C_R   0.455785 0.206382 0.499800 0.913957
O5    O     O_R   0.355460 0.513510 0.697030 -0.563015
O6    O     O_R   0.644540 0.486490 0.302970 -0.672700
O7    O     O_R   0.644600 0.486560 0.675070 -0.560715
O8    O     O_R   0.355400 0.513440 0.324930 -0.605037
C3    C     C_R   0.502489 0.507014 0.741388 0.902550
C4    C     C_R   0.496067 0.480321 0.257899 0.891071
Zn1   Zn    Zn3+2 0.306940 0.517990 0.514670 1.049682
Zn2   Zn    Zn3+2 0.693060 0.482010 0.485330 0.985350
N1    N     N_2   0.950320 0.457950 0.465730 0.109272
N2    N     N_2   0.049680 0.542050 0.534270 0.197051
C5    C     C_3   0.379450 0.573470 0.974059 0.542628
C6    C     C_3   0.618490 0.389806 0.018259 0.535866
C7    C     C_3   0.525987 0.621623 0.057668 -0.471427
C8    C     C_3   0.473395 0.347499 0.933555 -0.378098
H1    H     H_    0.549369 0.734979 0.109883 0.166217
H2    H     H_    0.445211 0.243444 0.871285 0.194981
C9    C     C_3   0.495853 0.463819 0.119251 -0.193858
C10   C     C_3   0.502917 0.502648 0.876119 -0.191462
C11   C     C_3   0.349566 0.417757 0.034769 0.191934
C12   C     C_3   0.649239 0.544869 0.958277 0.230016
C13   C     C_2   0.565983 0.957610 0.501695 -0.398076
C14   C     C_2   0.435236 0.041970 0.488461 -0.353409
H3    H     H_    0.687816 0.009568 0.522252 0.179034
H4    H     H_    0.314511 0.990085 0.465423 0.165728
O9    O     O_3   0.255274 0.670435 0.943374 -0.604825
C15   C     C_3   0.181758 0.744911 0.053961 0.129646
H5    H     H_    0.097520 0.830425 0.024044 0.205390
H6    H     H_    0.275993 0.813339 0.109526 0.112166
C16   C     C_3   0.080552 0.629192 0.136034 -0.358007
H7    H     H_    0.016267 0.537315 0.077552 0.309722
H8    H     H_    0.164017 0.573909 0.193082 0.255352
C17   C     C_3   0.954084 0.703728 0.226245 -0.926285
H9    H     H_    0.012003 0.807568 0.274983 0.254126
H10   H     H_    0.911334 0.624646 0.298832 0.299330
H11   H     H_    0.845149 0.725865 0.173458 0.293436
O10   O     O_3   0.738847 0.283955 0.041212 -0.646616
C18   C     C_3   0.763426 0.176075 0.935760 0.134772
H12   H     H_    0.891023 0.135095 0.935667 0.209273
H13   H     H_    0.759716 0.231803 0.844690 0.164742
C19   C     C_3   0.640853 0.031847 0.943063 -0.425623
H14   H     H_    0.694752 0.941206 0.992722 0.237215
H15   H     H_    0.522446 0.059801 0.997146 0.256487
C20   C     C_3   0.602530 0.959224 0.812962 -0.897381
H16   H     H_    0.552139 0.044543 0.754981 0.251025
H17   H     H_    0.508287 0.861544 0.823149 0.284524
H18   H     H_    0.716993 0.913948 0.763476 0.283508
Br1   Br    Br    0.175396 0.258866 0.050421 -0.655913
Br2   Br    Br    0.853043 0.634738 0.887903 -0.514027
O11   O     O_3   0.033561 0.351960 0.392918 -0.572169
C21   C     C_3   0.923398 0.277423 0.310581 0.219676
H19   H     H_    0.941754 0.326078 0.218144 0.213530
H20   H     H_    0.795326 0.293483 0.337633 0.209203
C22   C     C_3   0.940726 0.105366 0.306174 -0.361404
H21   H     H_    0.066458 0.076754 0.264647 0.239285
H22   H     H_    0.929499 0.066835 0.403745 0.197934
C23   C     C_3   0.803790 0.023459 0.229927 -0.928609
H23   H     H_    0.700052 0.097207 0.214110 0.287972
H24   H     H_    0.744340 0.925804 0.280622 0.261227
H25   H     H_    0.863008 0.982737 0.138080 0.281144
O12   O     O_3   0.972982 0.644903 0.615407 -0.488084
C24   C     C_3   0.024564 0.795926 0.581596 0.196492
H26   H     H_    0.911583 0.854265 0.562700 0.142500
H27   H     H_    0.104212 0.799943 0.492407 0.099016
C25   C     C_3   0.106594 0.891032 0.690429 -0.348583
H28   H     H_    0.052583 0.855993 0.782719 0.286846
H29   H     H_    0.241747 0.872283 0.687842 0.245237
C26   C     C_3   0.080413 0.063204 0.685415 -0.948816
H30   H     H_    0.106559 0.100655 0.588756 0.283209
H31   H     H_    0.161803 0.132025 0.751145 0.302901
H32   H     H_    0.948536 0.086390 0.711822 0.254252

loop_
_geom_bond_atom_site_label_1
_geom_bond_atom_site_label_2
_geom_bond_distance
_ccdc_geom_bond_type
O11   C21   1.389880 S    
C13   H3    1.083670 S    
C26   H30   1.103294 S    
C16   H7    1.104123 S    
C6    C12   1.529546 S    
O7    Zn2   2.029681 S    
O5    C3    1.307660 A    
C19   C20   1.525637 S    
O1    C1    1.308821 A    
C7    H1    1.110080 S    
C11   Br1   1.914626 S    
C6    O10   1.417395 S    
C17   H9    1.104252 S    
C8    C11   1.537576 S    
N1    N2    1.281226 D    
C3    C10   1.437703 S    
C21   H19   1.094709 S    
O4    Zn1   2.004374 S    
C7    C12   1.545503 S    
C23   H24   1.104089 S    
C1    C13   1.424783 S    
C2    C14   1.426011 S    
C8    C10   1.516982 S    
C20   H17   1.109740 S    
C25   H28   1.101969 S    
O12   C24   1.415128 S    
C22   H21   1.110936 S    
C26   H31   1.110843 S    
O2    C2    1.307459 A    
C12   Br2   1.902523 S    
C19   H15   1.109890 S    
C22   H22   1.109133 S    
C5    C10   1.515941 S    
C6    C9    1.543112 S    
C15   C16   1.537276 S    
C16   C17   1.496190 S    
C17   H11   1.104731 S    
O4    C2    1.322224 A    
C24   H26   1.102365 S    
C24   H27   1.110568 S    
C15   H6    1.112070 S    
C7    C9    1.558546 S    
C18   H12   1.105546 S    
C23   H23   1.109542 S    
C18   H13   1.115531 S    
O9    C15   1.415328 S    
C4    C9    1.473482 S    
O6    C4    1.312974 A    
C20   H18   1.108637 S    
C25   C26   1.527737 S    
O7    C3    1.317055 A    
O3    Zn2   2.004374 S    
O8    C4    1.331850 A    
C8    H2    1.105861 S    
C5    O9    1.411896 S    
C26   H32   1.105243 S    
O1    Zn1   1.994040 S    
O10   C18   1.423989 S    
C19   H14   1.102142 S    
C22   C23   1.525307 S    
O6    Zn2   2.009113 S    
C23   H25   1.103989 S    
C16   H8    1.087202 S    
C10   C12   1.525517 S    
O3    C1    1.320449 A    
O8    Zn1   2.029681 S    
C21   C22   1.506711 S    
C24   C25   1.539078 S    
C5    C11   1.537696 S    
C15   H5    1.110153 S    
C14   H4    1.082031 S    
C17   H10   1.093479 S    
C5    C7    1.545124 S    
C21   H20   1.065174 S    
C6    C8    1.534522 S    
C9    C11   1.545950 S    
O2    Zn2   1.994040 S    
C18   C19   1.550586 S    
O5    Zn1   2.009115 S    
N2    O12   1.346949 S    
C20   H16   1.107000 S    
Zn1   N2    2.086411 S    
C13   C14   1.336767 D    
Zn2   N1    2.086410 S    
C25   H29   1.106542 S    
N1    O11   1.342951 S    
