data_mof_unit_55067.cif
_audit_creation_date              2012-12-11T14:37:39-0500
_audit_creation_method            fapswitch 2.2
_symmetry_space_group_name_H-M    P1
_symmetry_Int_Tables_number       1
_space_group_crystal_system       triclinic
_cell_length_a                    14.473182
_cell_length_b                    15.858631
_cell_length_c                    6.953295
_cell_angle_alpha                 89.999942
_cell_angle_beta                  80.499177
_cell_angle_gamma                 90.0
_cell_volume                      1574.06267788

loop_
_atom_site_label
_atom_site_type_symbol
_atom_type_description
_atom_site_fract_x
_atom_site_fract_y
_atom_site_fract_z
_atom_type_partial_charge
O1    O     O_R   0.337080 0.165770 0.524980 -0.525631
O2    O     O_R   0.662920 0.834230 0.475020 -0.525835
O3    O     O_R   0.662920 0.665770 0.475020 -0.525632
O4    O     O_R   0.337080 0.334230 0.524980 -0.525836
O5    O     O_R   0.348340 0.341430 0.191390 -0.554918
O6    O     O_R   0.651660 0.658570 0.808610 -0.554756
O7    O     O_R   0.651660 0.841430 0.808610 -0.554917
O8    O     O_R   0.348340 0.158570 0.191390 -0.554754
O9    O     O_R   0.165780 0.339950 0.082750 -0.542511
O10   O     O_R   0.834220 0.660050 0.917250 -0.544306
O11   O     O_R   0.834220 0.839950 0.917250 -0.542510
O12   O     O_R   0.165780 0.160050 0.082750 -0.544305
C1    C     C_R   0.370118 0.364596 0.355660 0.724137
C2    C     C_R   0.629879 0.635404 0.644341 0.720919
C3    C     C_R   0.629882 0.864596 0.644339 0.724130
C4    C     C_R   0.370121 0.135404 0.355659 0.720916
H1    H     H_    0.437268 0.489090 0.826236 0.169761
H2    H     H_    0.564297 0.509271 0.174187 0.167867
H3    H     H_    0.562710 0.989087 0.173751 0.169748
H4    H     H_    0.435722 0.009270 0.825822 0.167856
O13   O     O_3   0.191540 0.250000 0.407620 -0.371112
O14   O     O_3   0.808460 0.750000 0.592380 -0.371112
V1    V     V_3+5 0.262540 0.250000 0.108780 1.533469
V2    V     V_3+5 0.737460 0.750000 0.891220 1.533468
O15   O     O_R   0.154530 0.164290 0.756910 -0.527325
O16   O     O_R   0.845470 0.835710 0.243090 -0.525812
O17   O     O_R   0.845470 0.664290 0.243090 -0.527323
O18   O     O_R   0.154530 0.335710 0.756910 -0.525809
C5    C     C_R   0.132017 0.133603 0.932492 0.777821
C6    C     C_R   0.868010 0.866376 0.067484 0.779319
C7    C     C_R   0.867982 0.633603 0.067508 0.777814
C8    C     C_R   0.131991 0.366376 0.932515 0.779310
H5    H     H_    0.578123 0.426962 0.476688 0.204515
H6    H     H_    0.423530 0.571418 0.523863 0.212209
H7    H     H_    0.421880 0.926956 0.523338 0.204506
H8    H     H_    0.576463 0.071421 0.476108 0.212204
V3    V     V_3+5 0.240320 0.250000 0.616280 1.582695
V4    V     V_3+5 0.759680 0.750000 0.383720 1.582693
O19   O     O_3   0.311330 0.250000 0.867310 -0.383365
O20   O     O_3   0.688670 0.750000 0.132690 -0.383365
C9    C     C_3   0.028496 0.478535 0.168401 -0.215887
C10   C     C_3   0.971422 0.521398 0.831730 -0.246456
C11   C     C_3   0.971508 0.978532 0.831596 -0.215878
C12   C     C_3   0.028574 0.021402 0.168273 -0.246452
C13   C     C_3   0.040419 0.567257 0.071722 -0.241939
C14   C     C_3   0.959505 0.432681 0.928406 -0.214400
C15   C     C_3   0.959582 0.067255 0.928267 -0.241938
C16   C     C_3   0.040494 0.932683 0.071605 -0.214400
H9    H     H_    0.074177 0.622619 0.129001 0.176461
H10   H     H_    0.925736 0.377322 0.871138 0.179282
H11   H     H_    0.925825 0.122616 0.870981 0.176458
H12   H     H_    0.074262 0.877325 0.128881 0.179286
H13   H     H_    0.050275 0.460376 0.308440 0.196657
H14   H     H_    0.949571 0.539527 0.691747 0.189302
H15   H     H_    0.949733 0.960370 0.691555 0.196651
H16   H     H_    0.050421 0.039533 0.308257 0.189298
C17   C     C_3   0.938440 0.562988 0.033147 -0.191830
C18   C     C_3   0.061492 0.436957 0.966953 -0.179940
C19   C     C_3   0.061559 0.062989 0.966854 -0.191832
C20   C     C_3   0.938509 0.936956 0.033046 -0.179944
C21   C     C_3   0.927005 0.475442 0.127691 0.534234
C22   C     C_3   0.072918 0.524504 0.872428 0.483096
C23   C     C_3   0.072998 0.975441 0.872317 0.534234
C24   C     C_3   0.927079 0.024505 0.127563 0.483092
C25   C     C_2   0.508561 0.546290 0.257832 -0.106536
C26   C     C_2   0.493039 0.452080 0.742657 -0.114606
C27   C     C_2   0.491451 0.046292 0.742160 -0.106523
C28   C     C_2   0.506946 0.952075 0.257348 -0.114598
C29   C     C_2   0.479487 0.532466 0.447398 -0.184548
C30   C     C_2   0.522156 0.465913 0.553110 -0.192897
C31   C     C_2   0.520513 0.032466 0.552590 -0.184534
C32   C     C_2   0.477841 0.965909 0.446898 -0.192882
S1    S     S_3+6 0.829283 0.441499 0.300282 -0.027411
O21   O     O_2   0.813234 0.502025 0.468737 -0.369325
O22   O     O_2   0.743856 0.438451 0.203641 -0.357896
O23   O     O_3   0.851411 0.344976 0.381264 -0.484777
H17   H     H_    0.796926 0.331858 0.482988 0.385687
S2    S     S_3+6 0.170684 0.558524 0.699826 -0.002700
O24   O     O_2   0.256172 0.560801 0.796284 -0.333642
O25   O     O_2   0.187133 0.498672 0.530120 -0.362412
O26   O     O_3   0.149958 0.655598 0.620082 -0.463635
H18   H     H_    0.094572 0.649081 0.554549 0.328961
S3    S     S_3+6 0.170725 0.941498 0.699739 -0.027407
O27   O     O_2   0.186765 0.002014 0.531263 -0.369318
O28   O     O_2   0.256151 0.938470 0.796382 -0.357904
O29   O     O_3   0.148611 0.844966 0.618792 -0.484759
H19   H     H_    0.203098 0.831847 0.517076 0.385695
S4    S     S_3+6 0.829309 0.058525 0.300153 -0.002697
O30   O     O_2   0.743821 0.060783 0.203695 -0.333644
O31   O     O_2   0.812869 0.998683 0.469880 -0.362409
O32   O     O_3   0.850022 0.155607 0.379864 -0.463631
H20   H     H_    0.905406 0.149102 0.445406 0.328971

loop_
_geom_bond_atom_site_label_1
_geom_bond_atom_site_label_2
_ccdc_geom_bond_type
C18   C22   S    
O12   C5    A    
S1    O21   D    
C13   C22   S    
H4    C27   S    
C8    C18   S    
O26   H18   S    
C11   C23   S    
C12   C24   S    
H2    C25   S    
O12   V1    S    
C13   C17   S    
H1    C26   S    
C9    C18   S    
S2    O25   D    
C12   C19   S    
O7    V2    S    
O14   V4    S    
O11   V2    S    
O8    V1    S    
C10   C14   S    
O4    C1    A    
C12   H16   S    
O9    C8    A    
O15   V3    S    
O10   C7    A    
C5    C19   S    
O3    V4    S    
C6    C20   S    
C9    C21   S    
C10   C22   S    
O5    C1    A    
H8    C31   S    
O1    V3    S    
O7    C3    A    
O8    C4    A    
C14   C18   S    
S1    O22   D    
C10   C17   S    
C16   C20   S    
O15   C5    A    
C14   C21   S    
O17   C7    A    
O18   C8    A    
O23   H17   S    
O11   C6    A    
C15   C24   S    
S2    O24   D    
O16   V4    S    
C16   C23   S    
C15   H11   S    
C21   S1    S    
C23   S3    S    
O6    C2    A    
O2    V4    S    
S3    O27   D    
O5    V1    S    
S4    O32   S    
C13   H9    S    
C28   C32   D    
O6    V2    S    
H3    C28   S    
O1    C4    A    
S4    O30   D    
O2    C3    A    
H6    C29   S    
C9    H13   S    
O3    C2    A    
H5    C30   S    
C11   C20   S    
C11   H15   S    
S3    O28   D    
S4    O31   D    
H7    C32   S    
O16   C6    A    
O13   V1    S    
S1    O23   S    
O14   V2    S    
O32   H20   S    
C25   C29   D    
O29   H19   S    
C22   S2    S    
O9    V1    S    
C17   C21   S    
C14   H10   S    
C19   C23   S    
C20   C24   S    
O10   V2    S    
C7    C17   S    
C31   C32   S    
V3    O19   S    
C10   H14   S    
V4    O20   S    
S2    O26   S    
C26   C30   D    
O18   V3    S    
V1    O19   S    
V2    O20   S    
C27   C31   D    
C29   C30   S    
C15   C19   S    
C16   H12   S    
S3    O29   S    
O13   V3    S    
O4    V3    S    
C9    C13   S    
O17   V4    S    
C11   C15   S    
C24   S4    S    
C12   C16   S    
