data_mof_unit_48514.cif
_audit_creation_date              2012-12-11T14:04:04-0500
_audit_creation_method            fapswitch 2.2
_symmetry_space_group_name_H-M    P1
_symmetry_Int_Tables_number       1
_space_group_crystal_system       triclinic
_cell_length_a                    19.083453
_cell_length_b                    11.030058
_cell_length_c                    18.947035
_cell_angle_alpha                 89.856586
_cell_angle_beta                  88.675707
_cell_angle_gamma                 90.093794
_cell_volume                      3987.10812288

loop_
_atom_site_label
_atom_site_type_symbol
_atom_type_description
_atom_site_fract_x
_atom_site_fract_y
_atom_site_fract_z
_atom_type_partial_charge
C1    C     C_R   0.241750 0.464670 0.648481 0.642715
C2    C     C_R   0.758735 0.465974 0.352332 0.611832
C3    C     C_R   0.742179 0.963586 0.649088 0.647061
C4    C     C_R   0.258810 0.966039 0.352378 0.602965
C5    C     C_2   0.267993 0.808974 0.528817 0.362092
C6    C     C_2   0.735094 0.804076 0.473430 0.334073
C7    C     C_2   0.766093 0.307536 0.528624 0.355599
C8    C     C_2   0.232169 0.307477 0.472549 0.343686
C9    C     C_R   0.963628 0.658768 0.434995 0.002714
C10   C     C_R   0.004489 0.663329 0.574589 0.011763
C11   C     C_R   0.484641 0.160945 0.429090 0.005047
C12   C     C_R   0.512840 0.165729 0.571448 0.014525
C13   C     C_R   0.001939 0.880041 0.433100 0.400182
C14   C     C_R   0.974498 0.883895 0.578319 0.379066
C15   C     C_R   0.520348 0.381098 0.425013 0.388386
C16   C     C_R   0.490643 0.390383 0.570042 0.387616
C17   C     C_R   0.004145 0.988757 0.470155 -0.143726
C18   C     C_R   0.984603 0.992271 0.541387 -0.138160
C19   C     C_R   0.521845 0.491463 0.460590 -0.143276
C20   C     C_R   0.502349 0.497060 0.531806 -0.138092
C21   C     C_R   0.982929 0.772375 0.542461 -0.051266
C22   C     C_R   0.980573 0.771735 0.468194 -0.047692
C23   C     C_R   0.499129 0.276782 0.536299 -0.047519
C24   C     C_R   0.501018 0.273668 0.461815 -0.045003
C25   C     C_R   0.011004 0.558744 0.532587 -0.027494
C26   C     C_R   0.970977 0.549593 0.474229 -0.034369
C27   C     C_R   0.519130 0.059922 0.530904 -0.026359
C28   C     C_R   0.483343 0.053173 0.470451 -0.031787
C29   C     C_R   0.060889 0.467284 0.541889 0.403452
C30   C     C_R   0.952778 0.429735 0.454393 0.392029
C31   C     C_R   0.566927 0.966527 0.542153 0.402178
C32   C     C_R   0.460577 0.934960 0.452077 0.400130
C33   C     C_R   0.047133 0.349486 0.519739 -0.138466
C34   C     C_R   0.987918 0.330136 0.480862 -0.121453
C35   C     C_R   0.552745 0.849445 0.518385 -0.140492
C36   C     C_R   0.493903 0.832797 0.478228 -0.127400
C37   C     C_2   0.254527 0.928960 0.912618 -0.096991
C38   C     C_2   0.745176 0.924520 0.083195 -0.050293
C39   C     C_2   0.754543 0.423496 0.917102 -0.049894
C40   C     C_2   0.245152 0.428811 0.083986 -0.031238
C41   C     C_2   0.242406 0.888858 0.093947 0.291896
C42   C     C_2   0.748304 0.926253 0.923004 0.247050
C43   C     C_2   0.751393 0.426324 0.077157 0.252476
C44   C     C_2   0.244043 0.433794 0.926094 0.236382
C45   C     C_R   0.226368 0.870332 0.646058 0.562232
C46   C     C_R   0.774420 0.868331 0.354862 0.550201
C47   C     C_R   0.726369 0.370355 0.646092 0.564437
C48   C     C_R   0.274058 0.369162 0.354509 0.554538
C49   C     C_2   0.247917 0.956076 0.035830 -0.097335
C50   C     C_2   0.753954 0.017396 0.969900 -0.124712
C51   C     C_2   0.745692 0.517410 0.029969 -0.121872
C52   C     C_2   0.258387 0.525778 0.970662 -0.097484
C53   C     C_2   0.215326 0.920120 0.971078 0.256799
C54   C     C_2   0.782194 0.997757 0.040436 0.282087
C55   C     C_2   0.717847 0.497777 0.959250 0.281400
C56   C     C_2   0.282197 0.506455 0.043457 0.298287
C57   C     C_2   0.010980 0.655062 0.926675 -0.079867
C58   C     C_2   0.009022 0.664354 0.082692 -0.087980
C59   C     C_2   0.511511 0.155376 0.926858 -0.088607
C60   C     C_2   0.509720 0.164511 0.082880 -0.116083
C61   C     C_2   0.024482 0.565642 0.045042 -0.156746
C62   C     C_2   0.039114 0.571352 0.969514 -0.126717
C63   C     C_2   0.524304 0.065505 0.045076 -0.177351
C64   C     C_2   0.539002 0.070902 0.969581 -0.159379
C65   C     C_R   0.030987 0.655318 0.645540 0.630988
C66   C     C_R   0.942067 0.651288 0.362087 0.610008
C67   C     C_R   0.532840 0.155685 0.644489 0.625060
C68   C     C_R   0.465225 0.154097 0.356315 0.617768
C69   C     C_R   0.237580 0.468992 0.851985 0.536894
C70   C     C_R   0.761271 0.466238 0.149596 0.525960
C71   C     C_R   0.738667 0.966066 0.850452 0.521220
C72   C     C_R   0.258102 0.955597 0.157053 0.504643
C73   C     C_R   0.228865 0.877622 0.849127 0.568202
C74   C     C_R   0.772462 0.874111 0.147820 0.554311
C75   C     C_R   0.727486 0.373793 0.852255 0.548154
C76   C     C_R   0.272200 0.375323 0.148211 0.549542
C77   C     C_R   0.031774 0.651379 0.852607 0.548237
C78   C     C_R   0.971858 0.652769 0.149886 0.544890
C79   C     C_R   0.531997 0.151391 0.852718 0.547821
C80   C     C_R   0.471959 0.152839 0.149891 0.550920
C81   C     C_2   0.245291 0.898408 0.572814 -0.065773
C82   C     C_2   0.756864 0.894274 0.429014 -0.053381
C83   C     C_2   0.745123 0.397924 0.572792 -0.072951
C84   C     C_2   0.255785 0.396427 0.428244 -0.050089
C85   C     C_2   0.238166 0.909395 0.419266 -0.093250
C86   C     C_2   0.764818 0.904354 0.583394 -0.061234
C87   C     C_2   0.737907 0.410187 0.419418 -0.091141
C88   C     C_2   0.263470 0.406023 0.582496 -0.069294
C89   C     C_2   0.276224 0.826968 0.452247 -0.078507
C90   C     C_2   0.727220 0.821406 0.550499 -0.086647
C91   C     C_2   0.774472 0.325413 0.452070 -0.084592
C92   C     C_2   0.224360 0.325449 0.549443 -0.084661
Cr1   Cr    Cr6+3 0.113970 0.508630 0.747920 1.041440
Cr2   Cr    Cr6+3 0.886030 0.508630 0.252080 1.086746
Cr3   Cr    Cr6+3 0.613970 0.008630 0.747920 1.060230
Cr4   Cr    Cr6+3 0.386030 0.008630 0.252080 1.077627
Cr5   Cr    Cr6+3 0.269200 0.666740 0.749850 1.092883
Cr6   Cr    Cr6+3 0.730800 0.666740 0.250150 1.068788
Cr7   Cr    Cr6+3 0.769200 0.166740 0.749850 1.075154
Cr8   Cr    Cr6+3 0.230800 0.166740 0.250150 1.081796
Cr9   Cr    Cr6+3 0.112300 0.820070 0.749800 1.098066
Cr10  Cr    Cr6+3 0.887700 0.820070 0.250200 1.099424
Cr11  Cr    Cr6+3 0.612300 0.320070 0.749800 1.118567
Cr12  Cr    Cr6+3 0.387700 0.320070 0.250200 1.104045
H1    H     H_    0.314883 0.773366 0.423408 0.199015
H2    H     H_    0.687251 0.771355 0.579826 0.140599
H3    H     H_    0.811594 0.269175 0.422954 0.202417
H4    H     H_    0.183689 0.277071 0.578723 0.142841
H5    H     H_    0.308779 0.959314 0.913956 0.047759
H6    H     H_    0.695413 0.888091 0.065695 0.063821
H7    H     H_    0.803788 0.386015 0.935174 0.071579
H8    H     H_    0.196204 0.391612 0.065031 0.088874
H9    H     H_    0.022513 0.475963 0.068882 0.146683
H10   H     H_    0.071549 0.498633 0.948114 0.146072
H11   H     H_    0.521153 0.975698 0.068659 0.151614
H12   H     H_    0.570599 0.997174 0.948099 0.155624
H13   H     H_    0.014197 0.754040 0.059833 0.116652
H14   H     H_    0.978737 0.729048 0.946475 0.084663
H15   H     H_    0.516481 0.254536 0.060286 0.116328
H16   H     H_    0.480281 0.230485 0.946879 0.111482
H17   H     H_    0.192512 0.948040 0.446187 0.154731
H18   H     H_    0.810827 0.942635 0.556651 0.138911
H19   H     H_    0.693032 0.450861 0.446633 0.152145
H20   H     H_    0.310018 0.442634 0.555909 0.143471
H21   H     H_    0.232260 0.987864 0.553120 0.075535
H22   H     H_    0.770361 0.983273 0.448927 0.100987
H23   H     H_    0.733515 0.488140 0.553341 0.074701
H24   H     H_    0.270326 0.484941 0.448137 0.095558
H25   H     H_    0.023016 0.069128 0.443309 0.155974
H26   H     H_    0.982176 0.078016 0.568987 0.151020
H27   H     H_    0.537419 0.572735 0.432317 0.159100
H28   H     H_    0.498664 0.583859 0.558106 0.149310
H29   H     H_    0.081215 0.274554 0.530908 0.136605
H30   H     H_    0.972473 0.240470 0.465398 0.139597
H31   H     H_    0.585699 0.773191 0.529900 0.135749
H32   H     H_    0.476735 0.743419 0.463305 0.137495
H33   H     H_    0.274632 0.043617 0.036194 0.082564
H34   H     H_    0.746334 0.111043 0.953529 0.124003
H35   H     H_    0.753281 0.611066 0.046143 0.122491
H36   H     H_    0.258131 0.618773 0.951415 0.128879
O1    O     O_R   0.043230 0.549300 0.667990 -0.497629
O2    O     O_R   0.956770 0.549300 0.332010 -0.448721
O3    O     O_R   0.543230 0.049300 0.667990 -0.500706
O4    O     O_R   0.456770 0.049300 0.332010 -0.461923
O5    O     O_R   0.262920 0.788600 0.824420 -0.521630
O6    O     O_R   0.737080 0.788600 0.175580 -0.531583
O7    O     O_R   0.762920 0.288600 0.824420 -0.536760
O8    O     O_R   0.237080 0.288600 0.175580 -0.522011
O9    O     O_R   0.167530 0.905110 0.830340 -0.488331
O10   O     O_R   0.832470 0.905110 0.169660 -0.450198
O11   O     O_R   0.667530 0.405110 0.830340 -0.451644
O12   O     O_R   0.332470 0.405110 0.169660 -0.453800
O13   O     O_R   0.054010 0.748440 0.822860 -0.472482
O14   O     O_R   0.945990 0.748440 0.177140 -0.489379
O15   O     O_R   0.554010 0.248440 0.822860 -0.482997
O16   O     O_R   0.445990 0.248440 0.177140 -0.486483
O17   O     O_3   0.165160 0.665150 0.749190 -0.272020
O18   O     O_3   0.834840 0.665150 0.250810 -0.305677
O19   O     O_3   0.665160 0.165150 0.749190 -0.280071
O20   O     O_3   0.334840 0.165150 0.250810 -0.285160
O21   O     O_R   0.178620 0.457600 0.674100 -0.448273
O22   O     O_R   0.821380 0.457600 0.325900 -0.434578
O23   O     O_R   0.678620 0.957600 0.674100 -0.445338
O24   O     O_R   0.321380 0.957600 0.325900 -0.432147
O25   O     O_R   0.284680 0.542100 0.669460 -0.436888
O26   O     O_R   0.715320 0.542100 0.330540 -0.444586
O27   O     O_R   0.784680 0.042100 0.669460 -0.438925
O28   O     O_R   0.215320 0.042100 0.330540 -0.449213
O29   O     O_R   0.262860 0.790390 0.676650 -0.437762
O30   O     O_R   0.737140 0.790390 0.323350 -0.438718
O31   O     O_R   0.762860 0.290390 0.676650 -0.438238
O32   O     O_R   0.237140 0.290390 0.323350 -0.436357
O33   O     O_R   0.167460 0.907030 0.670940 -0.526037
O34   O     O_R   0.832540 0.907030 0.329060 -0.527056
O35   O     O_R   0.667460 0.407030 0.670940 -0.517389
O36   O     O_R   0.332540 0.407030 0.329060 -0.525682
O37   O     O_R   0.053950 0.750220 0.675100 -0.433334
O38   O     O_R   0.946050 0.750220 0.324900 -0.434695
O39   O     O_R   0.553950 0.250220 0.675100 -0.430321
O40   O     O_R   0.446050 0.250220 0.324900 -0.444573
O41   O     O_R   0.043300 0.547370 0.827390 -0.534561
O42   O     O_R   0.956700 0.547370 0.172610 -0.515266
O43   O     O_R   0.543300 0.047370 0.827390 -0.523164
O44   O     O_R   0.456700 0.047370 0.172610 -0.517361
O45   O     O_R   0.178690 0.455820 0.821860 -0.539431
O46   O     O_R   0.821310 0.455820 0.178140 -0.503436
O47   O     O_R   0.678690 0.955820 0.821860 -0.517591
O48   O     O_R   0.321310 0.955820 0.178140 -0.519131
O49   O     O_R   0.284750 0.540170 0.828860 -0.531654
O50   O     O_R   0.715250 0.540170 0.171140 -0.543172
O51   O     O_R   0.784750 0.040170 0.828860 -0.545124
O52   O     O_R   0.215250 0.040170 0.171140 -0.533206
O53   O     O_3   0.148905 0.867516 0.970250 -0.506525
C93   C     C_3   0.099571 0.944818 0.003797 -0.077543
H37   H     H_    0.106669 0.041506 0.988356 0.083361
H38   H     H_    0.101338 0.934994 0.062080 0.152985
H39   H     H_    0.046422 0.918561 0.987011 0.117875
O54   O     O_3   0.842519 0.054982 0.064499 -0.526825
C94   C     C_3   0.885462 0.100159 0.008776 -0.089586
H40   H     H_    0.860965 0.180251 0.983651 0.141086
H41   H     H_    0.897798 0.028580 0.969078 0.115413
H42   H     H_    0.935853 0.130564 0.030860 0.127137
O55   O     O_3   0.658430 0.556520 0.934238 -0.526077
C95   C     C_3   0.615947 0.605024 0.989145 -0.086747
H43   H     H_    0.641446 0.685068 0.013195 0.138290
H44   H     H_    0.602472 0.535248 0.029825 0.122786
H45   H     H_    0.566085 0.636520 0.966432 0.127241
O56   O     O_3   0.339447 0.567207 0.071915 -0.533867
C96   C     C_3   0.381830 0.626367 0.020428 -0.099157
H46   H     H_    0.355135 0.708349 0.000051 0.128446
H47   H     H_    0.397619 0.564028 0.976791 0.123747
H48   H     H_    0.430555 0.657319 0.045689 0.129761
O57   O     O_3   0.210656 0.774539 0.092441 -0.553458
C97   C     C_3   0.201945 0.723470 0.160409 -0.094942
H49   H     H_    0.166576 0.779946 0.194234 0.126987
H50   H     H_    0.253436 0.709739 0.185585 0.141387
H51   H     H_    0.176707 0.633385 0.155319 0.137042
O58   O     O_3   0.763104 0.807142 0.942426 -0.596228
C98   C     C_3   0.799613 0.745470 0.887751 -0.101123
H52   H     H_    0.821941 0.661054 0.909600 0.124349
H53   H     H_    0.844705 0.799527 0.866355 0.117020
H54   H     H_    0.763427 0.720194 0.845035 0.150080
O59   O     O_3   0.736830 0.307034 0.058062 -0.595205
C99   C     C_3   0.701326 0.244350 0.113252 -0.096082
H55   H     H_    0.656294 0.297428 0.135242 0.120804
H56   H     H_    0.738212 0.219429 0.155451 0.151779
H57   H     H_    0.679038 0.159713 0.091749 0.132022
O60   O     O_3   0.247229 0.313812 0.948658 -0.606362
C100  C     C_3   0.202365 0.239778 0.909460 -0.119438
H58   H     H_    0.224300 0.223869 0.855408 0.134073
H59   H     H_    0.148269 0.277285 0.908031 0.120613
H60   H     H_    0.198201 0.151501 0.936240 0.132871
F1    F     F_    0.284731 0.697585 0.554013 -0.613788
F2    F     F_    0.717606 0.693444 0.447979 -0.650159
F3    F     F_    0.780755 0.195143 0.553655 -0.613258
F4    F     F_    0.213174 0.197423 0.447258 -0.640097
F5    F     F_    0.034099 0.879351 0.368500 -0.611037
F6    F     F_    0.955521 0.888926 0.647709 -0.631456
F7    F     F_    0.545244 0.378954 0.357352 -0.623447
F8    F     F_    0.467319 0.399818 0.637980 -0.620856
F9    F     F_    0.902505 0.405262 0.410080 -0.647001
F10   F     F_    0.125082 0.500319 0.561489 -0.627610
F11   F     F_    0.403432 0.916559 0.415220 -0.639625
F12   F     F_    0.631235 0.999474 0.560514 -0.629750

loop_
_geom_bond_atom_site_label_1
_geom_bond_atom_site_label_2
_ccdc_geom_bond_type
C84   H24   S    
C7    C83   D    
O55   C95   S    
C49   C53   S    
Cr3   O3    S    
C59   H16   S    
C6    C82   D    
Cr7   O19   S    
Cr8   O32   S    
C53   O53   S    
C14   C18   A    
C5    C89   S    
Cr9   O33   S    
C35   C36   A    
Cr6   O30   S    
Cr6   O50   S    
C67   O3    A    
C99   H55   S    
Cr10  O18   S    
C95   H44   S    
C3    O27   A    
C57   C62   D    
Cr12  O36   S    
O57   C97   S    
C15   C19   A    
C66   O38   A    
C12   C23   A    
C59   C64   D    
C50   C54   S    
C60   C63   D    
Cr3   O19   S    
C32   C36   A    
C14   C21   A    
C16   C20   A    
Cr12  O20   S    
C62   H10   S    
C100  H60   S    
C87   C91   D    
C97   H50   S    
C9    C22   A    
C93   H39   S    
Cr7   O31   S    
C4    O24   A    
C34   H30   S    
C93   H38   S    
C15   F7    S    
C11   C24   A    
C96   H48   S    
C65   O1    A    
C60   H15   S    
C17   C18   A    
C99   H56   S    
Cr4   O48   S    
C9    C66   S    
C82   H22   S    
C37   C73   S    
C77   O13   A    
C46   C82   S    
Cr1   O41   S    
C92   H4    S    
C39   C55   D    
Cr6   O18   S    
C29   C33   A    
C75   O11   A    
O56   C96   S    
C40   C56   D    
C30   F9    S    
C38   C54   D    
C86   H18   S    
C94   H42   S    
C77   O41   A    
C23   C24   A    
C46   O34   A    
C85   H17   S    
O54   C94   S    
C8    C92   S    
C39   C75   S    
C38   H6    S    
C2    O26   A    
C37   H5    S    
Cr11  O11   S    
C37   C53   D    
C44   C52   D    
C58   C61   D    
C39   H7    S    
C93   H37   S    
C6    F2    S    
Cr9   O17   S    
C94   H40   S    
Cr2   O18   S    
C48   O32   A    
C21   C22   A    
C3    C86   S    
C25   C29   A    
C2    O22   A    
Cr8   O52   S    
Cr4   O44   S    
C36   H32   S    
C41   C49   D    
O60   C100  S    
C9    C26   A    
C96   H46   S    
Cr7   O27   S    
Cr11  O19   S    
C10   C21   A    
C19   H27   S    
C12   C67   S    
C7    F3    S    
C30   C34   A    
C12   C27   A    
Cr3   O47   S    
Cr2   O2    S    
C88   C92   D    
C31   F12   S    
C28   C32   A    
C90   H2    S    
O59   C99   S    
C40   H8    S    
C86   C90   D    
C59   C79   S    
C98   H52   S    
C14   F6    S    
C85   C89   D    
C97   H49   S    
C78   O14   A    
C35   H31   S    
C13   F5    S    
C4    C85   S    
Cr6   O6    S    
C75   O7    A    
C25   C26   A    
C6    C90   S    
Cr11  O39   S    
C27   C31   A    
C64   H12   S    
C68   O40   A    
C58   H13   S    
Cr4   O24   S    
C73   O5    A    
C78   O42   A    
Cr5   O17   S    
C20   H28   S    
C87   H19   S    
C43   O59   S    
C100  H58   S    
C57   C77   S    
C98   H53   S    
C5    C81   D    
Cr8   O20   S    
Cr8   O8    S    
C56   O56   S    
C95   H45   S    
Cr9   O13   S    
C29   F10   S    
C7    C91   S    
Cr11  O35   S    
C33   C34   A    
C2    C87   S    
C76   O12   A    
Cr12  O16   S    
Cr1   O17   S    
C44   O60   S    
C16   F8    S    
Cr6   O26   S    
C46   O30   A    
C73   O9    A    
Cr10  O10   S    
C41   C72   S    
C8    F4    S    
C10   C25   A    
Cr11  O15   S    
C15   C24   A    
Cr4   O20   S    
C42   C50   D    
Cr1   O21   S    
C26   C30   A    
C16   C23   A    
C47   C83   S    
C32   F11   S    
C72   O48   A    
Cr10  O38   S    
C31   C35   A    
C18   H26   S    
Cr10  O34   S    
C69   O49   A    
C99   H57   S    
C69   O45   A    
C80   O16   A    
Cr1   O1    S    
C11   C68   S    
C70   O50   A    
C49   H33   S    
C38   C74   S    
C10   C65   S    
Cr7   O7    S    
C60   C80   S    
Cr3   O43   S    
C81   H21   S    
C1    O25   A    
C8    C84   D    
C4    O28   A    
Cr5   O5    S    
C74   O6    A    
C33   H29   S    
C45   C81   S    
C55   O55   S    
Cr2   O46   S    
C71   O47   A    
C63   C64   S    
C42   O58   S    
C97   H51   S    
C45   O29   A    
C47   O31   A    
C50   H34   S    
C66   O2    A    
C3    O23   A    
C43   C70   S    
C79   O15   A    
C54   O54   S    
C13   C17   A    
Cr3   O23   S    
Cr8   O28   S    
Cr5   O49   S    
Cr12  O12   S    
C19   C20   A    
Cr5   O29   S    
C63   H11   S    
C100  H59   S    
C67   O39   A    
Cr10  O14   S    
C98   H54   S    
Cr7   O51   S    
C43   C51   D    
O58   C98   S    
Cr12  O40   S    
C65   O37   A    
C11   C28   A    
C1    C88   S    
Cr5   O25   S    
Cr9   O9    S    
C42   C71   S    
C96   H47   S    
C79   O43   A    
C13   C22   A    
C68   O4    A    
C51   C55   S    
C80   O44   A    
C88   H20   S    
C61   C62   S    
C83   H23   S    
Cr9   O37   S    
C41   O57   S    
C58   C78   S    
C61   H9    S    
C1    O21   A    
Cr4   O4    S    
C52   H36   S    
C48   C84   S    
C45   O33   A    
C95   H43   S    
C76   O8    A    
O53   C93   S    
C40   C76   S    
C89   H1    S    
C27   C28   A    
C94   H41   S    
C44   C69   S    
C74   O10   A    
C5    F1    S    
Cr2   O42   S    
C71   O51   A    
C70   O46   A    
C72   O52   A    
C17   H25   S    
C47   O35   A    
Cr2   O22   S    
C52   C56   S    
C51   H35   S    
C57   H14   S    
C48   O36   A    
C91   H3    S    
Cr1   O45   S    
