data_mof_unit_7655.cif
_audit_creation_date              2013-03-05T16:48:30-0500
_audit_creation_method            fapswitch 2.2
_symmetry_space_group_name_H-M    P1
_symmetry_Int_Tables_number       1
_space_group_crystal_system       triclinic
_cell_length_a                    10.791633
_cell_length_b                    14.836942
_cell_length_c                    15.018577
_cell_angle_alpha                 63.802965
_cell_angle_beta                  105.696405
_cell_angle_gamma                 102.856037
_cell_volume                      2062.38679107

loop_
_atom_site_label
_atom_site_type_symbol
_atom_site_description
_atom_site_fract_x
_atom_site_fract_y
_atom_site_fract_z
_atom_type_partial_charge
O1    O     O_R   0.455540 0.022090 0.338120 -0.559447
O2    O     O_R   0.544460 0.977910 0.661880 -0.556658
O3    O     O_R   0.512510 0.160150 0.379180 -0.534867
O4    O     O_R   0.487490 0.839850 0.620820 -0.536042
C1    C     C_R   0.475723 0.119641 0.312896 0.818753
C2    C     C_R   0.522346 0.880325 0.687128 0.826072
O5    O     O_R   0.291160 0.930970 0.479480 -0.554539
O6    O     O_R   0.708840 0.069030 0.520520 -0.553286
O7    O     O_R   0.348130 0.069020 0.520540 -0.548172
O8    O     O_R   0.651870 0.930980 0.479460 -0.546968
C3    C     C_R   0.263130 0.998773 0.501859 0.800203
C4    C     C_R   0.736805 0.001266 0.497983 0.803242
Cu1   Cu    Cu3+1 0.466270 0.918260 0.475690 1.061127
Cu2   Cu    Cu3+1 0.533730 0.081740 0.524310 1.063074
H1    H     H_    0.480697 0.159649 0.812712 0.158410
H2    H     H_    0.519582 0.836213 0.189044 0.160779
C5    C     C_R   0.370660 0.030494 0.786421 -0.087241
C6    C     C_R   0.623006 0.965630 0.217769 -0.082376
H3    H     H_    0.427418 0.976419 0.851135 0.144836
H4    H     H_    0.561309 0.018335 0.156053 0.146945
C7    C     C_R   0.268842 0.997207 0.723389 -0.116099
C8    C     C_R   0.724855 0.000035 0.279889 -0.108145
H5    H     H_    0.248456 0.917312 0.739226 0.124678
H6    H     H_    0.740387 0.079368 0.266255 0.117104
C9    C     C_R   0.195953 0.067342 0.638666 0.112853
C10   C     C_R   0.803627 0.931544 0.361324 0.114781
C11   C     C_R   0.224993 0.170668 0.618464 -0.079296
C12   C     C_R   0.781348 0.828905 0.378121 -0.089424
H7    H     H_    0.170743 0.225698 0.552679 0.159039
H8    H     H_    0.840599 0.775046 0.440965 0.159905
C13   C     C_R   0.327940 0.203653 0.680830 -0.079751
C14   C     C_R   0.679135 0.794816 0.316022 -0.081112
H9    H     H_    0.352240 0.283659 0.663265 0.176178
H10   H     H_    0.660905 0.715363 0.330195 0.170443
C15   C     C_R   0.400703 0.133741 0.764786 -0.059919
C16   C     C_R   0.599431 0.862969 0.236408 -0.051712
C17   C     C_R   0.967543 0.037214 0.560315 -0.170662
C18   C     C_R   0.032262 0.962529 0.439368 -0.173899
H11   H     H_    0.942478 0.064024 0.608980 0.205413
H12   H     H_    0.057475 0.935716 0.390768 0.203929
C19   C     C_R   0.870525 0.002569 0.495589 -0.072835
C20   C     C_R   0.129255 0.997370 0.503989 -0.071185
C21   C     C_R   0.902734 0.965611 0.433618 -0.000046
C22   C     C_R   0.096921 0.033927 0.566111 -0.003543
C23   C     C_R   0.447801 0.187049 0.205563 -0.126654
C24   C     C_R   0.546291 0.812096 0.794450 -0.128985
C25   C     C_R   0.306816 0.225697 0.040852 0.348610
C26   C     C_R   0.670603 0.773237 0.964641 0.355070
C27   C     C_R   0.350692 0.156373 0.138654 -0.240547
C28   C     C_R   0.631955 0.843449 0.865966 -0.242559
C29   C     C_R   0.506522 0.286285 0.173655 -0.140503
C30   C     C_R   0.489117 0.712450 0.823573 -0.133714
C31   C     C_R   0.471013 0.357885 0.074147 0.044417
C32   C     C_R   0.531458 0.637598 0.919650 0.050506
C33   C     C_R   0.370363 0.326780 0.005735 -0.085028
C34   C     C_R   0.630680 0.668060 0.989196 -0.081949
C35   C     C_R   0.529308 0.460536 0.043245 0.038705
C36   C     C_R   0.480460 0.533445 0.946800 0.039856
C37   C     C_R   0.386025 0.499281 0.878987 -0.193968
C38   C     C_R   0.638307 0.491602 0.104690 -0.198432
C39   C     C_R   0.336120 0.397947 0.905277 0.337784
C40   C     C_R   0.690176 0.592569 0.078469 0.332813
H13   H     H_    0.414282 0.696090 0.767235 0.170532
H14   H     H_    0.576385 0.306212 0.230301 0.182091
H15   H     H_    0.669155 0.922666 0.845021 0.228614
H16   H     H_    0.300166 0.080405 0.165441 0.233266
H17   H     H_    0.352455 0.548420 0.801814 0.197724
H18   H     H_    0.692139 0.437967 0.171197 0.181417
N1    N     N_R   0.584450 0.204570 0.560790 -0.283624
N2    N     N_R   0.415550 0.795430 0.439210 -0.283802
C41   C     C_R   0.729355 0.285361 0.662029 -0.280722
C42   C     C_R   0.272529 0.715052 0.336968 -0.283570
C43   C     C_R   0.684493 0.201067 0.639283 0.726479
C44   C     C_R   0.315797 0.798878 0.360577 0.726671
C45   C     C_R   0.520791 0.289452 0.505259 0.377454
C46   C     C_R   0.480760 0.711239 0.494019 0.381794
C47   C     C_R   0.550534 0.371737 0.535641 -0.139256
C48   C     C_R   0.451955 0.629213 0.463320 -0.135510
C49   C     C_R   0.664634 0.372322 0.609407 -0.108631
C50   C     C_R   0.338154 0.628583 0.389295 -0.111002
C51   C     C_R   0.475634 0.455750 0.491358 0.052314
C52   C     C_R   0.527174 0.545299 0.507562 0.053866
C53   C     C_R   0.653895 0.549166 0.564620 -0.185659
C54   C     C_R   0.349157 0.451954 0.434017 -0.183444
C55   C     C_R   0.717132 0.462652 0.622402 0.384202
C56   C     C_R   0.286539 0.538549 0.375693 0.383234
H19   H     H_    0.816292 0.282099 0.719184 0.251090
H20   H     H_    0.185885 0.718036 0.279558 0.249273
H21   H     H_    0.706211 0.619330 0.565753 0.201354
H22   H     H_    0.296767 0.381939 0.432607 0.199352
N3    N     N_R   0.187924 0.194983 0.984568 0.167030
O9    O     O_R   0.169555 0.106386 0.981978 -0.280978
O10   O     O_R   0.089310 0.245522 0.954315 -0.257296
N4    N     N_R   0.743491 0.810619 0.039408 0.153504
O11   O     O_R   0.826322 0.891820 0.014516 -0.267697
O12   O     O_R   0.711684 0.773934 0.127480 -0.350852
N5    N     N_R   0.837874 0.469818 0.690321 0.146027
O13   O     O_R   0.924457 0.547637 0.661019 -0.306086
O14   O     O_R   0.850579 0.410335 0.786098 -0.283880
N6    N     N_R   0.167978 0.532178 0.305535 0.147894
O15   O     O_R   0.080291 0.454729 0.332722 -0.301833
O16   O     O_R   0.159901 0.591146 0.209915 -0.277029
N7    N     N_R   0.555738 0.696359 0.593146 0.133428
O17   O     O_R   0.520387 0.619578 0.671439 -0.372621
O18   O     O_R   0.668183 0.748486 0.605052 -0.350117
N8    N     N_R   0.446546 0.304505 0.405898 0.132255
O19   O     O_R   0.334156 0.252435 0.393525 -0.353332
O20   O     O_R   0.482960 0.380912 0.327744 -0.358644
F1    F     F_    0.251454 0.881546 0.309158 -0.642436
F2    F     F_    0.747889 0.117911 0.691195 -0.636281
N9    N     N_R   0.259144 0.368377 0.826044 0.162745
O21   O     O_R   0.173714 0.424682 0.756202 -0.265854
O22   O     O_R   0.290464 0.295715 0.813438 -0.355842
N10   N     N_R   0.812369 0.614697 0.137507 0.175072
O23   O     O_R   0.833550 0.569202 0.235815 -0.277284
O24   O     O_R   0.908940 0.667210 0.093124 -0.251368

loop_
_geom_bond_atom_site_label_1
_geom_bond_atom_site_label_2
_geom_bond_distance
_ccdc_geom_bond_type
C11   H7    1.083064 S    
N9    O21   1.301500 A    
C44   F1    1.354803 S    
C41   C49   1.406823 A    
N5    O13   1.301380 A    
C43   F2    1.354934 S    
C25   C27   1.395042 A    
O5    C3    1.305926 A    
C20   C22   1.411927 A    
O1    C1    1.306162 A    
C14   C16   1.398237 A    
C8    H6    1.083266 S    
C46   C48   1.428225 A    
C18   C20   1.399013 A    
C48   C50   1.417611 A    
N8    O19   1.300104 A    
C23   C29   1.387516 A    
C24   C30   1.388149 A    
C3    C20   1.449053 S    
C38   C40   1.392049 A    
O4    Cu1   1.940710 S    
C50   C56   1.408793 A    
N5    O14   1.301179 A    
N7    O18   1.299882 A    
N2    C44   1.356254 A    
C13   H9    1.081604 S    
N1    C43   1.356544 A    
C47   C51   1.440477 A    
C56   N6    1.435568 S    
C37   H17   1.072572 S    
C46   N7    1.434337 S    
C26   C28   1.396855 A    
Cu1   Cu2   2.727051 S    
C19   C21   1.413577 A    
O2    C2    1.306716 A    
C54   H22   1.072766 S    
O8    C4    1.303010 A    
C9    C22   1.478661 S    
H1    C15   1.082359 S    
C42   H20   1.080820 S    
C30   C32   1.406576 A    
C10   C21   1.481165 S    
N10   O23   1.301496 A    
C31   C33   1.428343 A    
C53   H21   1.073155 S    
C32   C34   1.427598 A    
C37   C39   1.391771 A    
C27   H16   1.083706 S    
C11   C13   1.396713 A    
C12   C14   1.397822 A    
C42   C44   1.389936 A    
N3    O9    1.301450 A    
C41   C43   1.390525 A    
C31   C35   1.427683 A    
C35   C38   1.412307 A    
C36   C37   1.413184 A    
C1    C23   1.461990 S    
C30   H13   1.073029 S    
C51   C52   1.420284 A    
C29   C31   1.406550 A    
C14   H10   1.082398 S    
O7    Cu2   1.957141 S    
C4    C19   1.448838 S    
N3    O10   1.301508 A    
C45   C47   1.428270 A    
C48   C52   1.441530 A    
C23   C27   1.391730 A    
O6    C4    1.306620 A    
N6    O16   1.300863 A    
C47   C49   1.417471 A    
N9    O22   1.299741 A    
N4    O12   1.300200 A    
O7    C3    1.303800 A    
O3    Cu2   1.940710 S    
C26   N4    1.437036 S    
C41   H19   1.080347 S    
O4    C2    1.310974 A    
C53   C55   1.397241 A    
C7    H5    1.083263 S    
N2    C46   1.379514 A    
Cu2   N1    2.048510 S    
C34   C40   1.411637 A    
O1    Cu1   1.948104 S    
C39   N9    1.436118 S    
C49   C55   1.410146 A    
C51   C54   1.407254 A    
C25   C33   1.427355 A    
C32   C36   1.429597 A    
C26   C34   1.426701 A    
C7    C9    1.405083 A    
O6    Cu2   1.958601 S    
C2    C24   1.462856 S    
C6    C8    1.398229 A    
C25   N3    1.435791 S    
C29   H14   1.074899 S    
C54   C56   1.395370 A    
O3    C1    1.310760 A    
O8    Cu1   1.957140 S    
N10   O24   1.301321 A    
C40   N10   1.436861 S    
C9    C11   1.402657 A    
C24   C28   1.391816 A    
C10   C12   1.403999 A    
C17   C22   1.385685 A    
C12   H8    1.083128 S    
C18   C21   1.386742 A    
C17   H11   1.084949 S    
H2    C16   1.082380 S    
C18   H12   1.084927 S    
C35   C36   1.415383 A    
N8    O20   1.301453 A    
C33   C39   1.411806 A    
C13   C15   1.397991 A    
N6    O15   1.301352 A    
C5    H3    1.082397 S    
N1    C45   1.378837 A    
C6    H4    1.082467 S    
C17   C19   1.398704 A    
N4    O11   1.301610 A    
O2    Cu2   1.948104 S    
C28   H15   1.083265 S    
C5    C7    1.398528 A    
C55   N5    1.436853 S    
C8    C10   1.405573 A    
O5    Cu1   1.958600 S    
C38   H18   1.076293 S    
C45   N8    1.434262 S    
C42   C50   1.406430 A    
C52   C53   1.407897 A    
Cu1   N2    2.048510 S    
N7    O17   1.300989 A    
C5    C15   1.397782 A    
C6    C16   1.397411 A    
