data_mof_unit_57713.cif
_audit_creation_date              2012-12-11T15:53:49-0500
_audit_creation_method            fapswitch 2.2
_symmetry_space_group_name_H-M    P1
_symmetry_Int_Tables_number       1
_space_group_crystal_system       triclinic
_cell_length_a                    10.709945
_cell_length_b                    10.669628
_cell_length_c                    17.128233
_cell_angle_alpha                 80.295092
_cell_angle_beta                  99.783797
_cell_angle_gamma                 118.624467
_cell_volume                      1684.43794362

loop_
_atom_site_label
_atom_site_type_symbol
_atom_type_description
_atom_site_fract_x
_atom_site_fract_y
_atom_site_fract_z
_atom_type_partial_charge
C1    C     C_R   0.361994 0.230651 0.627867 0.546868
C2    C     C_R   0.452589 0.801461 0.698998 0.245458
C3    C     C_R   0.452038 0.797257 0.780602 0.232818
C4    C     C_3   0.126291 0.437433 0.786425 0.743990
C5    C     C_3   0.133593 0.432304 0.699446 0.333910
C6    C     C_R   0.340369 0.688205 0.656754 -0.046608
C7    C     C_1   0.851250 0.668978 0.702807 -0.023437
C8    C     C_1   0.898118 0.703658 0.769329 -0.030623
C9    C     C_1   0.345817 0.189958 0.710176 -0.060606
C10   C     C_1   0.320176 0.161752 0.778222 -0.038328
C11   C     C_1   0.334450 0.667726 0.278184 0.052252
C12   C     C_R   0.372489 0.655032 0.586542 0.570899
C13   C     C_1   0.321926 0.677048 0.207563 0.034715
C14   C     C_R   0.799425 0.650522 0.149535 -0.008238
C15   C     C_R   0.766883 0.519795 0.196288 -0.011659
C16   C     C_R   0.726650 0.496436 0.271426 -0.114129
C17   C     C_R   0.722372 0.724055 0.252225 0.225316
C18   C     C_R   0.762731 0.746314 0.174378 -0.137699
C19   C     C_3   0.848169 0.435072 0.219979 0.308858
C20   C     C_3   0.803840 0.409702 0.302705 -0.166621
C21   C     C_R   0.717969 0.602964 0.304050 0.016351
C22   C     C_R   0.313093 0.141700 0.166305 -0.098632
C23   C     C_R   0.781392 0.620999 0.626355 0.559661
C24   C     C_R   0.211239 0.164842 0.192764 -0.007273
C25   C     C_R   0.214252 0.175037 0.271333 -0.058698
C26   C     C_R   0.410459 0.116972 0.303773 0.333752
C27   C     C_R   0.407337 0.107348 0.222921 -0.140252
C28   C     C_3   0.170961 0.281709 0.164414 0.330080
C29   C     C_3   0.176797 0.296281 0.251240 0.338994
C30   C     C_R   0.320194 0.162120 0.327193 -0.010049
C31   C     C_R   0.947533 0.725012 0.851644 0.536698
C32   C     C_R   0.314185 0.709342 0.896680 0.581216
C33   C     C_R   0.283873 0.114412 0.857617 0.578412
C34   C     C_R   0.350318 0.225047 0.400522 0.555395
C35   C     C_R   0.884168 0.689311 0.082940 0.579144
C36   C     C_R   0.312085 0.702119 0.124397 0.544505
C37   C     C_R   0.284614 0.105038 0.085995 0.566373
C38   C     C_R   0.364736 0.655255 0.361065 0.568901
C39   C     C_R   0.702168 0.584337 0.389260 0.561353
C40   C     C_R   0.332924 0.688386 0.819265 -0.020537
C41   C     C_R   0.212808 0.596486 0.773288 -0.042562
C42   C     C_R   0.218347 0.592344 0.694087 -0.096722
Cr1   Cr    Cr6+3 0.608440 0.389080 0.519680 1.129702
Cr2   Cr    Cr6+3 0.288640 0.400090 0.490760 1.086587
Cr3   Cr    Cr6+3 0.602940 0.710800 0.489510 1.080758
Cr4   Cr    Cr6+3 0.052530 0.947560 0.964210 1.126488
Cr5   Cr    Cr6+3 0.059970 0.626800 0.992920 1.155751
Cr6   Cr    Cr6+3 0.373320 0.938440 0.995370 1.034059
H1    H     H_    0.803059 0.336305 0.189144 0.156984
H2    H     H_    0.730398 0.295608 0.319726 0.174172
H3    H     H_    0.895750 0.461798 0.347825 0.209708
H4    H     H_    0.477946 0.073610 0.204957 0.167719
H5    H     H_    0.252852 0.376551 0.131494 0.063175
H6    H     H_    0.264555 0.398403 0.271014 0.061267
H7    H     H_    0.193833 0.376616 0.689896 0.123234
H8    H     H_    0.774436 0.841934 0.135837 0.156258
O1    O     O_R   0.754020 0.497590 0.609930 -0.426385
O2    O     O_R   0.295080 0.533620 0.397890 -0.491554
O3    O     O_R   0.485280 0.746620 0.388440 -0.448351
O4    O     O_R   0.720550 0.696220 0.420010 -0.460885
O5    O     O_3   0.500010 0.499990 0.499980 -0.324530
O6    O     O_R   0.163320 0.092900 0.874450 -0.437527
O7    O     O_R   0.934650 0.822080 0.882840 -0.497537
O8    O     O_R   0.915520 0.604140 0.893670 -0.459312
O9    O     O_R   0.191760 0.638110 0.923230 -0.476833
O10   O     O_R   0.406180 0.826930 0.920660 -0.485789
O11   O     O_R   0.358620 0.062870 0.901950 -0.534892
O12   O     O_R   0.481420 0.271390 0.600630 -0.477590
O13   O     O_R   0.163910 0.085460 0.050210 -0.441057
O14   O     O_R   0.935200 0.815170 0.045770 -0.496247
O15   O     O_R   0.916120 0.596690 0.069430 -0.457135
O16   O     O_R   0.192310 0.631200 0.086170 -0.441338
O17   O     O_R   0.406770 0.819480 0.096420 -0.517652
O18   O     O_R   0.359170 0.055960 0.064880 -0.511804
O19   O     O_3   0.161940 0.837600 0.984160 -0.315386
O20   O     O_R   0.263810 0.254550 0.589590 -0.509472
O21   O     O_R   0.300820 0.531200 0.560890 -0.498362
O22   O     O_R   0.491480 0.744020 0.564270 -0.463985
O23   O     O_R   0.726290 0.693800 0.583010 -0.538989
O24   O     O_R   0.747830 0.500190 0.434090 -0.503235
O25   O     O_R   0.475680 0.273800 0.437630 -0.464922
O26   O     O_R   0.257620 0.257160 0.413750 -0.494900
O27   O     O_3   0.566344 0.913627 0.661351 -0.533077
C43   C     C_3   0.693288 0.899646 0.683790 -0.003701
H9    H     H_    0.673056 0.787679 0.705218 0.108831
H10   H     H_    0.763311 0.971059 0.730118 0.164602
H11   H     H_    0.754297 0.935004 0.631198 0.162218
F1    F     F_    0.504374 0.088660 0.357847 -0.624277
F2    F     F_    0.033764 0.229461 0.125744 -0.573375
F3    F     F_    0.045223 0.260288 0.274556 -0.588815
O28   O     O_3   0.573700 0.892978 0.823768 -0.549125
C44   C     C_3   0.586755 0.033277 0.808034 -0.000565
H12   H     H_    0.483359 0.034463 0.787628 0.108123
H13   H     H_    0.662890 0.098702 0.763247 0.184254
H14   H     H_    0.630681 0.086778 0.863719 0.169193
F4    F     F_    0.990136 0.395728 0.805196 -0.553559
F5    F     F_    0.197651 0.373416 0.838675 -0.633416
F6    F     F_    0.002051 0.389091 0.654598 -0.582592
O29   O     O_3   0.685304 0.817296 0.277656 -0.567786
C45   C     C_3   0.801208 0.957040 0.275892 -0.013914
H15   H     H_    0.904357 0.957317 0.301184 0.156436
H16   H     H_    0.781287 0.020059 0.313063 0.194019
H17   H     H_    0.809069 0.012071 0.214486 0.182754
F7    F     F_    0.994419 0.519364 0.219120 -0.589664

loop_
_geom_bond_atom_site_label_1
_geom_bond_atom_site_label_2
_ccdc_geom_bond_type
C37   O18   A    
Cr3   O4    S    
C16   C21   A    
C37   O13   A    
C41   C42   A    
C14   C18   A    
C19   C20   S    
C43   H11   S    
C5    C42   S    
C7    C8    T    
C15   C19   S    
Cr1   O5    S    
C26   C27   A    
Cr4   O6    S    
Cr2   O21   S    
C43   H10   S    
C20   H3    S    
Cr2   O26   S    
C6    C12   S    
C4    C41   S    
C15   C16   A    
C1    O12   A    
C3    O28   S    
Cr2   O20   S    
Cr4   O19   S    
Cr4   O13   S    
C20   H2    S    
C38   O2    A    
O27   C43   S    
C35   O14   A    
Cr2   O2    S    
C33   O6    A    
C12   O22   A    
Cr3   O22   S    
C34   O25   A    
C9    C10   T    
C18   H8    S    
C32   C40   S    
C35   O15   A    
C4    F4    S    
C4    F5    S    
C1    O20   A    
Cr6   O19   S    
C2    O27   S    
C2    C6    A    
C31   O8    A    
C45   H16   S    
C29   F3    S    
C25   C29   S    
C30   C34   S    
Cr6   O18   S    
C1    C9    S    
C24   C25   A    
C13   C36   S    
Cr5   O8    S    
Cr1   O12   S    
Cr1   O24   S    
C22   C37   S    
C14   C35   S    
C45   H17   S    
C17   C21   A    
C11   C38   S    
C31   O7    A    
C19   F7    S    
C19   H1    S    
O29   C45   S    
C21   C39   S    
C16   C20   S    
C12   O21   A    
C44   H13   S    
C17   C18   A    
Cr3   O23   S    
C43   H9    S    
C17   O29   S    
Cr5   O15   S    
C28   F2    S    
C40   C41   A    
C3    C40   A    
C26   C30   A    
C22   C27   A    
Cr1   O25   S    
C22   C24   A    
C28   C29   S    
O28   C44   S    
C27   H4    S    
C33   O11   A    
C32   O10   A    
C25   C30   A    
C23   O1    A    
Cr3   O3    S    
C8    C31   S    
Cr6   O17   S    
C5    H7    S    
C24   C28   S    
C4    C5    S    
C28   H5    S    
C29   H6    S    
Cr2   O5    S    
Cr4   O7    S    
Cr6   O10   S    
C39   O24   A    
C2    C3    A    
Cr5   O19   S    
C11   C13   T    
C7    C23   S    
C39   O4    A    
Cr3   O5    S    
C44   H12   S    
C10   C33   S    
C44   H14   S    
Cr6   O11   S    
Cr5   O16   S    
Cr4   O14   S    
C36   O17   A    
Cr1   O1    S    
C38   O3    A    
C5    F6    S    
C26   F1    S    
C6    C42   A    
C14   C15   A    
C45   H15   S    
C34   O26   A    
C23   O23   A    
Cr5   O9    S    
C36   O16   A    
C32   O9    A    
