data_mof_unit_35856.cif
_audit_creation_date              2012-12-11T15:31:53-0500
_audit_creation_method            fapswitch 2.2
_symmetry_space_group_name_H-M    P1
_symmetry_Int_Tables_number       1
_space_group_crystal_system       triclinic
_cell_length_a                    13.569617
_cell_length_b                    13.595599
_cell_length_c                    27.662499
_cell_angle_alpha                 90.402524
_cell_angle_beta                  90.280519
_cell_angle_gamma                 119.985897
_cell_volume                      4419.96166351

loop_
_atom_site_label
_atom_site_type_symbol
_atom_type_description
_atom_site_fract_x
_atom_site_fract_y
_atom_site_fract_z
_atom_type_partial_charge
C1    C     C_R   0.619442 0.898321 0.431288 0.546469
C2    C     C_R   0.115273 0.879030 0.268047 -0.116707
C3    C     C_R   0.099445 0.872385 0.217894 -0.140708
C4    C     C_R   0.599674 0.218529 0.431327 0.544992
C5    C     C_R   0.225401 0.794110 0.209408 0.114618
C6    C     C_R   0.241350 0.801862 0.259859 -0.091212
C7    C     C_R   0.185788 0.843242 0.289108 0.021934
C8    C     C_R   0.154260 0.830314 0.188432 0.065152
C9    C     C_1   0.128563 0.815188 0.137351 -0.031069
C10   C     C_1   0.206203 0.852707 0.340497 -0.047940
C11   C     C_1   0.098847 0.795384 0.095576 -0.008756
C12   C     C_R   0.609340 0.232639 0.207583 -0.083215
C13   C     C_1   0.634598 0.865377 0.383763 -0.013464
C14   C     C_R   0.581714 0.850236 0.258656 -0.113165
C15   C     C_R   0.590939 0.840253 0.208741 -0.111861
C16   C     C_R   0.279370 0.878756 0.430573 0.546072
C17   C     C_R   0.731137 0.782464 0.222935 -0.104605
C18   C     C_R   0.722511 0.793234 0.272848 -0.104779
C19   C     C_R   0.647947 0.827451 0.290822 0.040447
C20   C     C_R   0.665771 0.806448 0.190768 0.039459
C21   C     C_1   0.677616 0.797144 0.139502 -0.053503
C22   C     C_1   0.642335 0.844938 0.341912 -0.058929
C23   C     C_R   0.596820 0.213806 0.257705 0.127234
C24   C     C_1   0.693907 0.787087 0.097411 -0.009074
C25   C     C_R   0.638473 0.272676 0.616918 0.040235
C26   C     C_R   0.699588 0.233825 0.644397 -0.138551
C27   C     C_R   0.712190 0.251999 0.693603 -0.134968
C28   C     C_R   0.620904 0.900813 0.568920 0.540216
C29   C     C_R   0.666507 0.311810 0.716228 0.019773
C30   C     C_R   0.615532 0.361090 0.688742 -0.098839
C31   C     C_R   0.600360 0.341720 0.638854 -0.006296
C32   C     C_R   0.574069 0.306162 0.793712 -0.126859
C33   C     C_R   0.581901 0.328896 0.842899 -0.132816
C34   C     C_R   0.661548 0.304950 0.290028 0.066941
C35   C     C_R   0.776589 0.366031 0.843343 -0.142060
C36   C     C_R   0.769235 0.344881 0.794079 -0.132712
C37   C     C_R   0.669759 0.320289 0.768753 0.034994
C38   C     C_R   0.685643 0.365938 0.867259 0.021614
C39   C     C_R   0.216293 0.858420 0.613394 0.022954
C40   C     C_R   0.601743 0.222636 0.568712 0.539971
C41   C     C_R   0.207879 0.945129 0.637581 -0.127254
C42   C     C_R   0.169161 0.929703 0.685042 -0.120430
C43   C     C_R   0.138837 0.827630 0.708739 0.036261
C44   C     C_R   0.141194 0.739028 0.683384 -0.118855
C45   C     C_R   0.685662 0.340509 0.190001 0.016244
C46   C     C_R   0.178430 0.753870 0.636081 -0.124669
C47   C     C_R   0.028379 0.707539 0.777317 -0.124810
C48   C     C_R   0.011222 0.688903 0.826390 -0.117161
C49   C     C_R   0.152305 0.885418 0.843289 -0.130392
C50   C     C_R   0.172418 0.903504 0.793766 -0.113947
C51   C     C_R   0.111089 0.814019 0.760476 0.033117
C52   C     C_R   0.279345 0.881235 0.568139 0.542841
C53   C     C_R   0.073709 0.777028 0.859613 0.037753
C54   C     C_R   0.641198 0.862852 0.615410 0.023198
C55   C     C_R   0.554679 0.762983 0.636120 -0.127646
C56   C     C_1   0.693212 0.362413 0.138947 -0.053457
C57   C     C_R   0.560567 0.741356 0.684750 -0.122115
C58   C     C_R   0.653256 0.818980 0.713100 0.035232
C59   C     C_R   0.744144 0.913664 0.691506 -0.123451
C60   C     C_R   0.738304 0.935450 0.642915 -0.131881
C61   C     C_R   0.688899 0.896307 0.797027 -0.094212
C62   C     C_R   0.702086 0.885241 0.846533 -0.004595
C63   C     C_R   0.635003 0.683980 0.832730 -0.137256
C64   C     C_1   0.630166 0.263355 0.383573 -0.002762
C65   C     C_R   0.623402 0.696412 0.783734 -0.130042
C66   C     C_R   0.654202 0.803338 0.765400 0.020985
C67   C     C_1   0.647866 0.287634 0.341469 -0.027136
C68   C     C_R   0.678929 0.778501 0.864154 0.042373
C69   C     C_R   0.049431 0.761188 0.048196 0.545215
C70   C     C_R   0.714288 0.435637 0.049658 0.545163
C71   C     C_R   0.723682 0.770780 0.049547 0.544431
C72   C     C_R   0.042046 0.754574 0.910095 0.536167
C73   C     C_R   0.707129 0.427267 0.912944 0.536140
C74   C     C_R   0.716738 0.765261 0.912034 0.539245
C75   C     C_R   0.738531 0.412372 0.272162 -0.136378
C76   C     C_R   0.750441 0.430076 0.222348 -0.114885
C77   C     C_3   0.542861 0.393466 0.610460 -0.389707
C78   C     C_1   0.701174 0.389373 0.097122 -0.009080
C79   C     C_3   0.741449 0.987295 0.879371 -0.389553
C80   C     C_1   0.232650 0.862518 0.382663 -0.006233
Cr1   Cr    Cr6+3 0.417720 0.831920 0.499820 1.021178
Cr2   Cr    Cr6+3 0.668190 0.085770 0.500360 1.020767
Cr3   Cr    Cr6+3 0.414060 0.082260 0.499840 1.023430
Cr4   Cr    Cr6+3 0.908000 0.821090 0.979770 1.024060
Cr5   Cr    Cr6+3 0.912420 0.571130 0.979880 1.021745
Cr6   Cr    Cr6+3 0.657970 0.566940 0.980940 1.024632
H1    H     H_    0.788509 0.482682 0.296735 0.111492
H2    H     H_    0.856980 0.392582 0.861584 0.126199
H3    H     H_    0.584779 0.411808 0.706481 0.100637
H4    H     H_    0.809038 0.514146 0.209027 0.117050
H5    H     H_    0.236368 0.026595 0.620785 0.126356
H6    H     H_    0.977212 0.638121 0.752553 0.108977
H7    H     H_    0.946282 0.606042 0.838441 0.127591
H8    H     H_    0.165994 0.998457 0.703589 0.101027
H9    H     H_    0.237377 0.986292 0.781676 0.105470
H10   H     H_    0.198670 0.954803 0.868705 0.106783
H11   H     H_    0.119987 0.659887 0.700818 0.103019
H12   H     H_    0.540617 0.859670 0.184249 0.127043
H13   H     H_    0.183732 0.685398 0.618344 0.129432
H14   H     H_    0.479068 0.705179 0.615644 0.124937
H15   H     H_    0.558814 0.163924 0.182380 0.111470
H16   H     H_    0.708390 0.978136 0.782816 0.105457
H17   H     H_    0.489964 0.667299 0.700727 0.102105
H18   H     H_    0.596106 0.623640 0.759872 0.104786
H19   H     H_    0.617383 0.601537 0.845407 0.135672
H20   H     H_    0.818021 0.972705 0.712615 0.103895
H21   H     H_    0.806652 0.012578 0.627772 0.124176
H22   H     H_    0.072471 0.911784 0.290330 0.118455
H23   H     H_    0.789550 0.756457 0.209394 0.104520
H24   H     H_    0.043115 0.898645 0.202093 0.113866
H25   H     H_    0.296561 0.775075 0.276409 0.105001
H26   H     H_    0.523853 0.876891 0.272162 0.102389
H27   H     H_    0.535966 0.458923 0.632084 0.113052
H28   H     H_    0.592906 0.435144 0.577680 0.138441
H29   H     H_    0.455495 0.327004 0.599822 0.155393
H30   H     H_    0.739626 0.058357 0.860591 0.119575
H31   H     H_    0.684720 0.964521 0.911142 0.135258
H32   H     H_    0.830141 0.018215 0.891724 0.159893
H33   H     H_    0.564261 0.072358 0.293652 0.224804
H34   H     H_    0.774615 0.776056 0.297282 0.106419
H35   H     H_    0.473683 0.046889 0.247553 0.227786
H36   H     H_    0.216451 0.672297 0.164576 0.237540
H37   H     H_    0.331572 0.728814 0.200582 0.219626
H38   H     H_    0.730244 0.180981 0.628690 0.139808
H39   H     H_    0.495093 0.282596 0.774800 0.101324
H40   H     H_    0.509759 0.325889 0.860914 0.127457
H41   H     H_    0.752151 0.213726 0.714247 0.104964
H42   H     H_    0.843622 0.354857 0.775414 0.100397
N1    N     N_3   0.517313 0.103495 0.276008 -0.618224
N2    N     N_3   0.280083 0.748957 0.179497 -0.633945
O1    O     O_R   0.302900 0.805360 0.446400 -0.507597
O2    O     O_R   0.638120 0.455970 0.034270 -0.503387
O3    O     O_R   0.667540 0.672320 0.030160 -0.491454
O4    O     O_R   0.522090 0.841370 0.450730 -0.493918
O5    O     O_R   0.814460 0.840990 0.926980 -0.514015
O6    O     O_R   0.001710 0.811400 0.930110 -0.495434
O7    O     O_R   0.023410 0.659800 0.926210 -0.518200
O8    O     O_R   0.806940 0.473170 0.931090 -0.509055
O9    O     O_R   0.633420 0.451310 0.927930 -0.523490
O10   O     O_R   0.663190 0.668000 0.931580 -0.505620
O11   O     O_3   0.826130 0.653050 0.980200 -0.248095
O12   O     O_R   0.657980 0.180990 0.549630 -0.509711
O13   O     O_R   0.693280 0.995650 0.447220 -0.504470
O14   O     O_R   0.657260 0.178740 0.451050 -0.495127
O15   O     O_R   0.502640 0.195380 0.446850 -0.502091
O16   O     O_R   0.319630 0.976590 0.450330 -0.490363
O17   O     O_R   0.303680 0.807790 0.552740 -0.521840
O18   O     O_R   0.522820 0.843620 0.549310 -0.502985
O19   O     O_R   0.694060 0.998080 0.553560 -0.525208
O20   O     O_R   0.503420 0.197810 0.553190 -0.519101
O21   O     O_R   0.320350 0.978840 0.548910 -0.503542
O22   O     O_3   0.499990 0.999990 0.500010 -0.244426
O23   O     O_R   0.819150 0.845650 0.033320 -0.508407
O24   O     O_R   0.006060 0.815720 0.028680 -0.495601
O25   O     O_R   0.028100 0.664460 0.032550 -0.502993
O26   O     O_R   0.811290 0.477490 0.029660 -0.494502

loop_
_geom_bond_atom_site_label_1
_geom_bond_atom_site_label_2
_ccdc_geom_bond_type
C25   C31   A    
C7    C10   S    
C46   H13   S    
C63   C65   A    
Cr4   O5    S    
C40   O12   A    
C27   C29   A    
C41   C42   A    
C2    C7    A    
Cr2   O12   S    
Cr6   O2    S    
Cr1   O4    S    
C39   C41   A    
C54   C60   A    
C14   H26   S    
C12   C23   A    
C26   C27   A    
C69   O25   A    
C45   C76   A    
C70   O26   A    
C36   C37   A    
C25   C40   S    
Cr5   O25   S    
C30   C31   A    
C50   H9    S    
Cr1   O1    S    
C70   C78   S    
C73   O8    A    
C3    H24   S    
C68   C74   S    
C71   O23   A    
C79   H32   S    
C17   C20   A    
C56   C78   T    
C23   N1    S    
C44   H11   S    
C16   O16   A    
C18   C19   A    
C47   H6    S    
C16   O1    A    
Cr3   O15   S    
Cr4   O24   S    
C61   C66   A    
C58   C66   S    
C6    H25   S    
C35   C36   A    
C45   C56   S    
C8    C9    S    
Cr1   O17   S    
C55   H14   S    
C63   H19   S    
Cr6   O10   S    
C34   C75   A    
Cr3   O20   S    
C23   C34   A    
C39   C52   S    
C27   H41   S    
C59   C60   A    
C79   H30   S    
C36   H42   S    
C26   H38   S    
C30   H3    S    
C77   H27   S    
C44   C46   A    
C31   C77   S    
Cr3   O21   S    
C15   C20   A    
C57   H17   S    
C28   O18   A    
C59   H20   S    
C48   H7    S    
C64   C67   T    
C62   C79   S    
C19   C22   S    
C35   H2    S    
Cr2   O14   S    
C3    C8    A    
Cr5   O11   S    
C28   C54   S    
C12   C45   A    
C47   C51   A    
C73   O9    A    
C25   C26   A    
C74   O10   A    
C16   C80   S    
Cr5   O26   S    
C32   H39   S    
C75   C76   A    
C4    O14   A    
C29   C30   A    
C1    O13   A    
Cr3   O16   S    
Cr4   O23   S    
Cr6   O3    S    
C47   C48   A    
Cr1   O18   S    
C74   O5    A    
C35   C38   A    
C70   O2    A    
C50   C51   A    
C40   O20   A    
C32   C37   A    
C9    C11   T    
C60   H21   S    
Cr6   O9    S    
C39   C46   A    
C75   H1    S    
C72   O7    A    
C41   H5    S    
C49   C50   A    
C52   O17   A    
C55   C57   A    
H37   N2    S    
C1    C13   S    
C42   C43   A    
C15   H12   S    
C77   H28   S    
C18   H34   S    
Cr3   O22   S    
Cr5   O7    S    
C4    C64   S    
C54   C55   A    
Cr4   O6    S    
C10   C80   T    
C42   H8    S    
C14   C19   A    
C69   O24   A    
H35   N1    S    
Cr2   O13   S    
C17   H23   S    
C34   C67   S    
C71   O3    A    
C5    C8    A    
C11   C69   S    
C6    C7    A    
C48   C53   A    
Cr1   O22   S    
C63   C68   A    
C33   C38   A    
C17   C18   A    
C62   C68   A    
C32   C33   A    
C61   H16   S    
C58   C59   A    
C12   H15   S    
C43   C51   S    
C57   C58   A    
C5    C6    A    
Cr4   O11   S    
C43   C44   A    
C52   O21   A    
C49   C53   A    
C4    O15   A    
C79   H31   S    
C2    H22   S    
C33   H40   S    
H33   N1    S    
C13   C22   T    
C2    C3    A    
C49   H10   S    
C61   C62   A    
Cr2   O19   S    
C72   O6    A    
C5    N2    S    
C28   O19   A    
C20   C21   S    
Cr6   O11   S    
C65   C66   A    
C21   C24   T    
C29   C37   S    
C14   C15   A    
C65   H18   S    
C77   H29   S    
C53   C72   S    
Cr5   O8    S    
H36   N2    S    
Cr2   O22   S    
C1    O4    A    
C24   C71   S    
C76   H4    S    
C38   C73   S    
