data_mof_unit_23062.cif
_audit_creation_date              2012-12-10T17:32:59-0500
_audit_creation_method            fapswitch 2.2
_symmetry_space_group_name_H-M    P1
_symmetry_Int_Tables_number       1
_space_group_crystal_system       triclinic
_cell_length_a                    12.364377
_cell_length_b                    13.246366
_cell_length_c                    14.286117
_cell_angle_alpha                 93.290317
_cell_angle_beta                  107.402754
_cell_angle_gamma                 117.039632
_cell_volume                      1936.51781319

loop_
_atom_site_label
_atom_site_type_symbol
_atom_type_description
_atom_site_fract_x
_atom_site_fract_y
_atom_site_fract_z
_atom_type_partial_charge
C1    C     C_R   0.651008 0.714217 0.508902 0.779592
C2    C     C_R   0.850329 0.503436 0.919573 0.089728
C3    C     C_R   0.806609 0.529796 0.993805 0.167980
C4    C     C_R   0.954427 0.478127 0.947254 0.064433
C5    C     C_R   0.021666 0.490559 0.050978 0.066975
C6    C     C_R   0.975713 0.518684 0.122814 -0.230563
C7    C     C_R   0.869210 0.536136 0.094278 -0.236552
C8    C     C_R   0.991461 0.438292 0.874509 -0.224091
C9    C     C_R   0.094933 0.416647 0.902512 -0.234201
C10   C     C_R   0.165847 0.434065 0.003665 0.166766
C11   C     C_R   0.130964 0.472189 0.079005 0.086932
C12   C     C_R   0.618483 0.517126 0.686558 0.798532
C13   C     C_R   0.271325 0.412990 0.030254 -0.202160
C14   C     C_R   0.342918 0.429030 0.131146 -0.204940
C15   C     C_R   0.207721 0.491486 0.180028 -0.254279
C16   C     C_R   0.136214 0.968022 0.359245 -0.190902
C17   C     C_R   0.248952 0.162299 0.463096 -0.053544
C18   C     C_R   0.733017 0.921252 0.577456 -0.185172
C19   C     C_R   0.824548 0.038114 0.597735 -0.147836
C20   C     C_R   0.924865 0.072887 0.560796 -0.201340
C21   C     C_R   0.932517 0.990845 0.498648 0.081978
C22   C     C_R   0.829880 0.873770 0.468261 0.082354
C23   C     C_R   0.345417 0.285260 0.485212 0.794999
C24   C     C_R   0.038107 0.021248 0.465044 0.071912
C25   C     C_R   0.032718 0.938528 0.393373 0.161923
C26   C     C_R   0.923114 0.828155 0.355093 -0.243896
C27   C     C_R   0.822561 0.796438 0.391199 -0.203573
C28   C     C_R   0.149934 0.131286 0.501518 -0.252320
C29   C     C_R   0.243635 0.079899 0.393417 -0.192900
C30   C     C_R   0.736545 0.837781 0.515197 -0.104209
C31   C     C_R   0.248785 0.671202 0.669686 -0.297711
C32   C     C_R   0.652183 0.341755 0.364425 0.034780
C33   C     C_R   0.723822 0.295697 0.340537 -0.285653
C34   C     C_R   0.381057 0.482317 0.313404 0.790500
C35   C     C_R   0.857907 0.344216 0.395625 0.105293
C36   C     C_R   0.924425 0.450632 0.470934 -0.049717
C37   C     C_R   0.842772 0.489755 0.496123 0.259532
C38   C     C_R   0.065126 0.518394 0.525450 -0.040301
C39   C     C_R   0.115017 0.608777 0.610966 0.181773
C40   C     C_R   0.032346 0.639542 0.636279 -0.286718
C41   C     C_R   0.900891 0.584597 0.578054 -0.181888
C42   C     C_R   0.160885 0.506295 0.497715 -0.005413
C43   C     C_R   0.334993 0.647206 0.642673 0.066494
C44   C     C_R   0.682889 0.523923 0.792958 -0.053185
C45   C     C_R   0.310939 0.468100 0.206445 -0.048288
C46   C     C_R   0.700735 0.550280 0.966795 -0.204445
C47   C     C_R   0.638251 0.546147 0.866676 -0.196246
C48   C     C_R   0.789507 0.505274 0.820130 -0.258605
Cu1   Cu    Cu3+1 0.416420 0.526630 0.522910 0.926977
Cu2   Cu    Cu3+1 0.583580 0.473370 0.477090 0.919818
H1    H     H_    0.836582 0.556144 0.151713 0.139628
H2    H     H_    0.297844 0.383301 0.972877 0.133748
H3    H     H_    0.319494 0.103264 0.362353 0.147277
H4    H     H_    0.915302 0.765696 0.297347 0.141353
H5    H     H_    0.132370 0.905493 0.304149 0.136820
H6    H     H_    0.162324 0.195855 0.559256 0.146744
H7    H     H_    0.661090 0.895929 0.612729 0.152663
H8    H     H_    0.992809 0.164953 0.580388 0.124285
H9    H     H_    0.820271 0.101921 0.645170 0.143189
H10   H     H_    0.737789 0.711432 0.355808 0.172852
H11   H     H_    0.437800 0.693579 0.688856 0.119254
H12   H     H_    0.190476 0.526386 0.240230 0.150441
H13   H     H_    0.070582 0.710148 0.700334 0.154647
H14   H     H_    0.286538 0.738556 0.736176 0.137510
H15   H     H_    0.135521 0.452183 0.427490 0.150989
H16   H     H_    0.548112 0.299424 0.323186 0.133467
H17   H     H_    0.672028 0.216671 0.282027 0.142992
H18   H     H_    0.847447 0.618790 0.601068 0.207713
H19   H     H_    0.422764 0.410670 0.150092 0.150658
H20   H     H_    0.119627 0.386004 0.844268 0.143048
H21   H     H_    0.666117 0.569232 0.023157 0.132473
H22   H     H_    0.555797 0.560923 0.847176 0.152720
H23   H     H_    0.825098 0.494769 0.762327 0.157066
H24   H     H_    0.017474 0.525620 0.202170 0.134796
H25   H     H_    0.940154 0.419249 0.794546 0.148534
N1    N     N_R   0.290690 0.566960 0.557640 -0.177852
N2    N     N_R   0.709100 0.433710 0.442970 -0.202121
O1    O     O_R   0.545970 0.684450 0.528810 -0.575950
O2    O     O_R   0.687130 0.639470 0.490120 -0.600951
O3    O     O_R   0.519670 0.535100 0.660030 -0.585952
O4    O     O_R   0.660830 0.490120 0.621340 -0.598711
O5    O     O_R   0.312870 0.360530 0.509880 -0.587907
O6    O     O_R   0.454030 0.315550 0.471190 -0.581296
O7    O     O_R   0.339170 0.509880 0.378660 -0.590313
O8    O     O_R   0.480330 0.464900 0.339970 -0.596833
C49   C     C_3   0.914548 0.267131 0.379451 -0.411657
C50   C     C_3   0.934660 0.267952 0.278240 -0.352003
C51   C     C_3   0.011319 0.207244 0.268568 -0.810481
H26   H     H_    0.111489 0.256048 0.325983 0.258626
H27   H     H_    0.961968 0.116715 0.278253 0.259613
H28   H     H_    0.018403 0.204639 0.192883 0.241374
H29   H     H_    0.838271 0.222738 0.215339 0.220031
H30   H     H_    0.987378 0.358451 0.269886 0.211692
H31   H     H_    0.003292 0.287318 0.443876 0.193424
H32   H     H_    0.844692 0.176135 0.377998 0.203776

loop_
_geom_bond_atom_site_label_1
_geom_bond_atom_site_label_2
_ccdc_geom_bond_type
C50   C51   S    
C23   O5    A    
C17   C29   A    
C19   C20   A    
C4    C8    A    
Cu2   O2    S    
C28   H6    S    
C43   H11   S    
C26   C27   A    
C17   C23   S    
C40   H13   S    
C31   C43   A    
Cu1   O7    S    
C36   C37   A    
C5    C11   A    
C3    C7    A    
C27   H10   S    
C38   C39   A    
C35   C49   S    
C50   H30   S    
C43   N1    A    
Cu1   O1    S    
C18   C19   A    
C49   H31   S    
Cu2   O8    S    
C32   N2    A    
C11   C15   A    
C35   C36   A    
C8    C9    A    
C42   H15   S    
C18   C30   A    
C41   H18   S    
C9    C10   A    
C44   C47   A    
C13   C14   A    
C1    O1    A    
C34   O7    A    
C26   H4    S    
Cu2   O6    S    
C6    H24   S    
C14   C45   A    
C24   C25   A    
C49   H32   S    
C39   C40   A    
C49   C50   S    
C19   H9    S    
C16   C29   A    
C37   N2    A    
C8    H25   S    
C34   O8    A    
Cu1   O5    S    
C2    C4    A    
C13   H2    S    
C18   H7    S    
C51   H28   S    
C20   C21   A    
Cu1   N1    S    
C34   C45   S    
C9    H20   S    
C46   H21   S    
C23   O6    A    
C40   C41   A    
C51   H27   S    
C22   C27   A    
C1    O2    A    
C14   H19   S    
C15   C45   A    
C20   H8    S    
Cu2   N2    S    
C50   H29   S    
C33   H17   S    
C32   H16   S    
C16   C25   A    
C46   C47   A    
C22   C30   A    
C17   C28   A    
C31   H14   S    
C24   C28   A    
C48   H23   S    
C4    C5    A    
C10   C13   A    
C38   C42   A    
C6    C7    A    
C3    C46   A    
C42   N1    A    
Cu1   O3    S    
C2    C48   A    
C32   C33   A    
C36   C38   A    
C2    C3    A    
C25   C26   A    
C16   H5    S    
C7    H1    S    
C12   C44   S    
C5    C6    A    
C29   H3    S    
C12   O3    A    
C1    C30   S    
C33   C35   A    
C15   H12   S    
C31   C39   A    
C12   O4    A    
C37   C41   A    
C47   H22   S    
C10   C11   A    
C51   H26   S    
Cu1   Cu2   S    
C21   C24   A    
C21   C22   A    
C44   C48   A    
Cu2   O4    S    
