data_mof_unit_29590.cif
_audit_creation_date              2012-12-10T16:58:32-0500
_audit_creation_method            fapswitch 2.2
_symmetry_space_group_name_H-M    P1
_symmetry_Int_Tables_number       1
_space_group_crystal_system       triclinic
_cell_length_a                    7.760942
_cell_length_b                    8.560569
_cell_length_c                    23.39879
_cell_angle_alpha                 91.218433
_cell_angle_beta                  86.020599
_cell_angle_gamma                 93.516056
_cell_volume                      1547.67767978

loop_
_atom_site_label
_atom_site_type_symbol
_atom_type_description
_atom_site_fract_x
_atom_site_fract_y
_atom_site_fract_z
_atom_type_partial_charge
C1    C     C_R   0.545689 0.794714 0.498534 0.945834
C2    C     C_R   0.634727 0.461737 0.291947 -0.127791
C3    C     C_R   0.375532 0.546948 0.766807 -0.120536
C4    C     C_R   0.627023 0.460745 0.233070 -0.083932
C5    C     C_R   0.525056 0.504756 0.791108 0.216099
C6    C     C_R   0.475565 0.498169 0.208818 0.207900
C7    C     C_2   0.569891 0.958096 0.497679 -0.343118
C8    C     C_2   0.430111 0.041905 0.502337 -0.343917
C9    C     C_R   0.502671 0.500145 0.610603 0.862145
C10   C     C_R   0.497337 0.499930 0.389385 0.864202
C11   C     C_R   0.436912 0.363617 0.119206 0.620786
C12   C     C_R   0.454311 0.205287 0.501472 0.945288
C13   C     C_R   0.564950 0.639006 0.880725 0.614315
C14   C     C_R   0.528000 0.635816 0.120645 0.609658
C15   C     C_R   0.472557 0.367113 0.879302 0.615084
C16   C     C_R   0.538304 0.639213 0.060958 -0.084278
C17   C     C_R   0.462924 0.363560 0.938984 -0.077121
C18   C     C_R   0.495873 0.500675 0.030071 -0.091281
C19   C     C_R   0.505692 0.502020 0.969868 -0.092124
C20   C     C_R   0.443969 0.360885 0.059247 -0.145813
C21   C     C_R   0.557855 0.641747 0.940688 -0.145564
C22   C     C_R   0.590653 0.777231 0.031735 -0.157593
C23   C     C_R   0.670756 0.460087 0.756333 -0.000757
C24   C     C_R   0.410797 0.225488 0.968205 -0.150546
C25   C     C_R   0.600593 0.779081 0.972185 0.666722
C26   C     C_R   0.401283 0.223540 0.027752 0.663192
C27   C     C_2   0.832770 0.413159 0.780288 0.950640
C28   C     C_2   0.163595 0.578934 0.219464 0.954998
C29   C     C_R   0.327661 0.537227 0.243611 0.000082
C30   C     C_R   0.660855 0.459201 0.696906 -0.214336
C31   C     C_R   0.337485 0.537079 0.303115 -0.219159
C32   C     C_R   0.510056 0.501009 0.672675 -0.063354
C33   C     C_R   0.490074 0.499787 0.327290 -0.075351
C34   C     C_R   0.367507 0.544738 0.707927 -0.159855
F1    F     F_    0.652716 0.915510 0.945914 -0.606119
F2    F     F_    0.349313 0.087077 0.054023 -0.607089
F3    F     F_    0.030455 0.360059 0.447934 -0.566578
F4    F     F_    0.969545 0.639940 0.552066 -0.565978
H1    H     H_    0.624498 0.884491 0.054851 0.237334
H2    H     H_    0.297987 0.991132 0.506796 0.207670
H3    H     H_    0.063267 0.317075 0.765399 0.365753
H4    H     H_    0.022684 0.591953 0.150494 0.355511
H5    H     H_    0.376811 0.118259 0.945091 0.237234
H6    H     H_    0.770773 0.425523 0.669312 0.217978
H7    H     H_    0.225937 0.566476 0.330784 0.213319
H8    H     H_    0.250159 0.577825 0.690083 0.198310
H9    H     H_    0.753528 0.432152 0.309710 0.196979
H10   H     H_    0.264512 0.580223 0.793962 0.170339
H11   H     H_    0.739591 0.431604 0.205861 0.158479
H12   H     H_    0.702014 0.008870 0.493221 0.207730
N1    N     N_R   0.477504 0.499782 0.148076 -0.353961
N2    N     N_R   0.523244 0.503104 0.851866 -0.357569
N3    N     N_2   0.950330 0.457950 0.484560 0.253586
N4    N     N_2   0.049670 0.542050 0.515440 0.253881
O1    O     O_R   0.389250 0.738570 0.503790 -0.612007
O2    O     O_2   0.612816 0.770047 0.851161 -0.441160
O3    O     O_2   0.568317 0.766809 0.151274 -0.501403
O4    O     O_2   0.431345 0.236320 0.848684 -0.510258
O5    O     O_2   0.856409 0.433535 0.831089 -0.608811
O6    O     O_R   0.960174 0.345489 0.744254 -0.801650
O7    O     O_2   0.047388 0.630294 0.251114 -0.624271
O8    O     O_R   0.139761 0.559464 0.161004 -0.791771
O9    O     O_R   0.610750 0.261430 0.496210 -0.611771
O10   O     O_R   0.678390 0.711620 0.493890 -0.578905
O11   O     O_R   0.321610 0.288380 0.506110 -0.578913
O12   O     O_R   0.355400 0.513520 0.588790 -0.610448
O13   O     O_R   0.644600 0.486480 0.411210 -0.611424
O14   O     O_R   0.644550 0.486570 0.578900 -0.588249
O15   O     O_R   0.355450 0.513430 0.421100 -0.588020
O16   O     O_2   0.389924 0.232384 0.148763 -0.442465
Zn1   Zn    Zn3+2 0.306930 0.518000 0.506610 1.122019
Zn2   Zn    Zn3+2 0.693070 0.482000 0.493390 1.122175

loop_
_geom_bond_atom_site_label_1
_geom_bond_atom_site_label_2
_ccdc_geom_bond_type
C2    C4    A    
C31   C33   A    
C5    N2    S    
C34   H8    S    
C23   C27   S    
C2    H9    S    
C13   N2    A    
C12   O11   A    
H4    O8    S    
C14   N1    A    
C5    C23   A    
C8    C12   S    
C4    H11   S    
O14   Zn2   S    
C13   O2    S    
F3    N3    S    
C28   O7    D    
C12   O9    A    
C15   N2    A    
C1    O1    A    
C11   O16   S    
C13   C21   A    
C7    C8    D    
C29   C31   A    
C27   O5    D    
C10   O13   A    
O9    Zn2   S    
C30   C32   A    
C30   H6    S    
C3    C34   A    
C20   C26   A    
C25   F1    S    
C22   H1    S    
C2    C33   A    
C26   F2    S    
C28   C29   S    
C17   C19   A    
C24   C26   A    
O13   Zn2   S    
C10   C33   S    
C18   C20   A    
C27   O6    S    
O10   Zn2   S    
C28   O8    S    
C6    N1    S    
C15   O4    S    
C14   C16   A    
C11   C20   A    
C9    O14   A    
C17   C24   A    
C11   N1    A    
C14   O3    S    
C4    C6    A    
C3    C5    A    
C1    O10   A    
C9    O12   A    
C3    H10   S    
C6    C29   A    
C23   C30   A    
C7    H12   S    
C16   C18   A    
C18   C19   A    
C31   H7    S    
C15   C17   A    
C24   H5    S    
C21   C25   A    
C10   O15   A    
C16   C22   A    
C8    H2    S    
C9    C32   S    
C1    C7    S    
C32   C34   A    
N3    N4    D    
N3    Zn2   S    
O1    Zn1   S    
N4    Zn1   S    
O12   Zn1   S    
H3    O6    S    
O11   Zn1   S    
O15   Zn1   S    
C19   C21   A    
C22   C25   A    
F4    N4    S    
