data_mof_unit_37782.cif
_audit_creation_date              2012-12-10T16:44:14-0500
_audit_creation_method            fapswitch 2.2
_symmetry_space_group_name_H-M    P1
_symmetry_Int_Tables_number       1
_space_group_crystal_system       triclinic
_cell_length_a                    7.457109
_cell_length_b                    8.71182
_cell_length_c                    13.361964
_cell_angle_alpha                 94.834927
_cell_angle_beta                  77.163363
_cell_angle_gamma                 103.398798
_cell_volume                      822.834931832

loop_
_atom_site_label
_atom_site_type_symbol
_atom_type_description
_atom_site_fract_x
_atom_site_fract_y
_atom_site_fract_z
_atom_type_partial_charge
C1    C     C_R   0.545362 0.800044 0.502174 0.870251
C2    C     C_R   0.415866 0.502865 0.977031 0.012083
C3    C     C_R   0.459589 0.548602 0.873701 0.058980
C4    C     C_R   0.557917 0.543560 0.036260 0.134110
C5    C     C_R   0.733300 0.644831 0.996080 0.173645
C6    C     C_R   0.764825 0.705457 0.899020 -0.232227
C7    C     C_R   0.629440 0.660008 0.839338 -0.132504
C8    C     C_R   0.530964 0.485450 0.134412 -0.209176
C9    C     C_R   0.837515 0.636202 0.154874 -0.164709
C10   C     C_R   0.331367 0.484290 0.808187 -0.232852
C11   C     C_2   0.567588 0.967777 0.503617 -0.453724
C12   C     C_R   0.397589 0.492750 0.694960 0.816215
C13   C     C_2   0.434586 0.032703 0.482095 0.301215
C14   C     C_R   0.456212 0.200286 0.493733 0.793249
C15   C     C_R   0.601918 0.511650 0.305886 0.768551
C16   C     C_R   0.873066 0.687764 0.054834 -0.196345
C17   C     C_R   0.663592 0.538404 0.195700 -0.030077
C18   C     C_R   0.147310 0.397938 0.851980 0.078474
C19   C     C_R   0.098064 0.369560 0.957151 0.523891
C20   C     C_R   0.230417 0.422156 0.018537 -0.339701
Cu1   Cu    Cu3+1 0.321300 0.483160 0.488710 1.031504
Cu2   Cu    Cu3+1 0.678700 0.516840 0.511290 1.012479
H1    H     H_    0.941811 0.678327 0.201543 0.145886
H2    H     H_    0.008527 0.615211 0.581865 0.219447
H3    H     H_    0.894850 0.788405 0.868923 0.143946
H4    H     H_    0.007208 0.765481 0.024631 0.126646
H5    H     H_    0.405375 0.400573 0.166502 0.148591
H6    H     H_    0.180936 0.403304 0.099601 0.173273
H7    H     H_    0.658316 0.717220 0.767046 0.162102
H8    H     H_    0.694850 0.039525 0.524471 0.186167
N1    N     N_2   0.947230 0.542220 0.528320 -0.150360
N2    N     N_2   0.052770 0.457780 0.471680 0.006938
O1    O     O_R   0.383920 0.714220 0.492660 -0.539772
O2    O     O_R   0.685730 0.742660 0.511730 -0.584044
O3    O     O_R   0.275440 0.478800 0.636790 -0.570423
O4    O     O_R   0.577250 0.507240 0.655860 -0.574449
O5    O     O_R   0.314270 0.257340 0.488270 -0.533909
O6    O     O_R   0.616080 0.285780 0.507340 -0.575840
O7    O     O_R   0.422750 0.492760 0.344140 -0.581056
O8    O     O_R   0.724560 0.521200 0.363210 -0.559122
O9    O     O_3   0.271017 0.943651 0.455122 -0.538215
C21   C     C_3   0.296029 0.939833 0.347194 -0.227071
H9    H     H_    0.416079 0.885050 0.309419 0.139981
H10   H     H_    0.316868 0.059919 0.317886 0.149813
H11   H     H_    0.166766 0.866139 0.325530 0.183299
I1    I     I_    0.979413 0.300668 0.353442 -0.302758
I2    I     I_    0.932273 0.296816 0.767468 -0.303223
O10   O     O_3   0.915126 0.295933 0.000992 -0.547695
C22   C     C_3   0.913038 0.143063 0.029514 -0.287915
H12   H     H_    0.981408 0.147881 0.095981 0.160880
H13   H     H_    0.980828 0.073959 0.963934 0.154329
H14   H     H_    0.764236 0.079017 0.053595 0.191222

loop_
_geom_bond_atom_site_label_1
_geom_bond_atom_site_label_2
_ccdc_geom_bond_type
C2    C4    A    
C6    C7    A    
C7    H7    S    
C12   O4    A    
Cu2   O4    S    
O9    C21   S    
C8    C17   A    
Cu1   O7    S    
C4    C8    A    
C22   H14   S    
Cu2   O8    S    
C18   I2    S    
C13   O9    S    
C2    C3    A    
H2    N1    S    
C1    O1    A    
C3    C10   A    
C13   C14   S    
C14   O5    A    
C11   C13   D    
C15   O7    A    
C21   H10   S    
C10   C18   A    
Cu1   O3    S    
C10   C12   S    
C9    C17   A    
O10   C22   S    
C9    C16   A    
C1    O2    A    
C22   H12   S    
C3    C7    A    
C16   H4    S    
C5    C6    A    
Cu2   O2    S    
Cu1   N2    S    
C15   O8    A    
C6    H3    S    
Cu1   O1    S    
C21   H9    S    
C2    C20   A    
C14   O6    A    
Cu2   O6    S    
Cu1   O5    S    
C18   C19   A    
Cu2   N1    S    
C15   C17   S    
C8    H5    S    
C19   O10   S    
C9    H1    S    
C5    C16   A    
C20   H6    S    
C22   H13   S    
Cu1   Cu2   S    
N2    I1    S    
N1    N2    D    
C19   C20   A    
C11   H8    S    
C4    C5    A    
C12   O3    A    
C21   H11   S    
C1    C11   S    
