data_mof_unit_28786.cif
_audit_creation_date              2012-12-10T20:38:24-0500
_audit_creation_method            fapswitch 2.2
_symmetry_space_group_name_H-M    P1
_symmetry_Int_Tables_number       1
_space_group_crystal_system       triclinic
_cell_length_a                    9.877041
_cell_length_b                    10.698243
_cell_length_c                    17.162991
_cell_angle_alpha                 90.595499
_cell_angle_beta                  86.442099
_cell_angle_gamma                 89.246865
_cell_volume                      1809.79550786

loop_
_atom_site_label
_atom_site_type_symbol
_atom_type_description
_atom_site_fract_x
_atom_site_fract_y
_atom_site_fract_z
_atom_type_partial_charge
C1    C     C_R   0.499885 0.740110 0.496736 0.882384
C2    C     C_R   0.525381 0.505184 0.263859 -0.053523
C3    C     C_R   0.384908 0.937899 0.468241 0.116958
C4    C     C_R   0.482905 0.500849 0.652041 0.881328
C5    C     C_R   0.502890 0.871274 0.482446 -0.126947
C6    C     C_R   0.627572 0.933563 0.480134 -0.212935
C7    C     C_R   0.628476 0.062780 0.480502 -0.233846
C8    C     C_R   0.504720 0.128744 0.483577 -0.103636
C9    C     C_R   0.385705 0.065808 0.470220 0.067886
C10   C     C_3   0.245443 0.075511 0.508747 -0.095582
C11   C     C_3   0.244599 0.933179 0.506269 -0.183687
C12   C     C_R   0.367479 0.574647 0.776281 -0.249881
C13   C     C_R   0.920953 0.531925 0.565920 0.206118
C14   C     C_R   0.934555 0.453767 0.438235 -0.190644
C15   C     C_R   0.078919 0.452056 0.438143 0.144171
C16   C     C_R   0.501165 0.260029 0.497179 0.892348
C17   C     C_R   0.063408 0.531359 0.566083 0.160292
C18   C     C_3   0.063286 0.652068 0.609971 -0.586118
C19   C     C_3   0.909337 0.654187 0.608533 -0.116613
C20   C     C_R   0.517257 0.501839 0.348077 0.891121
C21   C     C_R   0.478724 0.516160 0.735843 -0.046352
C22   C     C_R   0.595968 0.487403 0.773874 -0.192891
C23   C     C_R   0.429005 0.558417 0.143192 -0.250733
C24   C     C_R   0.604581 0.520626 0.850881 -0.214506
C25   C     C_R   0.493130 0.576939 0.892387 0.185417
C26   C     C_R   0.373864 0.605953 0.855224 0.137711
C27   C     C_R   0.421012 0.561602 0.223927 0.087472
C28   C     C_R   0.637876 0.449517 0.222884 -0.289461
C29   C     C_R   0.646804 0.447778 0.141589 0.132791
C30   C     C_R   0.541475 0.503046 0.102046 0.163701
C31   C     C_2   0.497532 0.592190 0.976245 -0.232017
C32   C     C_2   0.546058 0.498330 0.017526 -0.216694
H1    H     H_    0.723095 0.883903 0.484320 0.164971
H2    H     H_    0.816331 0.462092 0.070708 0.181961
H3    H     H_    0.827102 0.349251 0.137153 0.179335
H4    H     H_    0.146374 0.111411 0.614846 0.180100
H5    H     H_    0.312860 0.079699 0.620952 0.184467
H6    H     H_    0.167512 0.790536 0.442962 0.223812
H7    H     H_    0.050980 0.893721 0.480495 0.173705
H8    H     H_    0.202640 0.316772 0.391796 0.193231
H9    H     H_    0.095428 0.373408 0.328555 0.140591
H10   H     H_    0.306646 0.717261 0.247106 0.177240
H11   H     H_    0.218999 0.582542 0.248367 0.191773
H12   H     H_    0.724314 0.109735 0.484714 0.170894
H13   H     H_    0.111301 0.726351 0.574809 0.197864
H14   H     H_    0.851395 0.727521 0.715884 0.189226
H15   H     H_    0.885969 0.573162 0.717625 0.183548
H16   H     H_    0.867447 0.730908 0.573526 0.168695
H17   H     H_    0.717719 0.406069 0.254208 0.151915
H18   H     H_    0.588548 0.414395 0.988726 0.174183
H19   H     H_    0.285859 0.755176 0.911278 0.168626
H20   H     H_    0.176442 0.669237 0.863450 0.173609
H21   H     H_    0.278022 0.598704 0.746214 0.139111
H22   H     H_    0.453325 0.675902 0.004286 0.158013
H23   H     H_    0.171641 0.122292 0.471832 0.167609
H24   H     H_    0.240133 0.887997 0.564296 0.148422
H25   H     H_    0.884763 0.418179 0.388358 0.151408
H26   H     H_    0.101670 0.641565 0.668927 0.195479
H27   H     H_    0.345683 0.597900 0.112955 0.147184
H28   H     H_    0.697829 0.500022 0.878605 0.141677
H29   H     H_    0.682582 0.441437 0.743516 0.162105
N1    N     N_R   0.857140 0.500860 0.500530 -0.130200
N2    N     N_R   0.142780 0.500820 0.500530 -0.112742
N3    N     N_3   0.761847 0.390732 0.098935 -0.475919
N4    N     N_3   0.242704 0.127114 0.588310 -0.434368
N5    N     N_3   0.147832 0.885895 0.452473 -0.453639
N6    N     N_3   0.157856 0.399119 0.372891 -0.398317
N7    N     N_3   0.308195 0.624111 0.264926 -0.424357
N8    N     N_3   0.839799 0.643174 0.685885 -0.421093
N9    N     N_3   0.259513 0.663326 0.898231 -0.471795
O1    O     O_R   0.385310 0.683210 0.499990 -0.625653
O2    O     O_R   0.614650 0.683240 0.500000 -0.621537
O3    O     O_R   0.371780 0.500000 0.615800 -0.616347
O4    O     O_R   0.601120 0.500040 0.615800 -0.603967
O5    O     O_R   0.385350 0.316760 0.500000 -0.606753
O6    O     O_R   0.614690 0.316790 0.500010 -0.631548
O7    O     O_R   0.398880 0.499960 0.384200 -0.578066
O8    O     O_R   0.628220 0.500000 0.384200 -0.639014
Zn1   Zn    Zn3+2 0.346870 0.499980 0.499990 0.963252
Zn2   Zn    Zn3+2 0.653130 0.500020 0.500010 0.947676

loop_
_geom_bond_atom_site_label_1
_geom_bond_atom_site_label_2
_ccdc_geom_bond_type
C25   C31   S    
C16   O5    A    
O1    Zn1   S    
C7    C8    A    
H9    N6    S    
N2    Zn1   S    
C23   H27   S    
C1    O1    A    
C20   O7    A    
C1    C5    S    
N1    Zn2   S    
C28   C29   A    
C5    C6    A    
O8    Zn2   S    
C14   N1    A    
C18   C19   S    
H15   N8    S    
H14   N8    S    
C27   N7    S    
C18   H26   S    
C13   N1    A    
H6    N5    S    
C8    C9    A    
H8    N6    S    
H5    N4    S    
C2    C27   A    
H19   N9    S    
C23   C27   A    
C9    C10   S    
C4    O4    A    
C12   H21   S    
C11   N5    S    
C29   N3    S    
C8    C16   S    
O4    Zn2   S    
C21   C22   A    
H10   N7    S    
O7    Zn1   S    
C1    O2    A    
C13   C19   S    
C2    C20   S    
C23   C30   A    
C3    C11   S    
C24   C25   A    
C19   H16   S    
H11   N7    S    
C25   C26   A    
C12   C21   A    
C12   C26   A    
C29   C30   A    
C3    C9    A    
C28   H17   S    
C31   C32   D    
C24   H28   S    
C15   N6    S    
H2    N3    S    
C17   C18   S    
O3    Zn1   S    
C7    H12   S    
C10   H23   S    
C32   H18   S    
C4    O3    A    
H3    N3    S    
C26   N9    S    
H7    N5    S    
C22   C24   A    
C19   N8    S    
C18   H13   S    
C10   N4    S    
C14   H25   S    
C16   O6    A    
O6    Zn2   S    
C3    C5    A    
C6    C7    A    
C13   C17   A    
C6    H1    S    
C20   O8    A    
H4    N4    S    
O2    Zn2   S    
C17   N2    A    
C22   H29   S    
C30   C32   S    
C4    C21   S    
C31   H22   S    
H20   N9    S    
C10   C11   S    
C15   N2    A    
C14   C15   A    
C2    C28   A    
O5    Zn1   S    
C11   H24   S    
