data_mof_unit_60794.cif
_audit_creation_date              2013-03-05T16:33:03-0500
_audit_creation_method            fapswitch 2.2
_symmetry_space_group_name_H-M    P1
_symmetry_Int_Tables_number       1
_space_group_crystal_system       triclinic
_cell_length_a                    38.586182
_cell_length_b                    32.085473
_cell_length_c                    21.63233
_cell_angle_alpha                 89.928982
_cell_angle_beta                  123.756364
_cell_angle_gamma                 90.003276
_cell_volume                      22266.7709114

loop_
_atom_site_label
_atom_site_type_symbol
_atom_site_description
_atom_site_fract_x
_atom_site_fract_y
_atom_site_fract_z
_atom_type_partial_charge
O1    O     O_R   0.939010 0.034440 0.439030 -0.588905
O2    O     O_R   0.060990 0.034440 0.560970 -0.593301
O3    O     O_R   0.439010 0.534440 0.439030 -0.596642
O4    O     O_R   0.560990 0.534440 0.560970 -0.592568
O5    O     O_R   0.939030 0.965580 0.439000 -0.600628
O6    O     O_R   0.060970 0.965580 0.561000 -0.599989
O7    O     O_R   0.439030 0.465580 0.439000 -0.603802
O8    O     O_R   0.560970 0.465580 0.561000 -0.599562
C1    C     C_R   0.919328 0.000020 0.419459 0.883405
C2    C     C_R   0.080672 0.999991 0.580539 0.882863
C3    C     C_R   0.419327 0.500018 0.419387 0.886806
C4    C     C_R   0.580672 0.499991 0.580535 0.886169
O9    O     O_R   0.000000 0.034440 0.591610 -0.603955
O10   O     O_R   0.000000 0.034440 0.408390 -0.604957
O11   O     O_R   0.500000 0.534440 0.591610 -0.605567
O12   O     O_R   0.500000 0.534440 0.408390 -0.609151
O13   O     O_R   0.000010 0.965580 0.591580 -0.612382
O14   O     O_R   0.999990 0.965580 0.408420 -0.612383
O15   O     O_R   0.500010 0.465580 0.591580 -0.612162
O16   O     O_R   0.499990 0.465580 0.408420 -0.612994
C5    C     C_R   0.000755 0.000001 0.620984 0.856638
C6    C     C_R   0.999260 0.000044 0.379026 0.856293
C7    C     C_R   0.500759 0.500000 0.620987 0.859182
C8    C     C_R   0.499338 0.500047 0.379037 0.862021
Zn1   Zn    Zn3+2 0.000000 0.045990 0.500000 1.139596
Zn2   Zn    Zn3+2 0.500000 0.545990 0.500000 1.118486
Zn3   Zn    Zn3+2 0.000000 0.954030 0.500000 1.053771
Zn4   Zn    Zn3+2 0.500000 0.454030 0.500000 1.048376
C9    C     C_R   0.093988 0.104128 0.721178 -0.169568
C10   C     C_R   0.906374 0.104694 0.278708 -0.162748
C11   C     C_R   0.594162 0.603997 0.721380 -0.170159
C12   C     C_R   0.419054 0.617523 0.284075 -0.188527
C13   C     C_R   0.060737 0.086186 0.722758 -0.091046
C14   C     C_R   0.939534 0.086676 0.277098 -0.090391
C15   C     C_R   0.560875 0.586107 0.722909 -0.091009
C16   C     C_R   0.449329 0.594447 0.280246 -0.088946
C17   C     C_R   0.065656 0.045536 0.752277 0.005051
C18   C     C_R   0.934581 0.045994 0.247796 0.000593
C19   C     C_R   0.565722 0.545445 0.752345 0.005418
C20   C     C_R   0.440195 0.553016 0.253041 0.003814
C21   C     C_R   0.103424 0.024364 0.782357 -0.205712
C22   C     C_R   0.896825 0.024893 0.218050 -0.203085
C23   C     C_R   0.603457 0.524212 0.782400 -0.205450
C24   C     C_R   0.401806 0.535228 0.230313 -0.195468
H1    H     H_    0.107345 0.993299 0.805094 0.203851
H2    H     H_    0.892859 0.993810 0.195492 0.204234
H3    H     H_    0.607323 0.493137 0.805076 0.203671
H4    H     H_    0.394863 0.503397 0.210303 0.207273
C25   C     C_R   0.136169 0.042420 0.782458 -0.182326
C26   C     C_R   0.864156 0.043046 0.218092 -0.180741
C27   C     C_R   0.636240 0.542219 0.782564 -0.182142
C28   C     C_R   0.372220 0.557861 0.233713 -0.177053
H5    H     H_    0.164816 0.024977 0.805484 0.213473
H6    H     H_    0.835507 0.025670 0.195239 0.213855
H7    H     H_    0.664860 0.524730 0.805575 0.213325
H8    H     H_    0.342571 0.543426 0.214740 0.208956
C29   C     C_R   0.131818 0.081790 0.750894 0.292524
C30   C     C_R   0.868546 0.082473 0.249372 0.286866
C31   C     C_R   0.631959 0.581601 0.751082 0.292692
C32   C     C_R   0.380104 0.598930 0.259868 0.306963
C33   C     C_R   0.030636 0.021986 0.813076 -0.128068
C34   C     C_R   0.969614 0.022435 0.187079 -0.137569
C35   C     C_R   0.530659 0.521954 0.813098 -0.128111
C36   C     C_R   0.471810 0.525040 0.189003 -0.129671
H9    H     H_    0.053441 0.039838 0.861515 0.166649
H10   H     H_    0.946941 0.040486 0.138699 0.164340
H11   H     H_    0.553482 0.539784 0.861555 0.166892
H12   H     H_    0.450938 0.545105 0.142323 0.162066
C37   C     C_R   0.000508 0.998298 0.813869 -0.030257
C38   C     C_R   0.999519 0.998421 0.186150 -0.028352
C39   C     C_R   0.500509 0.498294 0.813868 -0.029699
C40   C     C_R   0.499492 0.498517 0.185938 -0.022503
C41   C     C_R   0.971597 0.973863 0.752343 0.111986
C42   C     C_R   0.028236 0.973709 0.247551 0.111683
C43   C     C_R   0.471581 0.473879 0.752325 0.112747
C44   C     C_R   0.526144 0.471595 0.245191 0.108573
C45   C     C_R   0.972164 0.975149 0.689016 -0.152543
C46   C     C_R   0.027724 0.975036 0.310926 -0.150729
C47   C     C_R   0.472150 0.475167 0.688999 -0.154082
C48   C     C_R   0.525532 0.472694 0.308477 -0.148382
H13   H     H_    0.949955 0.956682 0.640954 0.141996
H14   H     H_    0.049792 0.956356 0.358898 0.141882
H15   H     H_    0.449925 0.456720 0.640920 0.140798
H16   H     H_    0.546008 0.452225 0.354770 0.145135
C49   C     C_R   0.001378 0.999923 0.687534 -0.074413
C50   C     C_R   0.998675 0.000043 0.312502 -0.071047
C51   C     C_R   0.501383 0.499919 0.687539 -0.074612
C52   C     C_R   0.498683 0.500039 0.312332 -0.078283
C53   C     C_R   0.031277 0.023158 0.749796 0.060390
C54   C     C_R   0.968920 0.023513 0.250305 0.057483
C55   C     C_R   0.531306 0.523122 0.749824 0.060070
C56   C     C_R   0.471321 0.526264 0.252426 0.044385
C57   C     C_R   0.899649 0.956994 0.720374 0.003229
C58   C     C_R   0.099966 0.955776 0.279338 0.003058
C59   C     C_R   0.399614 0.457085 0.720320 0.003430
C60   C     C_R   0.596594 0.449194 0.275706 0.002982
C61   C     C_R   0.872281 0.929443 0.723278 -0.156077
C62   C     C_R   0.126944 0.927830 0.276085 -0.155141
C63   C     C_R   0.372209 0.429563 0.723169 -0.156934
C64   C     C_R   0.621817 0.419484 0.271081 -0.152139
H17   H     H_    0.839914 0.937761 0.698379 0.180869
H18   H     H_    0.159420 0.935659 0.301054 0.180979
H19   H     H_    0.339850 0.437918 0.698269 0.180766
H20   H     H_    0.654743 0.425206 0.296613 0.180930
C65   C     C_R   0.886204 0.891248 0.759388 -0.139321
C66   C     C_R   0.112491 0.889868 0.239536 -0.138957
C67   C     C_R   0.386083 0.391349 0.759223 -0.139805
C68   C     C_R   0.605067 0.382374 0.232650 -0.138416
H21   H     H_    0.864724 0.870606 0.761604 0.161412
H22   H     H_    0.133677 0.868914 0.237065 0.161518
H23   H     H_    0.364575 0.370729 0.761398 0.161274
H24   H     H_    0.624954 0.359986 0.229309 0.160326
C69   C     C_R   0.927518 0.879327 0.792358 -0.150423
C70   C     C_R   0.071019 0.878574 0.206462 -0.151407
C71   C     C_R   0.427384 0.379379 0.792187 -0.150414
C72   C     C_R   0.562948 0.373761 0.198806 -0.156963
H25   H     H_    0.937001 0.849139 0.819250 0.185797
H26   H     H_    0.061111 0.848537 0.179264 0.185345
H27   H     H_    0.436826 0.349178 0.819035 0.186131
H28   H     H_    0.551229 0.344276 0.170236 0.184722
C73   C     C_R   0.956008 0.905402 0.789923 -0.039887
C74   C     C_R   0.042908 0.905063 0.209236 -0.039942
C75   C     C_R   0.455912 0.405425 0.789810 -0.040294
C76   C     C_R   0.536456 0.402186 0.202522 -0.042603
C77   C     C_R   0.942086 0.945087 0.754321 -0.056676
C78   C     C_R   0.057374 0.944513 0.245290 -0.057865
C79   C     C_R   0.442039 0.445132 0.754269 -0.056914
C80   C     C_R   0.553351 0.440678 0.240856 -0.062385
C81   C     C_R   0.728209 0.975039 0.179863 0.238246
C82   C     C_R   0.271830 0.974529 0.819755 0.237478
C83   C     C_R   0.228174 0.483983 0.171520 0.234666
C84   C     C_R   0.771826 0.474350 0.819535 0.237383
C85   C     C_R   0.706609 0.000313 0.201137 -0.015586
C86   C     C_R   0.293389 0.000153 0.798802 -0.015436
C87   C     C_R   0.206597 0.500881 0.201147 -0.017337
C88   C     C_R   0.793389 0.500105 0.798769 -0.015553
C89   C     C_R   0.728222 0.024482 0.265508 -0.187798
C90   C     C_R   0.271736 0.024651 0.734717 -0.187811
C91   C     C_R   0.228231 0.516643 0.273399 -0.195710
C92   C     C_R   0.771740 0.524739 0.734854 -0.187592
H29   H     H_    0.711557 0.043763 0.281868 0.174811
H30   H     H_    0.288368 0.044204 0.718605 0.174488
H31   H     H_    0.211585 0.529438 0.296145 0.176752
H32   H     H_    0.788376 0.544394 0.718886 0.174472
C93   C     C_R   0.771443 0.023587 0.309841 -0.129283
C94   C     C_R   0.228516 0.023750 0.690358 -0.127742
C95   C     C_R   0.271450 0.515594 0.317243 -0.151682
C96   C     C_R   0.728521 0.523846 0.690483 -0.127141
H33   H     H_    0.787831 0.042510 0.359687 0.184340
H34   H     H_    0.212097 0.042940 0.640747 0.184056
H35   H     H_    0.287846 0.527953 0.373260 0.181654
H36   H     H_    0.712104 0.543143 0.641009 0.183663
C97   C     C_R   0.793404 0.998615 0.290047 -0.008546
C98   C     C_R   0.206597 0.998445 0.709845 -0.008360
C99   C     C_R   0.293401 0.498912 0.289117 -0.004138
C100  C     C_R   0.706597 0.498416 0.709791 -0.008181
C101  C     C_R   0.772204 0.974289 0.224758 0.217277
C102  C     C_R   0.227837 0.973778 0.774841 0.216396
C103  C     C_R   0.272179 0.483121 0.215986 0.218400
C104  C     C_R   0.727833 0.473610 0.774615 0.216309
C105  C     C_1   0.662104 0.000431 0.159317 0.065898
C106  C     C_1   0.337895 0.000326 0.840657 0.067072
C107  C     C_1   0.162096 0.500669 0.159334 0.065472
C108  C     C_1   0.837895 0.500292 0.840641 0.066824
C109  C     C_1   0.837862 0.999494 0.336319 0.068037
C110  C     C_1   0.162138 0.999355 0.663609 0.068182
C111  C     C_1   0.337864 0.499579 0.335583 0.076497
C112  C     C_1   0.662138 0.499341 0.663569 0.068317
C113  C     C_1   0.875137 0.999949 0.374681 -0.116963
C114  C     C_1   0.124863 0.999853 0.625284 -0.117850
C115  C     C_1   0.375135 0.499953 0.374237 -0.120276
C116  C     C_1   0.624863 0.499850 0.625260 -0.118177
C117  C     C_1   0.624801 0.000324 0.123749 -0.114462
C118  C     C_1   0.375198 0.000270 0.876244 -0.111475
C119  C     C_1   0.124796 0.500382 0.123758 -0.115262
C120  C     C_1   0.875198 0.500249 0.876240 -0.111616
O17   O     O_R   0.034440 0.939000 0.034360 -0.613387
O18   O     O_R   0.965560 0.939000 0.965640 -0.613184
O19   O     O_R   0.534440 0.439000 0.034360 -0.613689
O20   O     O_R   0.465560 0.439000 0.965640 -0.612251
C121  C     C_R   0.000014 0.919298 0.000000 0.887824
C122  C     C_R   0.500009 0.419299 0.999910 0.888045
O21   O     O_R   0.034440 0.999990 0.942780 -0.622668
O22   O     O_R   0.965560 0.999990 0.057220 -0.622284
O23   O     O_R   0.534440 0.499990 0.942780 -0.622790
O24   O     O_R   0.465560 0.499990 0.057220 -0.620131
O25   O     O_R   0.965580 1.000000 0.873940 -0.603868
O26   O     O_R   0.034420 0.000000 0.126060 -0.602878
O27   O     O_R   0.465580 0.500000 0.873940 -0.604014
O28   O     O_R   0.534420 0.500000 0.126060 -0.600673
C123  C     C_R   0.000128 0.999236 0.879684 0.874652
C124  C     C_R   0.999874 0.999286 0.120316 0.874649
C125  C     C_R   0.500128 0.499235 0.879684 0.873943
C126  C     C_R   0.499870 0.499326 0.120247 0.872648
Zn5   Zn    Zn3+2 0.045990 0.999980 0.045940 1.027268
Zn6   Zn    Zn3+2 0.954010 0.999980 0.954060 1.025494
Zn7   Zn    Zn3+2 0.545990 0.499980 0.045940 1.029653
Zn8   Zn    Zn3+2 0.454010 0.499980 0.954060 1.028848
O29   O     O_R   0.034440 0.060970 0.034440 -0.605254
O30   O     O_R   0.965560 0.060970 0.965560 -0.607207
O31   O     O_R   0.534440 0.560970 0.034440 -0.604530
O32   O     O_R   0.465560 0.560970 0.965560 -0.607437
C127  C     C_R   0.999980 0.080662 0.999877 0.918874
C128  C     C_R   0.499978 0.580663 0.999912 0.917388
O33   O     O_R   0.500020 0.939060 0.051770 -0.592737
O34   O     O_R   0.499980 0.939060 0.948230 -0.603477
O35   O     O_R   0.000020 0.439060 0.051770 -0.591611
O36   O     O_R   0.999980 0.439060 0.948230 -0.608303
C129  C     C_R   0.499976 0.919529 0.000035 0.891371
C130  C     C_R   0.999976 0.419533 0.000043 0.891617
O37   O     O_R   0.561000 0.000050 0.112670 -0.618880
O38   O     O_R   0.439000 0.000050 0.887330 -0.617372
O39   O     O_R   0.061000 0.500050 0.112670 -0.619237
O40   O     O_R   0.939000 0.500050 0.887330 -0.617660
O41   O     O_R   0.561000 0.999980 0.009230 -0.588217
O42   O     O_R   0.439000 0.999980 0.990770 -0.586816
O43   O     O_R   0.061000 0.499980 0.009230 -0.586280
O44   O     O_R   0.939000 0.499980 0.990770 -0.586950
C131  C     C_R   0.580556 0.000092 0.080299 0.886026
C132  C     C_R   0.419444 0.000086 0.919700 0.892640
C133  C     C_R   0.080554 0.500058 0.080300 0.885748
C134  C     C_R   0.919444 0.500081 0.919699 0.892787
Zn9   Zn    Zn3+2 0.500010 0.000060 0.069050 1.051209
Zn10  Zn    Zn3+2 0.499990 0.000060 0.930950 1.046716
Zn11  Zn    Zn3+2 0.000010 0.500060 0.069050 1.051871
Zn12  Zn    Zn3+2 0.999990 0.500060 0.930950 1.047304
O45   O     O_R   0.500000 0.061030 0.051640 -0.611263
O46   O     O_R   0.500000 0.061030 0.948360 -0.610871
O47   O     O_R   0.000000 0.561030 0.051640 -0.611217
O48   O     O_R   0.000000 0.561030 0.948360 -0.609797
C135  C     C_R   0.499999 0.080624 0.999963 0.888918
C136  C     C_R   0.999999 0.580623 0.999965 0.889735
H37   H     H_    0.944914 0.788441 0.002351 0.160693
H38   H     H_    0.055177 0.788444 0.997538 0.159746
H39   H     H_    0.444030 0.288470 0.999436 0.166100
H40   H     H_    0.555857 0.288426 0.999574 0.159201
C137  C     C_R   0.468469 0.228345 0.999577 -0.165938
C138  C     C_R   0.531432 0.228317 0.999611 -0.163024
C139  C     C_R   0.968985 0.728326 0.001270 -0.163913
C140  C     C_R   0.031066 0.728327 0.998515 -0.162312
H41   H     H_    0.444046 0.211688 0.999599 0.157857
H42   H     H_    0.555867 0.211639 0.999664 0.157586
H43   H     H_    0.944895 0.711658 0.002330 0.157879
H44   H     H_    0.055149 0.711659 0.997440 0.158424
C141  C     C_R   0.499958 0.206687 0.999643 0.151871
C142  C     C_R   0.000018 0.706683 0.999874 0.150944
C143  C     C_R   0.031083 0.771762 0.998564 -0.148809
C144  C     C_R   0.968997 0.771760 0.001294 -0.148723
C145  C     C_R   0.531426 0.271753 0.999549 -0.150440
C146  C     C_R   0.468459 0.271779 0.999490 -0.148818
C147  C     C_R   0.000046 0.793382 0.999947 0.152740
C148  C     C_R   0.499941 0.293386 0.999489 0.148756
C149  C     C_1   0.499978 0.162237 0.999764 -0.044260
C150  C     C_1   0.000012 0.662234 0.999874 -0.043218
C151  C     C_1   0.000053 0.837784 0.999972 0.010831
C152  C     C_1   0.499972 0.337786 0.999552 0.006223
C153  C     C_1   0.000044 0.875081 0.999987 -0.115533
C154  C     C_1   0.500007 0.375083 0.999698 -0.113168
C155  C     C_1   0.499990 0.124909 0.999864 -0.147494
C156  C     C_1   0.000006 0.624907 0.999899 -0.146481
H45   H     H_    0.950903 0.210356 0.883825 0.186604
H46   H     H_    0.045399 0.210529 0.116906 0.189075
H47   H     H_    0.465700 0.710387 0.880861 0.186549
H48   H     H_    0.529508 0.710500 0.117683 0.192135
C157  C     C_R   0.477287 0.771516 0.930384 -0.044984
C158  C     C_R   0.514100 0.771576 0.066976 -0.048593
C159  C     C_R   0.969406 0.271503 0.933543 -0.045127
C160  C     C_R   0.023919 0.271593 0.067965 -0.045548
C161  C     C_R   0.495331 0.793465 0.998526 -0.010859
C162  C     C_R   0.996378 0.293465 0.000771 -0.011169
C163  C     C_R   0.024734 0.228004 0.066311 -0.184209
C164  C     C_R   0.971243 0.227909 0.934378 -0.188609
C165  C     C_R   0.515446 0.727988 0.066188 -0.180641
C166  C     C_R   0.479327 0.727926 0.932137 -0.188535
C167  C     C_R   0.998683 0.206554 0.000128 0.110281
C168  C     C_R   0.498291 0.706557 0.999417 0.109206
C169  C     C_1   0.497256 0.838065 0.998747 0.097431
C170  C     C_1   0.997860 0.338065 0.999861 0.097074
C171  C     C_1   0.999463 0.162156 0.000019 -0.006995
C172  C     C_1   0.499318 0.662160 0.999787 -0.005829
C173  C     C_1   0.999859 0.124872 0.999982 -0.139734
C174  C     C_1   0.499830 0.624876 0.999962 -0.138101
C175  C     C_1   0.498756 0.875342 0.999181 -0.047609
C176  C     C_1   0.999022 0.375345 0.999556 -0.048708
N1    N     N_R   0.165899 0.098312 0.748852 0.212342
O49   O     O_R   0.158861 0.120052 0.692137 -0.356346
O50   O     O_R   0.204027 0.087235 0.799100 -0.363225
N2    N     N_R   0.834373 0.099291 0.250853 0.209200
O51   O     O_R   0.841237 0.121963 0.306426 -0.350031
O52   O     O_R   0.796313 0.087826 0.201145 -0.363801
N3    N     N_R   0.666078 0.598078 0.749115 0.212318
O53   O     O_R   0.659092 0.619815 0.692431 -0.355682
O54   O     O_R   0.704187 0.586967 0.799404 -0.362712
N4    N     N_R   0.347700 0.621603 0.259139 0.233397
O55   O     O_R   0.339730 0.660120 0.236458 -0.324346
O56   O     O_R   0.322111 0.602110 0.270451 -0.370953
C177  C     C_2   0.999460 0.889475 0.824071 0.890179
O57   O     O_2   0.024187 0.907629 0.815072 -0.612368
O58   O     O_R   0.011967 0.852665 0.865855 -0.824044
H49   H     H_    0.041944 0.844911 0.886146 0.356510
C178  C     C_2   0.999247 0.889814 0.174934 0.890825
O59   O     O_2   0.975034 0.907897 0.185323 -0.611506
O60   O     O_R   0.985954 0.853699 0.131440 -0.825077
H50   H     H_    0.955905 0.846351 0.111232 0.356668
C179  C     C_2   0.499346 0.389441 0.823948 0.889361
O61   O     O_2   0.524154 0.407655 0.815233 -0.612796
O62   O     O_R   0.511745 0.352513 0.865402 -0.823211
H51   H     H_    0.541722 0.344736 0.885737 0.356552
C180  C     C_2   0.491813 0.389945 0.166609 0.895011
O63   O     O_2   0.468811 0.409318 0.178479 -0.606873
O64   O     O_R   0.476118 0.355225 0.119694 -0.826879
H52   H     H_    0.445594 0.349897 0.098647 0.358137
N5    N     N_R   0.795065 0.950160 0.202784 0.220901
O65   O     O_R   0.826007 0.926621 0.250697 -0.354101
O66   O     O_R   0.785340 0.952069 0.134809 -0.314736
N6    N     N_R   0.205012 0.949307 0.796528 0.221092
O67   O     O_R   0.174118 0.925889 0.748344 -0.353276
O68   O     O_R   0.214720 0.950784 0.864511 -0.314611
N7    N     N_R   0.295015 0.467687 0.186156 0.218656
O69   O     O_R   0.326160 0.442179 0.224563 -0.362964
O70   O     O_R   0.285126 0.479632 0.120744 -0.317687
N8    N     N_R   0.705004 0.449011 0.796134 0.221137
O71   O     O_R   0.674112 0.425643 0.747794 -0.353510
O72   O     O_R   0.714702 0.450321 0.864121 -0.314578
N9    N     N_R   0.705694 0.949066 0.114942 0.236303
O73   O     O_R   0.675122 0.964292 0.052146 -0.337608
O74   O     O_R   0.715320 0.909861 0.118668 -0.294909
N10   N     N_R   0.294387 0.948220 0.884357 0.237818
O75   O     O_R   0.324940 0.963186 0.947335 -0.334369
O76   O     O_R   0.284816 0.908974 0.880154 -0.290034
N11   N     N_R   0.205630 0.466318 0.098075 0.237501
O77   O     O_R   0.174998 0.486649 0.042237 -0.339417
O78   O     O_R   0.215283 0.429491 0.086948 -0.293239
N12   N     N_R   0.794378 0.447902 0.883948 0.237880
O79   O     O_R   0.824935 0.462756 0.947033 -0.334271
O80   O     O_R   0.784795 0.408642 0.879464 -0.290179
C181  C     C_2   0.090609 0.147072 0.693543 1.030196
O81   O     O_2   0.110454 0.175132 0.737514 -0.568546
O82   O     O_R   0.065773 0.155111 0.617186 -0.721111
H53   H     H_    0.066285 0.185550 0.605100 0.362806
C182  C     C_2   0.909957 0.147663 0.305979 1.041788
O83   O     O_2   0.895023 0.176571 0.261720 -0.576261
O84   O     O_R   0.929807 0.154871 0.382135 -0.708002
H54   H     H_    0.930172 0.185485 0.394013 0.365041
C183  C     C_2   0.590856 0.646945 0.693812 1.032209
O85   O     O_2   0.610715 0.674980 0.737832 -0.565727
O86   O     O_R   0.566071 0.655012 0.617461 -0.722008
H55   H     H_    0.566634 0.685450 0.605421 0.364737
C184  C     C_2   0.428110 0.660514 0.314413 1.044807
O87   O     O_2   0.442308 0.686261 0.292473 -0.576192
O88   O     O_R   0.420292 0.671508 0.368107 -0.726736
H56   H     H_    0.427702 0.701598 0.384510 0.367412
C185  C     C_2   0.456116 0.792869 0.856684 0.940782
O89   O     O_2   0.453214 0.775295 0.803824 -0.593164
O90   O     O_R   0.438543 0.832449 0.846711 -0.793327
H57   H     H_    0.424967 0.843248 0.794048 0.361065
C186  C     C_2   0.532507 0.792986 0.140020 0.941520
O91   O     O_2   0.559387 0.775486 0.197333 -0.590854
O92   O     O_R   0.518634 0.832528 0.144037 -0.785458
H58   H     H_    0.533542 0.843379 0.196856 0.362812
C187  C     C_2   0.939023 0.292844 0.861781 0.941007
O93   O     O_2   0.926641 0.275240 0.802851 -0.595936
O94   O     O_R   0.923640 0.332444 0.860999 -0.792732
H59   H     H_    0.903120 0.343232 0.808772 0.360819
C188  C     C_2   0.052119 0.293021 0.140597 0.935166
O95   O     O_2   0.083799 0.275541 0.189976 -0.596366
O96   O     O_R   0.042240 0.332554 0.153703 -0.790765
H60   H     H_    0.063857 0.343420 0.205254 0.359687
C189  C     C_2   0.021426 0.109671 0.695667 0.943936
O97   O     O_2   0.004936 0.129828 0.638038 -0.560823
O98   O     O_R   0.002944 0.108245 0.735850 -0.792481
H61   H     H_    0.976174 0.124989 0.711534 0.361100
C190  C     C_2   0.978998 0.110071 0.305327 0.941789
O99   O     O_2   0.995845 0.108914 0.271342 -0.605267
O100  O     O_R   0.997165 0.133051 0.371108 -0.752621
H62   H     H_    0.023941 0.147299 0.384516 0.360475
C191  C     C_2   0.521609 0.609663 0.695870 0.945600
O101  O     O_2   0.505165 0.629870 0.638301 -0.564140
O102  O     O_R   0.503119 0.608256 0.736041 -0.791897
H63   H     H_    0.476387 0.625061 0.711775 0.361563
C192  C     C_2   0.491290 0.612248 0.309068 0.979456
O103  O     O_2   0.506718 0.609072 0.272891 -0.603753
O104  O     O_R   0.513371 0.632160 0.378171 -0.761327
H64   H     H_    0.541571 0.642710 0.391910 0.364570
C193  C     C_2   0.882843 0.997943 0.682276 0.900654
O105  O     O_2   0.845480 0.001827 0.635425 -0.613570
O106  O     O_R   0.909075 0.032344 0.700473 -0.788190
H65   H     H_    0.893622 0.058123 0.670601 0.359324
C194  C     C_2   0.117337 0.996447 0.317892 0.898955
O107  O     O_2   0.154751 0.999756 0.364768 -0.613307
O108  O     O_R   0.091581 0.031237 0.300094 -0.781834
H66   H     H_    0.107394 0.056769 0.330244 0.364136
C195  C     C_2   0.382857 0.498054 0.682268 0.899572
O109  O     O_2   0.345503 0.501973 0.635378 -0.616005
O110  O     O_R   0.409124 0.532433 0.700553 -0.788259
H67   H     H_    0.393703 0.558229 0.670704 0.358974
C196  C     C_2   0.616492 0.488717 0.316705 0.899257
O111  O     O_2   0.654065 0.489711 0.363547 -0.613154
O112  O     O_R   0.592953 0.525022 0.301306 -0.780505
H68   H     H_    0.610346 0.549517 0.332979 0.364019

loop_
_geom_bond_atom_site_label_1
_geom_bond_atom_site_label_2
_geom_bond_distance
_ccdc_geom_bond_type
N8    O72   1.301281 A    
C151  C153  1.196705 T    
C3    C115  1.418011 S    
C186  O91   1.223691 D    
C51   C55   1.405823 A    
C1    C113  1.417869 S    
N3    O53   1.301242 A    
C88   C92   1.395693 A    
C37   C123  1.432293 S    
C47   C51   1.394130 A    
C181  O81   1.222402 D    
C38   C124  1.432032 S    
C4    C116  1.417852 S    
C178  O59   1.222184 D    
C10   C182  1.476215 S    
C85   C89   1.395682 A    
C98   C102  1.411271 A    
C196  O112  1.398489 S    
C40   C126  1.429411 S    
C59   C63   1.404992 A    
C121  C153  1.418734 S    
C146  C148  1.398629 A    
C9    C13   1.423834 A    
C64   H20   1.083174 S    
C165  C168  1.391831 A    
C34   C38   1.396975 A    
C11   C31   1.419078 A    
H45   C164  1.084761 S    
O40   C134  1.283334 A    
H46   C163  1.084776 S    
C94   H34   1.083986 S    
C168  C172  1.424966 S    
C99   C111  1.427515 S    
C38   C42   1.408060 A    
O35   C130  1.282298 A    
O4    C4    1.272532 A    
C95   C99   1.395608 A    
O43   Zn12  1.994807 S    
C61   C65   1.389938 A    
C180  O64   1.399095 S    
C82   C86   1.411160 A    
Zn10  O46   1.992592 S    
C21   C25   1.388862 A    
C160  C188  1.492651 S    
C185  O90   1.398550 S    
O20   C122  1.272742 A    
C158  C186  1.492844 S    
C109  C113  1.196279 T    
C71   C75   1.405509 A    
C50   C54   1.405851 A    
C10   C14   1.422069 A    
C111  C115  1.196339 T    
O38   C132  1.283345 A    
C62   H18   1.083185 S    
C135  C155  1.420901 S    
O33   Zn9   1.993086 S    
O13   C5    1.267497 A    
O7    Zn4   1.990529 S    
C139  C144  1.393608 A    
O15   C7    1.267472 A    
H38   C143  1.083596 S    
C83   N11   1.438215 S    
C159  C164  1.400131 A    
C46   H14   1.085227 S    
C16   C192  1.488423 S    
C94   C98   1.395543 A    
H47   C166  1.084838 S    
O37   Zn9   1.990200 S    
O9    C5    1.266223 A    
C76   C180  1.496189 S    
O104  H64   1.013790 S    
O48   C136  1.281870 A    
C81   C85   1.411141 A    
C160  C162  1.419711 A    
C192  O103  1.222783 D    
O8    Zn4   1.991082 S    
C118  C132  1.419480 S    
O106  H65   1.013805 S    
C88   C108  1.428626 S    
C157  C185  1.492809 S    
O17   Zn5   1.991631 S    
C60   C196  1.493344 S    
C87   C107  1.428547 S    
O3    Zn2   1.991708 S    
C11   C183  1.477943 S    
O100  H62   1.013812 S    
C195  O109  1.223549 D    
C18   C54   1.482893 S    
C62   C66   1.389981 A    
C14   C190  1.490890 S    
N1    O50   1.301622 A    
C188  O95   1.223650 D    
C68   C72   1.389891 A    
C164  C167  1.391972 A    
C25   H5    1.081966 S    
C138  C141  1.399077 A    
C194  O107  1.223553 D    
C27   H7    1.081989 S    
C171  C173  1.196360 T    
O3    C3    1.272641 A    
C33   H9    1.084962 S    
C31   N3    1.441074 S    
C48   C52   1.395108 A    
C35   C55   1.383243 A    
O92   H58   1.013985 S    
C41   C45   1.382752 A    
C139  H43   1.083586 S    
O23   Zn7   2.018255 S    
C43   C47   1.382752 A    
O46   C135  1.281849 A    
C24   H4    1.083697 S    
O28   Zn7   2.015720 S    
C193  O106  1.398540 S    
O45   C135  1.281845 A    
N7    O70   1.301301 A    
C9    C181  1.477954 S    
C184  O87   1.223017 D    
O88   H56   1.013805 S    
C140  H44   1.083584 S    
C107  C119  1.197031 T    
C30   N2    1.441526 S    
O5    C1    1.272604 A    
C120  C134  1.419475 S    
C139  C142  1.399054 A    
C12   C16   1.423917 A    
C65   C69   1.390038 A    
N3    O54   1.301621 A    
O47   C136  1.281802 A    
C159  C162  1.419547 A    
Zn9   O45   1.991676 S    
N5    O66   1.301290 A    
C100  C112  1.427337 S    
C158  C165  1.399975 A    
O112  H68   1.013804 S    
C25   C29   1.400195 A    
N9    O74   1.301252 A    
C28   C32   1.399854 A    
O36   Zn12  1.992176 S    
O5    Zn3   1.990529 S    
C91   H31   1.083965 S    
O34   Zn10  1.992176 S    
C179  O62   1.399134 S    
C152  C154  1.196689 T    
Zn8   O32   1.991942 S    
C140  C143  1.393634 A    
O16   Zn4   2.014790 S    
O8    C4    1.272614 A    
C24   C28   1.389078 A    
C45   C49   1.394122 A    
C177  O58   1.399104 S    
O7    C3    1.272561 A    
Zn5   O29   1.991386 S    
C182  O84   1.397420 S    
C122  C154  1.418704 S    
C64   C68   1.389921 A    
C34   H10   1.084956 S    
C99   C103  1.411446 A    
O13   Zn3   2.015696 S    
C100  C104  1.411257 A    
O20   Zn8   1.991071 S    
C63   H19   1.083181 S    
C29   N1    1.441094 S    
N12   O79   1.301199 A    
Zn12  O48   1.992592 S    
O18   Zn6   1.991071 S    
C72   H28   1.082724 S    
N2    O52   1.301651 A    
C95   H35   1.084013 S    
C73   C77   1.428611 A    
C75   C79   1.428665 A    
C84   C88   1.411155 A    
C119  C133  1.419373 S    
C161  C169  1.432833 S    
C83   C103  1.412109 A    
O15   Zn4   2.015696 S    
C22   C26   1.389124 A    
C69   H25   1.082834 S    
C110  C114  1.196272 T    
C71   H27   1.082828 S    
C42   C46   1.382728 A    
C82   N10   1.438242 S    
C137  C146  1.393609 A    
C57   C61   1.405005 A    
C194  O108  1.398486 S    
O38   Zn10  1.990196 S    
C65   H21   1.082547 S    
C145  C148  1.398619 A    
C21   H1    1.083713 S    
C97   C109  1.427348 S    
O14   C6    1.267373 A    
C67   H23   1.082546 S    
O24   C126  1.267281 A    
O24   Zn8   2.018254 S    
C96   H36   1.083983 S    
N10   O75   1.301201 A    
C158  C161  1.419872 A    
C143  C147  1.398649 A    
O37   C131  1.283348 A    
C129  C175  1.418349 S    
C137  H41   1.083588 S    
O26   C124  1.268357 A    
O10   C6    1.266450 A    
C196  O111  1.223562 D    
C23   H3    1.083714 S    
C13   C189  1.491050 S    
C90   C94   1.387240 A    
O17   C121  1.272948 A    
C60   C64   1.405175 A    
C101  N5    1.438905 S    
C43   C79   1.484915 S    
C73   C177  1.496891 S    
C17   C21   1.397806 A    
C191  O102  1.398279 S    
O39   Zn11  1.990200 S    
O27   C125  1.268484 A    
C20   C24   1.397458 A    
C69   C73   1.405483 A    
H39   C146  1.083599 S    
C189  O98   1.398275 S    
C140  C142  1.399057 A    
C103  N7    1.439026 S    
O25   Zn6   2.015722 S    
C48   H16   1.085145 S    
O41   Zn10  1.994807 S    
C185  O89   1.223650 D    
O102  H63   1.013813 S    
C187  O94   1.398522 S    
C26   H6    1.081886 S    
O32   C128  1.272615 A    
C89   C93   1.387246 A    
C190  O100  1.397821 S    
N4    O55   1.301333 A    
C39   C125  1.432308 S    
C58   C62   1.405065 A    
O98   H61   1.013807 S    
C60   C80   1.424684 A    
N6    O68   1.301283 A    
C22   H2    1.083714 S    
C19   C55   1.482937 S    
C157  C161  1.419692 A    
O39   C133  1.283279 A    
O26   Zn5   2.015720 S    
C159  C187  1.492667 S    
O21   Zn5   2.018255 S    
O94   H59   1.013949 S    
O22   C124  1.268130 A    
C37   C41   1.408194 A    
C183  O86   1.397542 S    
Zn6   O30   1.991942 S    
C76   C80   1.428149 A    
O19   C122  1.273097 A    
N8    O71   1.301175 A    
C186  O92   1.398515 S    
O29   C127  1.272940 A    
C181  O82   1.397541 S    
C178  O60   1.399070 S    
O12   Zn2   2.016542 S    
C5    C49   1.426421 S    
O62   H51   1.013907 S    
C26   C30   1.400559 A    
C44   C48   1.382780 A    
O1    C1    1.272546 A    
O43   C133  1.282109 A    
C90   H30   1.083942 S    
O23   C125  1.268175 A    
O86   H55   1.013751 S    
C49   C53   1.405841 A    
C142  C150  1.426174 S    
O22   Zn6   2.018254 S    
C13   C17   1.417098 A    
C68   H24   1.082551 S    
O21   C123  1.268169 A    
C102  N6    1.438880 S    
C167  C171  1.424899 S    
N11   O77   1.301203 A    
N1    O49   1.301241 A    
O41   C131  1.282097 A    
C105  C117  1.197089 T    
C127  C173  1.418519 S    
C147  C151  1.424660 S    
O82   H53   1.013749 S    
C41   C77   1.484893 S    
C150  C156  1.197670 T    
C52   C56   1.406753 A    
C8    C52   1.429104 S    
C9    C29   1.419097 A    
C44   C80   1.484812 S    
C11   C15   1.423842 A    
C12   C32   1.419470 A    
C36   H12   1.085084 S    
C193  O105  1.223547 D    
C89   H29   1.083942 S    
C72   C76   1.405278 A    
C81   N9    1.438236 S    
C92   H32   1.083944 S    
O6    C2    1.272622 A    
O4    Zn2   1.991150 S    
O110  H67   1.013801 S    
C2    C114  1.417858 S    
C63   C67   1.389920 A    
C87   C91   1.395504 A    
H48   C165  1.084859 S    
C17   C53   1.482935 S    
C82   C102  1.411861 A    
C130  C176  1.418159 S    
C162  C170  1.432686 S    
O42   Zn9   1.994815 S    
C47   H15   1.085235 S    
C23   C27   1.388859 A    
N5    O65   1.301175 A    
C141  C149  1.426211 S    
C128  C174  1.418585 S    
C108  C120  1.197085 T    
O2    Zn1   1.991150 S    
C6    C50   1.426637 S    
O10   Zn1   2.016542 S    
C97   C101  1.411316 A    
N9    O73   1.301200 A    
C57   C77   1.424622 A    
C59   C195  1.493153 S    
O18   C121  1.272908 A    
N7    O69   1.301199 A    
N6    O67   1.301176 A    
C59   C79   1.424631 A    
C112  C116  1.196270 T    
C104  N8    1.438872 S    
C179  O61   1.222133 D    
C136  C156  1.420859 S    
C192  O104  1.398420 S    
C98   C110  1.427339 S    
C96   C100  1.395544 A    
C36   C56   1.383144 A    
C93   H33   1.083993 S    
O27   Zn8   2.015722 S    
C39   C43   1.408212 A    
O84   H54   1.013735 S    
C74   C178  1.496599 S    
C177  O57   1.222141 D    
O12   C8    1.266988 A    
C15   C19   1.417095 A    
O96   H60   1.013942 S    
H40   C145  1.083617 S    
C40   C44   1.406831 A    
C92   C96   1.387240 A    
C81   C101  1.411856 A    
O108  H66   1.013802 S    
C180  O63   1.222208 D    
C163  C167  1.391698 A    
C195  O110  1.398540 S    
C91   C95   1.387062 A    
C84   C104  1.411851 A    
C66   C70   1.390034 A    
C172  C174  1.196403 T    
C18   C22   1.397857 A    
C83   C87   1.411286 A    
C188  O96   1.398480 S    
N12   O80   1.301249 A    
C34   C54   1.383285 A    
C149  C155  1.197692 T    
O35   Zn11  1.993086 S    
C32   N4    1.439108 S    
O90   H57   1.013954 S    
Zn7   O31   1.991386 S    
C45   H13   1.085234 S    
O44   Zn11  1.994815 S    
C166  C168  1.392043 A    
C144  C147  1.398634 A    
C148  C152  1.424610 S    
C93   C97   1.395556 A    
C46   C50   1.394250 A    
O11   C7    1.266243 A    
C169  C175  1.197230 T    
C184  O88   1.398227 S    
O60   H50   1.013898 S    
C170  C176  1.197131 T    
O1    Zn1   1.991708 S    
O9    Zn1   2.015636 S    
C117  C131  1.419482 S    
C33   C53   1.383247 A    
O44   C134  1.282108 A    
C58   C78   1.424564 A    
C35   H11   1.084961 S    
C137  C141  1.399055 A    
O16   C8    1.268119 A    
C16   C20   1.417398 A    
N10   O76   1.301252 A    
O58   H49   1.013903 S    
O11   Zn2   2.015636 S    
C19   C23   1.397821 A    
O19   Zn7   1.991631 S    
O64   H52   1.013879 S    
C86   C106  1.428634 S    
C74   C78   1.428497 A    
O6    Zn3   1.991082 S    
C160  C163  1.399878 A    
O33   C129  1.282507 A    
C20   C56   1.482379 S    
N11   O78   1.301250 A    
C67   C71   1.390031 A    
C191  O101  1.222184 D    
C70   H26   1.082843 S    
O36   C130  1.283463 A    
C138  C145  1.393647 A    
O31   C128  1.273000 A    
C27   C31   1.400195 A    
O2    C2    1.272523 A    
C58   C194  1.493030 S    
C189  O97   1.222188 D    
C66   H22   1.082548 S    
C33   C37   1.396934 A    
C14   C18   1.417575 A    
O25   C123  1.268478 A    
O14   Zn3   2.014790 S    
C35   C39   1.396949 A    
C85   C105  1.428627 S    
C86   C90   1.395687 A    
H37   C144  1.083609 S    
C84   N12   1.438247 S    
C106  C118  1.197088 T    
C187  O93   1.223661 D    
C138  H42   1.083583 S    
C75   C179  1.496960 S    
N2    O51   1.301118 A    
C12   C184  1.484184 S    
C190  O99   1.222934 D    
N4    O56   1.301538 A    
O34   C129  1.283363 A    
C42   C78   1.485039 S    
O30   C127  1.272641 A    
C57   C193  1.493163 S    
C10   C30   1.418886 A    
C36   C40   1.395888 A    
O40   Zn12  1.990196 S    
O28   C126  1.267799 A    
C70   C74   1.405374 A    
C157  C166  1.400123 A    
C15   C191  1.491042 S    
Zn11  O47   1.991676 S    
C182  O83   1.222192 D    
C7    C51   1.426408 S    
C183  O85   1.222399 D    
O42   C132  1.282101 A    
C61   H17   1.083181 S    
C28   H8    1.081852 S    
