data_mof_unit_39220.cif
_audit_creation_date              2012-10-26T20:38:48-0400
_audit_creation_method            fapswitch 2.2
_symmetry_space_group_name_H-M    P1
_symmetry_Int_Tables_number       1
_space_group_crystal_system       triclinic
_cell_length_a                    23.548501
_cell_length_b                    13.012692
_cell_length_c                    11.646726
_cell_angle_alpha                 100.506422
_cell_angle_beta                  92.915374
_cell_angle_gamma                 90.719888
_cell_volume                      3503.65629369

loop_
_atom_site_label
_atom_site_type_symbol
_atom_type_description
_atom_site_fract_x
_atom_site_fract_y
_atom_site_fract_z
_atom_type_partial_charge
C1    C     C_R   0.499133 0.298903 0.477812 0.588208
C2    C     C_R   0.703461 0.479241 0.595210 -0.229244
C3    C     C_R   0.236179 0.508733 0.402132 -0.124146
C4    C     C_R   0.762518 0.478946 0.597325 -0.140950
C5    C     C_R   0.208838 0.510590 0.506135 0.197696
C6    C     C_R   0.791073 0.498687 0.501115 0.203656
C7    C     C_R   0.502377 0.814383 0.536984 -0.051889
C8    C     C_R   0.496875 0.184958 0.464227 -0.042608
C9    C     C_R   0.454583 0.018098 0.368257 0.291563
C10   C     C_R   0.538377 0.982744 0.640538 0.279763
C11   C     C_R   0.466480 0.124013 0.368059 0.206049
C12   C     C_R   0.501174 0.700822 0.522192 0.566190
C13   C     C_R   0.536051 0.874171 0.628756 0.210179
C14   C     C_R   0.523754 0.137682 0.550971 0.212146
C15   C     C_R   0.470578 0.862756 0.457283 0.227700
C16   C     C_R   0.390796 0.501267 0.501601 0.556421
C17   C     C_R   0.609139 0.500757 0.498917 0.546030
C18   C     C_R   0.514067 0.030720 0.550445 -0.098716
C19   C     C_R   0.479345 0.970226 0.458059 -0.082594
C20   C     C_R   0.444764 0.404436 0.022367 -0.180861
C21   C     C_R   0.554950 0.596013 0.977709 -0.162205
C22   C     C_R   0.450200 0.413521 0.144612 0.039102
C23   C     C_R   0.241044 0.513244 0.612251 0.334979
C24   C     C_R   0.549535 0.586984 0.855492 0.056218
C25   C     C_R   0.523937 0.541146 0.156784 0.084270
C26   C     C_R   0.475882 0.459037 0.843181 0.066753
C27   C     C_R   0.519978 0.534815 0.034002 0.009541
C28   C     C_R   0.479842 0.465378 0.965978 0.001974
C29   C     C_R   0.880348 0.594310 0.516424 0.444442
C30   C     C_R   0.120363 0.417895 0.515030 0.440691
C31   C     C_R   0.880193 0.409257 0.503123 0.382107
C32   C     C_R   0.119303 0.597158 0.495748 0.376581
C33   C     C_R   0.940338 0.409291 0.515112 -0.027554
C34   C     C_R   0.760162 0.517624 0.400955 0.329858
C35   C     C_R   0.060013 0.601555 0.510038 -0.030556
C36   C     C_R   0.970329 0.505282 0.518873 -0.103656
C37   C     C_R   0.030421 0.507462 0.517474 -0.105816
C38   C     C_R   0.940214 0.598992 0.522339 0.021554
C39   C     C_R   0.060835 0.415140 0.521831 0.016714
C40   C     C_R   0.971502 0.317736 0.523498 -0.019421
C41   C     C_R   0.029509 0.696095 0.519196 -0.018866
C42   C     C_R   0.031232 0.322995 0.534272 0.253084
C43   C     C_R   0.970538 0.694925 0.532479 0.257687
C44   C     C_R   0.943722 0.214754 0.523173 0.121648
C45   C     C_R   0.300690 0.511611 0.612196 0.270068
C46   C     C_R   0.915152 0.196110 0.620622 -0.050123
C47   C     C_R   0.888008 0.099475 0.618094 -0.113613
C48   C     C_R   0.889858 0.020741 0.519157 -0.075401
C49   C     C_R   0.919648 0.037795 0.423373 -0.093743
C50   C     C_R   0.946557 0.134477 0.425223 -0.045854
C51   C     C_R   0.057538 0.798925 0.519661 0.122123
C52   C     C_R   0.092939 0.846882 0.615766 -0.055067
C53   C     C_R   0.119992 0.942858 0.614277 -0.115416
C54   C     C_R   0.111311 0.991959 0.517783 -0.076847
C55   C     C_R   0.074833 0.946133 0.423481 -0.094304
C56   C     C_R   0.700485 0.523094 0.400537 0.251478
C57   C     C_R   0.047952 0.849905 0.424275 -0.041751
C58   C     C_3   0.069462 0.244452 0.677476 -0.088935
C59   C     C_3   0.941338 0.821014 0.676729 -0.098776
C60   C     C_3   0.186360 0.601378 0.755112 -0.119917
C61   C     C_3   0.792760 0.443606 0.226239 -0.099050
C62   C     C_3   0.342206 0.610946 0.776450 -0.084328
C63   C     C_3   0.668659 0.656430 0.315598 -0.097245
C64   C     C_3   0.382112 0.787189 0.428148 -0.076697
C65   C     C_3   0.613811 0.203089 0.594054 -0.058433
C66   C     C_3   0.620732 0.807261 0.676059 -0.091529
C67   C     C_R   0.328172 0.506162 0.505674 -0.043518
C68   C     C_3   0.481631 0.146924 0.183498 -0.106246
C69   C     C_3   0.365021 0.989671 0.280208 -0.066101
C70   C     C_3   0.530736 0.064609 0.827966 -0.064723
C71   C     C_R   0.671722 0.500810 0.497276 -0.040202
C72   C     C_R   0.295202 0.506388 0.401741 -0.223671
Cu1   Cu    Cu3+1 0.504210 0.507730 0.615930 0.977922
Cu2   Cu    Cu3+1 0.495790 0.492270 0.384070 0.985163
H1    H     H_    0.445172 0.405890 0.789865 0.150326
H2    H     H_    0.786318 0.463602 0.674211 0.136707
H3    H     H_    0.913229 0.256885 0.697334 0.091911
H4    H     H_    0.865322 0.085759 0.692589 0.097869
H5    H     H_    0.868284 0.946412 0.516756 0.169809
H6    H     H_    0.921583 0.976322 0.347419 0.114417
H7    H     H_    0.969126 0.147233 0.350119 0.104731
H8    H     H_    0.100139 0.809100 0.690600 0.080897
H9    H     H_    0.147871 0.978971 0.687676 0.099182
H10   H     H_    0.132780 0.065638 0.516136 0.171080
H11   H     H_    0.067652 0.984887 0.349482 0.113171
H12   H     H_    0.554248 0.594791 0.210190 0.136382
H13   H     H_    0.020101 0.814636 0.350338 0.109576
H14   H     H_    0.028587 0.244274 0.721234 0.089881
H15   H     H_    0.095239 0.315717 0.716587 0.149254
H16   H     H_    0.093497 0.175961 0.695489 0.137307
H17   H     H_    0.984894 0.835515 0.718652 0.093366
H18   H     H_    0.918119 0.762827 0.717124 0.126224
H19   H     H_    0.918372 0.895472 0.695518 0.134617
H20   H     H_    0.202338 0.670699 0.721272 0.100557
H21   H     H_    0.191867 0.620132 0.851883 0.128979
H22   H     H_    0.140122 0.589286 0.732727 0.127653
H23   H     H_    0.576696 0.634258 0.812794 0.151289
H24   H     H_    0.750007 0.410665 0.192517 0.143235
H25   H     H_    0.817456 0.385191 0.265709 0.140088
H26   H     H_    0.815818 0.459634 0.150464 0.133436
H27   H     H_    0.302552 0.647503 0.810089 0.118056
H28   H     H_    0.362862 0.660685 0.721394 0.101721
H29   H     H_    0.371815 0.608177 0.852974 0.147139
H30   H     H_    0.711795 0.694102 0.329525 0.159567
H31   H     H_    0.641471 0.689720 0.387917 0.093093
H32   H     H_    0.649361 0.675798 0.233568 0.119439
H33   H     H_    0.364079 0.862177 0.471387 0.092868
H34   H     H_    0.422836 0.366654 0.187433 0.157911
H35   H     H_    0.388238 0.734402 0.492531 0.096556
H36   H     H_    0.350348 0.748963 0.359535 0.143981
H37   H     H_    0.613247 0.244896 0.518767 0.092207
H38   H     H_    0.631886 0.124009 0.568836 0.123368
H39   H     H_    0.642504 0.248181 0.664394 0.145434
H40   H     H_    0.644048 0.880517 0.668650 0.141306
H41   H     H_    0.620611 0.750552 0.592154 0.092045
H42   H     H_    0.644246 0.771604 0.743307 0.129529
H43   H     H_    0.483833 0.061441 0.150043 0.148214
H44   H     H_    0.525080 0.180570 0.209567 0.122100
H45   H     H_    0.413362 0.350340 0.972545 0.102026
H46   H     H_    0.464600 0.183155 0.110163 0.116423
H47   H     H_    0.357650 0.055666 0.233343 0.162603
H48   H     H_    0.350669 0.010404 0.371154 0.093949
H49   H     H_    0.337861 0.922924 0.234409 0.128489
H50   H     H_    0.514549 0.992784 0.855871 0.128523
H51   H     H_    0.494590 0.111548 0.802326 0.122170
H52   H     H_    0.554226 0.112661 0.904572 0.131852
H53   H     H_    0.586250 0.650286 0.027595 0.092846
H54   H     H_    0.315006 0.503773 0.319368 0.153363
H55   H     H_    0.682602 0.462449 0.670697 0.148194
H56   H     H_    0.211427 0.507298 0.320879 0.149932
N1    N     N_R   0.852104 0.500720 0.506257 -0.384045
N2    N     N_R   0.147882 0.507996 0.503796 -0.390751
N3    N     N_R   0.510550 0.519360 0.790130 -0.235493
N4    N     N_R   0.489450 0.480640 0.209870 -0.231167
O1    O     O_R   0.502990 0.354470 0.582000 -0.466862
O2    O     O_2   0.150829 0.331038 0.517043 -0.441137
O3    O     O_2   0.849510 0.319089 0.485891 -0.517635
O4    O     O_2   0.148726 0.680548 0.474329 -0.517476
O5    O     O_3   0.060385 0.235940 0.555229 -0.540310
O6    O     O_3   0.942763 0.789095 0.554297 -0.536681
O7    O     O_3   0.215223 0.507993 0.715472 -0.527868
O8    O     O_3   0.788577 0.538078 0.306371 -0.535144
O9    O     O_3   0.331534 0.507801 0.715625 -0.528750
O10   O     O_3   0.670762 0.546706 0.303552 -0.550021
O11   O     O_3   0.433210 0.803349 0.374747 -0.488185
O12   O     O_R   0.497010 0.645530 0.418000 -0.475544
O13   O     O_3   0.559167 0.197247 0.637308 -0.504703
O14   O     O_3   0.564926 0.827388 0.711359 -0.544744
O15   O     O_3   0.445030 0.169320 0.276753 -0.561400
O16   O     O_3   0.422437 0.959424 0.275516 -0.508578
O17   O     O_3   0.568329 0.040035 0.736887 -0.507462
O18   O     O_R   0.495870 0.341410 0.386200 -0.478124
O19   O     O_R   0.504130 0.658590 0.613800 -0.479370
O20   O     O_R   0.421440 0.506500 0.597920 -0.472771
O21   O     O_R   0.578560 0.493500 0.402080 -0.467099
O22   O     O_R   0.414320 0.493440 0.402120 -0.511203
O23   O     O_R   0.585680 0.506560 0.597880 -0.521495
O24   O     O_2   0.850157 0.682060 0.518637 -0.451811

loop_
_geom_bond_atom_site_label_1
_geom_bond_atom_site_label_2
_ccdc_geom_bond_type
C24   N3    A    
C58   O5    S    
C34   C56   A    
C23   C45   A    
C64   O11   S    
C1    C8    S    
Cu1   Cu2   S    
C14   C18   A    
C61   H24   S    
C62   O9    S    
C2    H55   S    
C54   H10   S    
C53   C54   A    
C15   C19   A    
C66   H42   S    
C22   N4    A    
C69   O16   S    
C59   O6    S    
C48   H5    S    
C36   C37   A    
C35   C37   A    
C18   C19   A    
C10   O17   S    
C22   H34   S    
C69   H49   S    
C3    H56   S    
Cu1   O23   S    
C33   C36   A    
C1    O18   A    
C67   C72   A    
C12   O12   A    
C68   H43   S    
C65   H37   S    
C31   N1    A    
C68   O15   S    
C68   H44   S    
C46   C47   A    
Cu2   O21   S    
C11   O15   S    
C5    N2    S    
Cu1   O1    S    
C44   C46   A    
Cu1   O20   S    
C16   O22   A    
C63   O10   S    
C31   C33   A    
C51   C57   A    
C21   H53   S    
C17   O23   A    
C12   O19   A    
C40   C44   S    
C66   O14   S    
C59   H18   S    
C62   H27   S    
C70   H52   S    
C40   C42   A    
C21   C27   A    
C41   C43   A    
Cu2   O18   S    
C32   O4    S    
C61   H25   S    
C9    C19   A    
C39   C42   A    
C7    C12   S    
C9    O16   S    
C33   C40   A    
C65   O13   S    
C51   C52   A    
C32   C35   A    
C29   C38   A    
C4    C6    A    
C66   H41   S    
C15   O11   S    
C63   H30   S    
C20   C28   A    
C14   O13   S    
C57   H13   S    
C55   H11   S    
C2    C4    A    
C65   H38   S    
C45   C67   A    
C70   H50   S    
C60   O7    S    
C58   H16   S    
C31   O3    S    
C64   H36   S    
C47   C48   A    
C5    C23   A    
C69   H47   S    
C56   C71   A    
C26   H1    S    
Cu2   O22   S    
C43   O6    S    
C16   C67   S    
C59   H17   S    
C63   H32   S    
C52   H8    S    
C25   N4    A    
C9    C11   A    
C60   H22   S    
C70   H51   S    
C48   C49   A    
Cu1   N3    S    
C17   C71   S    
C30   O2    S    
C55   C57   A    
C16   O20   A    
C61   H26   S    
C63   H31   S    
C2    C71   A    
C17   O21   A    
C32   N2    A    
C52   C53   A    
C64   H33   S    
C62   H29   S    
C44   C50   A    
C54   C55   A    
C34   O8    S    
C8    C14   A    
C66   H40   S    
C42   O5    S    
C65   H39   S    
Cu2   O12   S    
C70   O17   S    
C20   C22   A    
C6    N1    S    
C3    C5    A    
C10   C13   A    
C58   H14   S    
C46   H3    S    
C29   O24   S    
C25   C27   A    
C26   C28   A    
C13   O14   S    
C49   H6    S    
C53   H9    S    
C36   C38   A    
C3    C72   A    
C38   C43   A    
C37   C39   A    
C26   N3    A    
C68   H46   S    
C64   H35   S    
C29   N1    A    
C69   H48   S    
C10   C18   A    
C8    C11   A    
C30   N2    A    
Cu2   N4    S    
C7    C15   A    
C25   H12   S    
C30   C39   A    
C24   H23   S    
C35   C41   A    
C58   H15   S    
C4    H2    S    
C56   O10   S    
C60   H21   S    
C6    C34   A    
C61   O8    S    
C7    C13   A    
C49   C50   A    
C21   C24   A    
Cu1   O19   S    
C27   C28   A    
C45   O9    S    
C72   H54   S    
C23   O7    S    
C59   H19   S    
C47   H4    S    
C1    O1    A    
C41   C51   S    
C20   H45   S    
C50   H7    S    
C62   H28   S    
C60   H20   S    
