data_mof_unit_30142.cif
_audit_creation_date              2012-12-10T18:16:21-0500
_audit_creation_method            fapswitch 2.2
_symmetry_space_group_name_H-M    P1
_symmetry_Int_Tables_number       1
_space_group_crystal_system       triclinic
_cell_length_a                    12.725371
_cell_length_b                    13.066134
_cell_length_c                    27.517757
_cell_angle_alpha                 91.361884
_cell_angle_beta                  102.678929
_cell_angle_gamma                 82.835878
_cell_volume                      4428.96601787

loop_
_atom_site_label
_atom_site_type_symbol
_atom_type_description
_atom_site_fract_x
_atom_site_fract_y
_atom_site_fract_z
_atom_type_partial_charge
C1    C     C_R   0.439690 0.690430 0.489154 0.915996
C2    C     C_R   0.490824 0.606742 0.721406 0.334841
C3    C     C_R   0.471138 0.518461 0.744704 0.052530
C4    C     C_R   0.435876 0.527688 0.893380 -0.149864
C5    C     C_R   0.375243 0.604110 0.859885 -0.141252
C6    C     C_R   0.308392 0.684793 0.877567 0.356662
C7    C     C_R   0.506882 0.449851 0.877449 -0.031631
C8    C     C_R   0.502053 0.505079 0.647048 -0.335143
C9    C     C_R   0.488083 0.518318 0.353178 -0.397398
C10   C     C_R   0.401943 0.629112 0.015668 0.099226
C11   C     C_R   0.441089 0.440709 0.020861 -0.104886
C12   C     C_R   0.500993 0.501017 0.593815 1.013627
C13   C     C_R   0.421948 0.536664 0.043815 -0.085784
C14   C     C_R   0.413216 0.724061 0.041258 0.512443
C15   C     C_R   0.433573 0.724883 0.093677 -0.297155
C16   C     C_R   0.439263 0.633874 0.120631 -0.031215
C17   C     C_R   0.428148 0.539997 0.095292 -0.119687
C18   C     C_R   0.427825 0.448911 0.121601 -0.203309
C19   C     C_R   0.429903 0.456848 0.172736 0.609484
C20   C     C_R   0.462630 0.632744 0.172756 0.619024
C21   C     C_R   0.406025 0.611500 0.275583 0.489520
C22   C     C_R   0.414368 0.599633 0.327079 0.214706
C23   C     C_R   0.559315 0.309904 0.510982 0.876926
C24   C     C_R   0.547952 0.447759 0.327624 0.467105
C25   C     C_R   0.551829 0.468569 0.278597 0.333863
C26   C     C_R   0.474526 0.545552 0.251307 -0.075351
C27   C     C_R   0.380682 0.620219 0.962971 0.002377
C28   C     C_R   0.426772 0.529315 0.943164 -0.093977
C29   C     C_R   0.467606 0.441414 0.973701 0.068669
C30   C     C_R   0.316228 0.696432 0.929818 0.376460
C31   C     C_R   0.560332 0.369468 0.909910 -0.298387
C32   C     C_R   0.432892 0.349517 0.045828 0.413833
C33   C     C_R   0.427316 0.353402 0.096270 0.381231
C34   C     C_R   0.497735 0.502035 0.406244 0.980095
C35   C     C_R   0.539336 0.362723 0.957657 0.491695
C36   C     C_R   0.724306 0.052626 0.528104 0.540506
C37   C     C_R   0.591279 0.200945 0.523855 -0.269772
C38   C     C_R   0.291501 0.831595 0.453248 0.270407
C39   C     C_R   0.258074 0.938486 0.447389 0.289584
C40   C     C_R   0.329389 0.007573 0.471871 0.421495
C41   C     C_R   0.444037 0.973126 0.485286 -0.069392
C42   C     C_R   0.476566 0.869309 0.474965 -0.242174
C43   C     C_R   0.528946 0.035389 0.504050 -0.049491
C44   C     C_R   0.639445 0.995433 0.504879 -0.210899
C45   C     C_R   0.381159 0.594089 0.809316 0.700945
C46   C     C_R   0.662613 0.902259 0.481028 0.450275
C47   C     C_R   0.579959 0.841132 0.463922 0.387010
C48   C     C_R   0.510678 0.135963 0.521791 0.500997
C49   C     C_R   0.698858 0.157861 0.535593 -0.402003
C50   C     C_R   0.401758 0.797997 0.472460 -0.222266
C51   C     C_R   0.073085 0.423412 0.407595 -0.217970
C52   C     C_R   0.806168 0.600345 0.570154 -0.266052
C53   C     C_R   0.915422 0.600056 0.593338 0.291942
C54   C     C_R   0.994658 0.555036 0.568644 0.498860
C55   C     C_R   0.965230 0.528818 0.517348 -0.259586
C56   C     C_R   0.525100 0.456069 0.829574 0.607977
C57   C     C_R   0.853153 0.520259 0.498160 -0.063180
C58   C     C_R   0.041306 0.498635 0.486181 -0.157343
C59   C     C_R   0.001005 0.465882 0.436549 -0.177463
C60   C     C_R   0.889302 0.465933 0.418125 0.352305
C61   C     C_R   0.823774 0.469378 0.452570 0.531734
C62   C     C_R   0.155850 0.500688 0.500531 0.557574
C63   C     C_R   0.182657 0.405154 0.428585 0.522309
C64   C     C_R   0.466886 0.423372 0.719516 0.376123
C65   C     C_R   0.491351 0.415087 0.671867 0.237175
C66   C     C_R   0.505113 0.600330 0.671944 0.280852
H1    H     H_    0.617306 0.310844 0.897987 0.180919
H2    H     H_    0.762183 0.205641 0.548667 0.173378
H3    H     H_    0.045181 0.397326 0.369870 0.208990
H4    H     H_    0.744000 0.629105 0.589387 0.177523
H5    H     H_    0.445310 0.796861 0.113313 0.177254
N1    N     N_R   0.458695 0.523624 0.795554 -0.309907
N2    N     N_R   0.454403 0.545825 0.197774 -0.318099
N3    N     N_R   0.222180 0.444690 0.474320 -0.197545
N4    N     N_R   0.776980 0.554780 0.525420 -0.113744
O1    O     O_R   0.366730 0.627160 0.487740 -0.540624
O2    O     O_2   0.496003 0.716529 0.198151 -0.583238
O3    O     O_2   0.609012 0.395507 0.817135 -0.593821
O4    O     O_2   0.409873 0.376304 0.197658 -0.517155
O5    O     O_R   0.544830 0.662520 0.504140 -0.607754
O6    O     O_R   0.410970 0.482310 0.563040 -0.554903
O7    O     O_R   0.589070 0.517670 0.579450 -0.652250
O8    O     O_R   0.455170 0.337480 0.495860 -0.634529
O9    O     O_R   0.633270 0.372840 0.512260 -0.572254
O10   O     O_R   0.410930 0.482330 0.420550 -0.604355
O11   O     O_R   0.589030 0.517690 0.436960 -0.538761
O12   O     O_2   0.310677 0.653493 0.774278 -0.435980
Zn1   Zn    Zn3+2 0.381080 0.476390 0.489050 1.032026
Zn2   Zn    Zn3+2 0.618920 0.523610 0.510950 0.983826
O13   O     O_3   0.512630 0.688136 0.646251 -0.592552
C67   C     C_3   0.619172 0.715148 0.660810 0.120717
H6    H     H_    0.680582 0.648250 0.657854 0.126644
H7    H     H_    0.636498 0.742611 0.699939 0.163867
C68   C     C_3   0.631450 0.802477 0.627513 -0.851511
H8    H     H_    0.576087 0.872369 0.633056 0.262765
H9    H     H_    0.716308 0.821205 0.636880 0.198275
H10   H     H_    0.611132 0.779738 0.587748 0.266126
O14   O     O_3   0.421035 0.347372 0.739592 -0.609638
C69   C     C_3   0.484077 0.249975 0.742828 0.204788
H11   H     H_    0.572686 0.255870 0.749845 0.173848
H12   H     H_    0.458017 0.205815 0.708228 0.196198
C70   C     C_3   0.463429 0.189394 0.785626 -0.830950
H13   H     H_    0.375960 0.179789 0.779296 0.260182
H14   H     H_    0.511571 0.111983 0.788200 0.216034
H15   H     H_    0.487430 0.230509 0.821323 0.268250
O15   O     O_3   0.426939 0.256148 0.021225 -0.560180
C71   C     C_3   0.319084 0.252222 0.994884 0.104174
H16   H     H_    0.293142 0.314757 0.966379 0.130065
H17   H     H_    0.262519 0.258881 0.020827 0.161219
C72   C     C_3   0.311894 0.149224 0.968212 -0.737682
H18   H     H_    0.336109 0.085005 0.995690 0.265678
H19   H     H_    0.227317 0.144916 0.947371 0.204719
H20   H     H_    0.366546 0.140969 0.941570 0.257687
O16   O     O_3   0.587782 0.350903 0.348106 -0.550785
C73   C     C_3   0.514487 0.280905 0.325459 0.152520
H21   H     H_    0.533079 0.254012 0.289266 0.202796
H22   H     H_    0.427752 0.316063 0.318646 0.157609
C74   C     C_3   0.524052 0.187177 0.358580 -0.831276
H23   H     H_    0.509713 0.211768 0.395737 0.256232
H24   H     H_    0.461920 0.136713 0.341472 0.231283
H25   H     H_    0.605071 0.141789 0.362329 0.254616
O17   O     O_3   0.420383 0.263356 0.120224 -0.554693
C75   C     C_3   0.526085 0.211380 0.136809 0.174407
H26   H     H_    0.580187 0.261949 0.160950 0.148355
H27   H     H_    0.562242 0.184552 0.104686 0.175631
C76   C     C_3   0.520175 0.117497 0.167286 -0.747992
H28   H     H_    0.468070 0.064515 0.144090 0.250474
H29   H     H_    0.602805 0.075831 0.180505 0.206750
H30   H     H_    0.485716 0.141950 0.200084 0.266715
O18   O     O_3   0.624751 0.405781 0.257201 -0.708927
H31   H     H_    0.633401 0.439999 0.226827 0.334881
O19   O     O_3   0.597557 0.287355 0.990697 -0.728359
H32   H     H_    0.644171 0.239434 0.973530 0.333972
O20   O     O_3   0.759932 0.882160 0.465966 -0.566309
C77   C     C_3   0.821850 0.795121 0.491589 0.240859
H33   H     H_    0.792648 0.723645 0.474236 0.187966
H34   H     H_    0.819798 0.796446 0.531927 0.122210
C78   C     C_3   0.938600 0.794538 0.487455 -0.871551
H35   H     H_    0.967611 0.868135 0.501841 0.281985
H36   H     H_    0.990143 0.731340 0.510213 0.194372
H37   H     H_    0.945267 0.784063 0.448039 0.253516
O21   O     O_3   0.831618 0.008404 0.538255 -0.591789
C79   C     C_3   0.874279 0.010674 0.590203 0.049655
H38   H     H_    0.820046 0.978969 0.611337 0.141389
H39   H     H_    0.886299 0.090745 0.602773 0.138524
C80   C     C_3   0.984315 0.945215 0.602664 -0.788824
H40   H     H_    0.039677 0.972311 0.580984 0.238575
H41   H     H_    0.020679 0.951524 0.643006 0.230294
H42   H     H_    0.975023 0.863014 0.593927 0.266408
O22   O     O_3   0.493056 0.698234 0.747634 -0.727067
H43   H     H_    0.475810 0.756798 0.723877 0.371506
O23   O     O_3   0.425441 0.163906 0.544673 -0.750274
H44   H     H_    0.436218 0.228611 0.563587 0.364428
O24   O     O_3   0.221369 0.760349 0.436165 -0.718602
H45   H     H_    0.169475 0.765650 0.458475 0.313647
O25   O     O_3   0.286429 0.109478 0.475610 -0.528749
C81   C     C_3   0.213111 0.113863 0.508195 0.211314
H46   H     H_    0.255468 0.084273 0.545969 0.151012
H47   H     H_    0.144846 0.068479 0.494342 0.114407
C82   C     C_3   0.162798 0.223890 0.513135 -0.817994
H48   H     H_    0.115735 0.252726 0.476243 0.238685
H49   H     H_    0.106311 0.225538 0.538719 0.177388
H50   H     H_    0.226592 0.273815 0.528308 0.272234
O26   O     O_3   0.167918 0.980288 0.411969 -0.563828
C83   C     C_3   0.070906 0.943982 0.416636 0.139404
H51   H     H_    0.070459 0.928218 0.456010 0.092628
H52   H     H_    0.058221 0.873742 0.393638 0.207537
C84   C     C_3   0.976208 0.025880 0.396910 -0.798340
H53   H     H_    0.971872 0.041760 0.357004 0.267460
H54   H     H_    0.899153 0.998426 0.400592 0.239025
H55   H     H_    0.986723 0.098357 0.418355 0.246607
O27   O     O_3   0.599468 0.760491 0.432363 -0.746559
H56   H     H_    0.529267 0.742521 0.412706 0.328821
O28   O     O_3   0.249282 0.352632 0.400820 -0.724946
H57   H     H_    0.317812 0.326680 0.423840 0.381524
O29   O     O_3   0.847697 0.431869 0.370819 -0.691745
H58   H     H_    0.879708 0.359132 0.368721 0.336518
O30   O     O_3   0.202511 0.569362 0.534707 -0.664937
H59   H     H_    0.149436 0.631652 0.534143 0.327326
O31   O     O_3   0.238192 0.751707 0.843743 -0.696738
H60   H     H_    0.173165 0.775135 0.857162 0.339797
O32   O     O_3   0.097806 0.527410 0.596794 -0.540039
C85   C     C_3   0.102680 0.427128 0.615862 0.093506
H61   H     H_    0.073476 0.371981 0.585948 0.098771
H62   H     H_    0.053136 0.428121 0.644613 0.166322
C86   C     C_3   0.219488 0.388772 0.639981 -0.661463
H63   H     H_    0.249847 0.442371 0.670206 0.276931
H64   H     H_    0.224718 0.310542 0.655913 0.201972
H65   H     H_    0.270443 0.385228 0.611851 0.269204
O33   O     O_3   0.947193 0.635573 0.641316 -0.720991
H66   H     H_    0.881748 0.664440 0.653389 0.321597
O34   O     O_3   0.758825 0.391481 0.449099 -0.523980
C87   C     C_3   0.825991 0.297002 0.463816 0.108091
H67   H     H_    0.839923 0.288326 0.504580 0.134127
H68   H     H_    0.908310 0.290672 0.455437 0.082501
C88   C     C_3   0.772759 0.208249 0.436788 -0.737547
H69   H     H_    0.773665 0.211698 0.396613 0.266547
H70   H     H_    0.817534 0.133857 0.452457 0.228334
H71   H     H_    0.688017 0.213282 0.441019 0.271348
O35   O     O_3   0.343041 0.662822 0.349239 -0.720649
H72   H     H_    0.366499 0.658393 0.385794 0.352754
O36   O     O_3   0.321637 0.676729 0.246874 -0.567875
C89   C     C_3   0.329354 0.781247 0.260471 0.214738
H73   H     H_    0.415013 0.798474 0.271762 0.153818
H74   H     H_    0.287616 0.802235 0.291360 0.207782
C90   C     C_3   0.271334 0.850196 0.216431 -0.780912
H75   H     H_    0.184380 0.838162 0.205907 0.261556
H76   H     H_    0.277029 0.932372 0.226655 0.210739
H77   H     H_    0.308607 0.832360 0.183879 0.273334
O37   O     O_3   0.418320 0.812081 0.015428 -0.732236
H78   H     H_    0.427629 0.870715 0.038898 0.330220
O38   O     O_3   0.254044 0.775392 0.948530 -0.729248
H79   H     H_    0.246441 0.837370 0.927402 0.353389
O39   O     O_3   0.503512 0.319444 0.649572 -0.632132
C91   C     C_3   0.615492 0.289534 0.651196 0.061646
H80   H     H_    0.670398 0.321499 0.683857 0.141336
H81   H     H_    0.635825 0.316292 0.616820 0.154364
C92   C     C_3   0.641169 0.172353 0.654148 -0.866095
H82   H     H_    0.582174 0.134864 0.625933 0.281958
H83   H     H_    0.723884 0.149253 0.647665 0.208111
H84   H     H_    0.638998 0.143924 0.691489 0.231724

loop_
_geom_bond_atom_site_label_1
_geom_bond_atom_site_label_2
_ccdc_geom_bond_type
C10   C27   A    
C58   C62   A    
C79   C80   S    
C21   C26   A    
C52   H4    S    
C24   O16   S    
C81   H46   S    
C49   H2    S    
C77   C78   S    
C71   H17   S    
C41   C42   A    
C54   C55   A    
C3    N1    S    
C89   H73   S    
C52   N4    A    
O30   H59   S    
C92   H82   S    
C75   H26   S    
C66   O13   S    
C3    C64   A    
O27   H56   S    
C8    C66   A    
C89   H74   S    
C83   H51   S    
O7    Zn2   S    
C23   O8    A    
C20   O2    S    
C92   H84   S    
C22   O35   S    
O26   C83   S    
C45   O12   S    
C79   H38   S    
C2    C3    A    
C4    C7    A    
C30   O38   S    
C5    C6    A    
O28   H57   S    
C90   H76   S    
C9    C22   A    
C75   H27   S    
C67   H7    S    
O15   C71   S    
C15   C16   A    
C26   N2    S    
C56   O3    S    
C70   H15   S    
C77   H34   S    
C18   C19   A    
C34   O11   A    
O5    Zn2   S    
C36   O21   S    
C74   H23   S    
C53   O33   S    
C72   H19   S    
O32   C85   S    
C84   H55   S    
C53   C54   A    
O35   H72   S    
C73   H22   S    
C12   O6    A    
C61   O34   S    
C71   H16   S    
C54   O32   S    
O29   H58   S    
C43   C48   A    
O1    Zn1   S    
C87   H67   S    
C8    C12   S    
C68   H9    S    
C6    O31   S    
C73   C74   S    
C64   O14   S    
O8    Zn1   S    
C59   C60   A    
C83   H52   S    
C32   O15   S    
C21   C22   A    
C45   N1    A    
C41   C43   A    
C68   H8    S    
C7    C56   A    
C88   H71   S    
C25   O18   S    
C42   C47   A    
C4    C28   A    
C44   C46   A    
C47   O27   S    
C80   H41   S    
C89   C90   S    
C7    C31   A    
O36   C89   S    
C14   O37   S    
O6    Zn1   S    
C82   H50   S    
C77   H33   S    
C51   C63   A    
C24   C25   A    
C88   H70   S    
C23   O9    A    
C91   C92   S    
C67   H6    S    
N4    Zn2   S    
C90   H75   S    
C16   C17   A    
C75   C76   S    
C68   H10   S    
C56   N1    A    
C25   C26   A    
C23   C37   S    
C5    C45   A    
O11   Zn2   S    
C72   H18   S    
C32   C33   A    
C60   C61   A    
C34   O10   A    
C82   H49   S    
C19   O4    S    
C85   H61   S    
O33   H66   S    
C8    C65   A    
C46   O20   S    
C80   H42   S    
C37   C49   A    
C92   H83   S    
C69   H11   S    
C14   C15   A    
C19   N2    A    
C16   C20   A    
C87   C88   S    
C87   H68   S    
C17   C18   A    
C12   O7    A    
C52   C53   A    
O23   H44   S    
C37   C48   A    
C70   H14   S    
C72   H20   S    
O24   H45   S    
C78   H36   S    
C42   C50   A    
C84   H53   S    
C6    C30   A    
C11   C32   A    
O37   H78   S    
C83   C84   S    
C55   C57   A    
C43   C44   A    
C10   C14   A    
C9    C34   S    
C60   O29   S    
C71   C72   S    
C31   C35   A    
C85   C86   S    
C51   C59   A    
O9    Zn2   S    
C38   O24   S    
C86   H64   S    
C78   H37   S    
C39   C40   A    
O31   H60   S    
C63   O28   S    
C80   H40   S    
C1    C50   S    
O10   Zn1   S    
C79   H39   S    
C46   C47   A    
C28   C29   A    
C76   H29   S    
C69   H12   S    
O22   H43   S    
C1    O1    A    
C21   O36   S    
C62   N3    A    
C88   H69   S    
C2    C66   A    
C10   C13   A    
C62   O30   S    
C33   O17   S    
C9    C24   A    
C57   C61   A    
O20   C77   S    
C38   C50   A    
C63   N3    A    
C81   C82   S    
C15   H5    S    
C29   C35   A    
C76   H30   S    
C13   C17   A    
C39   O26   S    
C82   H48   S    
C57   N4    A    
C86   H65   S    
C48   O23   S    
O18   H31   S    
C58   C59   A    
C65   O39   S    
O34   C87   S    
C67   C68   S    
C11   C13   A    
C90   H77   S    
O13   C67   S    
C38   C39   A    
C76   H28   S    
O39   C91   S    
C64   C65   A    
C84   H54   S    
C20   N2    A    
O19   H32   S    
O16   C73   S    
C2    O22   S    
C91   H80   S    
C70   H13   S    
C18   C33   A    
C74   H24   S    
C91   H81   S    
C36   C44   A    
C78   H35   S    
C31   H1    S    
C4    C5    A    
C69   C70   S    
O25   C81   S    
O38   H79   S    
C11   C29   A    
C85   H62   S    
C81   H47   S    
O14   C69   S    
C55   C58   A    
C27   C28   A    
O17   C75   S    
C1    O5    A    
O21   C79   S    
C40   O25   S    
C40   C41   A    
C51   H3    S    
N3    Zn1   S    
C86   H63   S    
C35   O19   S    
C74   H25   S    
C36   C49   A    
C73   H21   S    
C27   C30   A    
