data_mof_unit_9432.cif
_audit_creation_date              2012-12-11T15:37:27-0500
_audit_creation_method            fapswitch 2.2
_symmetry_space_group_name_H-M    P1
_symmetry_Int_Tables_number       1
_space_group_crystal_system       triclinic
_cell_length_a                    17.591038
_cell_length_b                    24.23965
_cell_length_c                    15.168953
_cell_angle_alpha                 90.102268
_cell_angle_beta                  126.279584
_cell_angle_gamma                 89.385328
_cell_volume                      5213.76553117

loop_
_atom_site_label
_atom_site_type_symbol
_atom_type_description
_atom_site_fract_x
_atom_site_fract_y
_atom_site_fract_z
_atom_type_partial_charge
C1    C     C_R   0.813194 0.630465 0.908559 -0.107139
C2    C     C_3   0.577201 0.501131 0.620693 -0.026962
C3    C     C_3   0.066507 0.971841 0.451456 -0.314789
C4    C     C_3   0.111086 0.633129 0.315434 0.186772
C5    C     C_3   0.198231 0.658910 0.416178 -0.311658
C6    C     C_3   0.242868 0.700528 0.384331 -0.957668
C7    C     C_3   0.854809 0.390258 0.639634 0.173515
C8    C     C_3   0.812847 0.339467 0.566945 -0.309101
C9    C     C_3   0.720383 0.323564 0.547860 -0.961478
C10   C     C_3   0.885123 0.627277 0.663395 0.186051
C11   C     C_3   0.786815 0.609444 0.567233 -0.338256
C12   C     C_3   0.712358 0.650802 0.547713 -0.920762
C13   C     C_3   0.921492 0.992825 0.376315 -0.032023
C14   C     C_3   0.171511 0.396065 0.442164 0.202061
C15   C     C_3   0.216215 0.339389 0.457692 -0.318242
C16   C     C_3   0.308414 0.333568 0.571769 -0.896234
C17   C     C_3   0.639274 0.122040 0.332933 0.197827
C18   C     C_3   0.663830 0.180255 0.379674 -0.279202
C19   C     C_3   0.735570 0.205940 0.366509 -1.013716
C20   C     C_3   0.388051 0.884264 0.569822 0.218239
C21   C     C_3   0.294250 0.878678 0.554186 -0.389095
C22   C     C_3   0.217249 0.858519 0.439438 -0.926044
C23   C     C_3   0.392112 0.134019 0.692709 0.192840
C24   C     C_3   0.090853 0.000817 0.555174 -0.035948
C25   C     C_3   0.308482 0.167090 0.600116 -0.325746
C26   C     C_3   0.271566 0.207489 0.644609 -0.950794
C27   C     C_3   0.657815 0.888718 0.421839 0.213752
C28   C     C_3   0.704412 0.856195 0.378772 -0.348538
C29   C     C_3   0.777457 0.814433 0.462411 -0.907491
C30   C     C_3   0.254033 0.586083 0.881136 0.163129
C31   C     C_3   0.301579 0.558118 0.834668 -0.341228
C32   C     C_3   0.314315 0.496206 0.858143 -0.914742
C33   C     C_3   0.052184 0.238313 0.218551 0.148954
C34   C     C_3   0.112392 0.196664 0.310430 -0.255628
C35   C     C_R   0.797850 0.230084 0.912764 -0.356550
C36   C     C_3   0.204119 0.184339 0.324814 -1.016491
C37   C     C_3   0.768728 0.597783 0.176689 0.154582
C38   C     C_3   0.813897 0.570864 0.288509 -0.220808
C39   C     C_3   0.763995 0.517494 0.278607 -1.013537
C40   C     C_3   0.948098 0.212545 0.773654 0.131260
C41   C     C_3   0.918583 0.173506 0.679155 -0.241400
C42   C     C_3   0.850087 0.130150 0.665023 -1.008717
C43   C     C_3   0.774881 0.103413 0.853689 0.148538
C44   C     C_3   0.727059 0.058239 0.767880 -0.247882
C45   C     C_3   0.794367 0.009160 0.800805 -0.971271
C46   C     C_R   0.324001 0.700577 0.110815 -0.325405
C47   C     C_3   0.541015 0.737199 0.236321 0.115103
C48   C     C_3   0.551025 0.674471 0.249350 -0.282609
C49   C     C_3   0.643847 0.655016 0.273507 -0.996850
C50   C     C_3   0.256476 0.086507 0.143632 0.145830
C51   C     C_3   0.213580 0.064830 0.199683 -0.311901
C52   C     C_3   0.202594 0.002289 0.189813 -0.926449
C53   C     C_3   0.445170 0.734946 0.778051 0.139915
C54   C     C_3   0.408030 0.680362 0.717267 -0.275669
C55   C     C_3   0.314815 0.666417 0.696549 -1.020725
C56   C     C_R   0.200734 0.226591 0.089720 -0.366993
C57   C     C_R   0.657881 0.685624 0.897490 -0.341544
C58   C     C_R   0.305409 0.726931 0.920518 -0.350183
C59   C     C_R   0.837503 0.191367 0.108870 -0.305621
C60   C     C_R   0.702790 0.728402 0.092982 -0.343384
C61   C     C_R   0.148483 0.346208 0.089654 -0.112141
C62   C     C_R   0.159099 0.189293 0.892202 -0.351710
C63   C     C_R   0.263288 0.679183 0.924294 0.583021
C64   C     C_R   0.890629 0.233554 0.110255 0.581689
C65   C     C_R   0.747933 0.680669 0.093989 0.571364
C66   C     C_R   0.104874 0.230969 0.892482 0.592476
C67   C     C_R   0.754039 0.182900 0.913863 0.575958
C68   C     C_R   0.380999 0.739737 0.113917 0.597858
C69   C     C_R   0.240847 0.177320 0.086228 0.588996
C70   C     C_R   0.605720 0.729499 0.894953 0.596108
C71   C     C_R   0.258536 0.673383 0.013407 -0.135947
C72   C     C_R   0.188384 0.626910 0.095540 -0.098972
C73   C     C_R   0.858628 0.259478 0.010081 -0.131596
C74   C     C_R   0.737263 0.666076 0.997198 -0.131275
C75   C     C_R   0.138078 0.256698 0.992650 -0.109206
C76   C     C_R   0.761075 0.170350 0.008963 -0.124384
C77   C     C_R   0.359193 0.760159 0.014230 -0.125604
C78   C     C_R   0.235588 0.167113 0.991363 -0.128835
C79   C     C_R   0.638608 0.756694 0.994128 -0.127978
C80   C     C_R   0.962046 0.457940 0.504062 -0.138534
C81   C     C_R   0.092152 0.534823 0.530308 -0.133983
C82   C     C_R   0.990104 0.455875 0.437348 -0.200284
C83   C     C_R   0.851404 0.346955 0.911665 -0.108864
C84   C     C_R   0.062575 0.537420 0.596041 -0.159132
C85   C     C_R   0.554114 0.967011 0.596966 -0.207377
C86   C     C_R   0.467512 0.040308 0.421432 -0.167992
C87   C     C_R   0.585251 0.969313 0.532998 -0.149577
C88   C     C_R   0.436198 0.038005 0.485389 -0.111239
C89   C     C_R   0.054454 0.494661 0.449936 0.150887
C90   C     C_R   0.997553 0.499001 0.582441 0.202195
C91   C     C_R   0.540129 0.004604 0.443166 0.224396
C92   C     C_R   0.478295 0.000502 0.571319 0.155870
C93   C     C_R   0.939669 0.351325 0.094130 -0.119671
C94   C     C_R   0.310042 0.126335 0.906214 -0.106593
C95   C     C_R   0.096263 0.628498 0.911818 -0.174251
C96   C     C_R   0.057074 0.349350 0.907265 -0.105910
C97   C     C_R   0.901526 0.622784 0.090536 -0.185929
C98   C     C_R   0.441824 0.851146 0.094636 -0.104389
C99   C     C_R   0.600741 0.122065 0.911740 -0.176224
C100  C     C_R   0.556273 0.849196 0.907333 -0.072028
C101  C     C_R   0.402426 0.125536 0.089863 -0.160173
C102  C     C_R   0.054514 0.544414 0.307306 0.454588
C103  C     C_R   0.972096 0.453109 0.709383 0.458132
C104  C     C_R   0.970004 0.545254 0.706648 0.436223
C105  C     C_R   0.648265 0.846243 0.089351 -0.137892
C106  C     C_R   0.055589 0.452829 0.304079 0.456984
C107  C     C_R   0.550606 0.046163 0.303848 0.414067
C108  C     C_R   0.457453 0.953607 0.700477 0.469846
C109  C     C_R   0.452926 0.045736 0.696807 0.454733
C110  C     C_R   0.548659 0.954810 0.303905 0.485160
C111  C     C_R   0.731238 0.454371 0.742555 -0.144639
C112  C     C_R   0.264002 0.542754 0.297245 -0.151303
C113  C     C_R   0.261672 0.451112 0.290071 -0.095993
C114  C     C_R   0.730380 0.545922 0.733996 -0.160501
C115  C     C_R   0.235046 0.954182 0.710451 -0.121881
C116  C     C_R   0.685170 0.131337 0.093026 -0.115347
C117  C     C_R   0.770614 0.043605 0.262174 -0.165875
C118  C     C_R   0.766769 0.952444 0.248890 -0.143962
C119  C     C_R   0.235576 0.045874 0.707295 -0.165490
C120  C     C_R   0.813438 0.639188 0.999045 0.138052
C121  C     C_R   0.116742 0.315305 0.996648 0.103734
C122  C     C_R   0.184782 0.642319 0.006105 0.119980
C123  C     C_R   0.880902 0.317280 0.005511 0.114173
C124  C     C_R   0.312281 0.139016 0.996425 0.115893
C125  C     C_R   0.616580 0.815314 0.996610 0.099044
C126  C     C_R   0.686634 0.140362 0.004358 0.155928
C127  C     C_R   0.351156 0.846824 0.912033 -0.104595
C128  C     C_R   0.381896 0.817280 0.006606 0.092188
C129  C     C_R   0.068169 0.497541 0.366728 -0.271402
C130  C     C_R   0.975364 0.498949 0.658326 -0.236314
C131  C     C_R   0.559224 0.001330 0.363800 -0.265941
C132  C     C_R   0.450570 0.999582 0.642253 -0.257117
C133  C     C_R   0.675319 0.500915 0.706692 0.171434
C134  C     C_R   0.314070 0.494903 0.347716 0.132220
C135  C     C_R   0.182600 0.000491 0.656311 0.151015
C136  C     C_R   0.824252 0.996508 0.286415 0.189385
C137  C     C_3   0.500440 0.470601 0.617640 0.217006
C138  C     C_3   0.406126 0.491859 0.446729 -0.030904
C139  C     C_3   0.483552 0.521763 0.450496 0.244092
C140  C     C_3   0.471379 0.442441 0.510630 0.193639
C141  C     C_3   0.511538 0.550288 0.556008 0.187762
C142  C     C_3   0.010473 0.971910 0.547249 0.234524
C143  C     C_3   0.001366 0.021445 0.383546 0.240853
C144  C     C_3   0.984269 0.943054 0.442507 0.204456
C145  C     C_3   0.027648 0.050506 0.488504 0.195958
C146  C     C_3   0.432783 0.519891 0.551929 -0.311288
C147  C     C_3   0.549723 0.472891 0.515130 -0.294238
C148  C     C_3   0.946799 0.021422 0.480916 -0.317439
H1    H     H_    0.761300 0.644774 0.826629 0.106899
H2    H     H_    0.071416 0.638392 0.829990 0.191439
H3    H     H_    0.744575 0.784868 0.485998 0.244122
H4    H     H_    0.190292 0.562479 0.855545 0.130346
H5    H     H_    0.304525 0.582657 0.972023 0.110719
H6    H     H_    0.258392 0.564493 0.745084 0.216829
H7    H     H_    0.371964 0.576589 0.872103 0.208572
H8    H     H_    0.358204 0.488379 0.947698 0.275369
H9    H     H_    0.350065 0.477407 0.824614 0.284182
H10   H     H_    0.244639 0.476385 0.818743 0.260330
H11   H     H_    0.093287 0.276712 0.239527 0.118438
H12   H     H_    0.039620 0.222332 0.141730 0.082796
H13   H     H_    0.012594 0.337843 0.823028 0.200937
H14   H     H_    0.128018 0.212718 0.387932 0.228791
H15   H     H_    0.072545 0.158114 0.290422 0.248231
H16   H     H_    0.188376 0.172313 0.245459 0.291062
H17   H     H_    0.241759 0.149266 0.382047 0.274398
H18   H     H_    0.250029 0.221151 0.356428 0.280611
H19   H     H_    0.784959 0.571635 0.129355 0.111990
H20   H     H_    0.690623 0.598845 0.132042 0.103145
H21   H     H_    0.889384 0.561963 0.326570 0.222186
H22   H     H_    0.810699 0.599736 0.343080 0.220869
H23   H     H_    0.686534 0.524188 0.229883 0.278635
H24   H     H_    0.924354 0.623896 0.173208 0.197724
H25   H     H_    0.788739 0.503066 0.360984 0.271197
H26   H     H_    0.779192 0.485128 0.238919 0.275614
H27   H     H_    0.886872 0.239433 0.749086 0.120258
H28   H     H_    0.965024 0.188407 0.846258 0.086776
H29   H     H_    0.884998 0.197925 0.602590 0.217756
H30   H     H_    0.981383 0.151942 0.694508 0.224302
H31   H     H_    0.886470 0.102185 0.737123 0.271111
H32   H     H_    0.824647 0.105163 0.591152 0.276894
H33   H     H_    0.788732 0.150102 0.656101 0.271839
H34   H     H_    0.800091 0.084374 0.933857 0.132413
H35   H     H_    0.485685 0.841072 0.179482 0.201414
H36   H     H_    0.836996 0.118431 0.858742 0.106476
H37   H     H_    0.663752 0.044391 0.760938 0.208592
H38   H     H_    0.704429 0.074591 0.687214 0.225178
H39   H     H_    0.859696 0.022308 0.811723 0.271559
H40   H     H_    0.760586 0.977097 0.736825 0.268201
H41   H     H_    0.813380 0.990619 0.878472 0.278313
H42   H     H_    0.599394 0.754786 0.315240 0.166286
H43   H     H_    0.549525 0.751210 0.172684 0.088079
H44   H     H_    0.547407 0.662713 0.317129 0.251587
H45   H     H_    0.493362 0.653718 0.173499 0.207022
H46   H     H_    0.581429 0.121981 0.830158 0.191012
H47   H     H_    0.643787 0.663934 0.201937 0.270919
H48   H     H_    0.651501 0.609916 0.289057 0.292830
H49   H     H_    0.704251 0.676390 0.345806 0.273427
H50   H     H_    0.318664 0.060700 0.168026 0.127037
H51   H     H_    0.202876 0.080325 0.053988 0.099248
H52   H     H_    0.259126 0.075757 0.287273 0.217436
H53   H     H_    0.143100 0.084343 0.161555 0.215234
H54   H     H_    0.156259 0.990145 0.102402 0.274509
H55   H     H_    0.170349 0.988215 0.230336 0.282596
H56   H     H_    0.272569 0.981691 0.230347 0.259729
H57   H     H_    0.509333 0.837404 0.823805 0.196650
H58   H     H_    0.392564 0.767792 0.726382 0.125005
H59   H     H_    0.450741 0.733801 0.855358 0.077723
H60   H     H_    0.397269 0.683718 0.637799 0.247920
H61   H     H_    0.459869 0.646626 0.765992 0.210838
H62   H     H_    0.326324 0.660841 0.775776 0.297356
H63   H     H_    0.287473 0.627569 0.649495 0.262548
H64   H     H_    0.262253 0.700133 0.650469 0.279243
H65   H     H_    0.428127 0.132206 0.173269 0.193365
H66   H     H_    0.709661 0.411746 0.725802 0.141018
H67   H     H_    0.283741 0.583884 0.329932 0.130533
H68   H     H_    0.274785 0.407969 0.311881 0.130445
H69   H     H_    0.187053 0.331047 0.172718 0.097502
H70   H     H_    0.707380 0.586811 0.702293 0.144820
H71   H     H_    0.217565 0.911608 0.685511 0.128821
H72   H     H_    0.796806 0.083972 0.295961 0.123943
H73   H     H_    0.785760 0.909522 0.256711 0.143785
H74   H     H_    0.219286 0.087490 0.676696 0.136386
H75   H     H_    0.381608 0.538482 0.564042 0.167032
H76   H     H_    0.599838 0.454296 0.501286 0.169895
H77   H     H_    0.896538 0.041282 0.493295 0.171446
H78   H     H_    0.117657 0.952820 0.440211 0.184995
H79   H     H_    0.783462 0.243260 0.836146 0.163120
H80   H     H_    0.244975 0.631286 0.180804 0.110703
H81   H     H_    0.332889 0.692272 0.186281 0.185712
H82   H     H_    0.219494 0.241293 0.167366 0.174463
H83   H     H_    0.638900 0.669657 0.820568 0.199318
H84   H     H_    0.295924 0.737885 0.845548 0.165921
H85   H     H_    0.855805 0.176350 0.186320 0.194623
H86   H     H_    0.721067 0.743747 0.170152 0.176116
H87   H     H_    0.142125 0.176309 0.814437 0.175302
H88   H     H_    0.909999 0.428979 0.490979 0.166839
H89   H     H_    0.142058 0.564622 0.540240 0.157758
H90   H     H_    0.957595 0.425635 0.372480 0.164876
H91   H     H_    0.813759 0.331423 0.829318 0.084667
H92   H     H_    0.091251 0.568931 0.658037 0.185528
H93   H     H_    0.590876 0.940127 0.668027 0.173996
H94   H     H_    0.433127 0.068828 0.353341 0.174198
H95   H     H_    0.645002 0.944297 0.555988 0.108189
H96   H     H_    0.379270 0.064886 0.467827 0.160983
H97   H     H_    0.061559 0.667323 0.264913 0.138333
H98   H     H_    0.132532 0.613034 0.268252 0.089584
H99   H     H_    0.177035 0.680533 0.463173 0.235793
H100  H     H_    0.250655 0.625972 0.468052 0.203569
H101  H     H_    0.270411 0.679644 0.343291 0.268567
H102  H     H_    0.252710 0.132473 0.821783 0.105197
H103  H     H_    0.302269 0.721339 0.458488 0.281984
H104  H     H_    0.190078 0.732299 0.328079 0.264226
H105  H     H_    0.804692 0.425612 0.595169 0.092226
H106  H     H_    0.861898 0.381945 0.716189 0.102910
H107  H     H_    0.799547 0.348310 0.487002 0.206318
H108  H     H_    0.863622 0.304374 0.606207 0.233750
H109  H     H_    0.732660 0.313163 0.626660 0.259535
H110  H     H_    0.690314 0.287012 0.494017 0.280469
H111  H     H_    0.668434 0.358101 0.507931 0.285253
H112  H     H_    0.893434 0.671686 0.653131 0.152133
H113  H     H_    0.687012 0.831159 0.172289 0.102727
H114  H     H_    0.892962 0.624023 0.741249 0.090389
H115  H     H_    0.783937 0.606293 0.492320 0.227235
H116  H     H_    0.771718 0.568041 0.584312 0.196180
H117  H     H_    0.724075 0.662355 0.625667 0.264421
H118  H     H_    0.641899 0.632113 0.493067 0.307083
H119  H     H_    0.714751 0.688924 0.509189 0.260658
H120  H     H_    0.160166 0.401744 0.506332 0.135619
H121  H     H_    0.221560 0.427792 0.451987 0.097222
H122  H     H_    0.166729 0.307120 0.445854 0.220360
H123  H     H_    0.230161 0.333494 0.395742 0.205752
H124  H     H_    0.734610 0.145691 0.175134 0.100928
H125  H     H_    0.355926 0.367856 0.587458 0.299615
H126  H     H_    0.343953 0.294108 0.578259 0.287652
H127  H     H_    0.294749 0.334386 0.634474 0.265515
H128  H     H_    0.612076 0.125850 0.246335 0.114240
H129  H     H_    0.704526 0.095966 0.378680 0.093492
H130  H     H_    0.598868 0.206388 0.336073 0.219599
H131  H     H_    0.693061 0.178993 0.467476 0.220430
H132  H     H_    0.799421 0.179161 0.404661 0.282469
H133  H     H_    0.756943 0.246868 0.406409 0.279990
H134  H     H_    0.704061 0.211631 0.278461 0.272179
H135  H     H_    0.311875 0.831138 0.829533 0.093365
H136  H     H_    0.407023 0.843549 0.553644 0.160800
H137  H     H_    0.380080 0.913064 0.508044 0.108757
H138  H     H_    0.302603 0.849212 0.615451 0.205769
H139  H     H_    0.272963 0.919478 0.566514 0.193163
H140  H     H_    0.203235 0.889553 0.377473 0.266166
H141  H     H_    0.151418 0.851875 0.431960 0.297102
H142  H     H_    0.238865 0.818949 0.423238 0.268415
H143  H     H_    0.445331 0.164538 0.749392 0.132029
H144  H     H_    0.367004 0.112111 0.733709 0.098321
H145  H     H_    0.331203 0.190763 0.557020 0.233514
H146  H     H_    0.978483 0.341920 0.179311 0.206411
H147  H     H_    0.251252 0.138427 0.542174 0.228478
H148  H     H_    0.246602 0.185072 0.686388 0.272621
H149  H     H_    0.211661 0.231954 0.576761 0.288952
H150  H     H_    0.328044 0.236088 0.703990 0.267967
H151  H     H_    0.659433 0.863530 0.484090 0.150927
H152  H     H_    0.701630 0.925905 0.464317 0.066747
H153  H     H_    0.651070 0.835072 0.301668 0.189173
H154  H     H_    0.740941 0.885496 0.360896 0.201217
H155  H     H_    0.835479 0.836054 0.536658 0.297359
H156  H     H_    0.807353 0.790879 0.426430 0.285129
I1    I     I_    0.521151 0.435591 0.759753 -0.438694
I2    I     I_    0.472012 0.553456 0.311549 -0.504653
I3    I     I_    0.457285 0.355734 0.478317 -0.470876
I4    I     I_    0.520836 0.637709 0.577165 -0.528148
I5    I     I_    0.012339 0.935962 0.677341 -0.422513
I6    I     I_    0.986640 0.051201 0.241691 -0.506770
I7    I     I_    0.964628 0.856049 0.414521 -0.453790
I8    I     I_    0.038818 0.138069 0.508980 -0.533166
N1    N     N_R   0.892620 0.603790 0.941800 -0.044464
N2    N     N_R   0.047790 0.602400 0.942090 -0.052742
N3    N     N_R   0.047790 0.397600 0.942090 -0.058511
N4    N     N_R   0.952210 0.602400 0.057910 -0.056023
N5    N     N_R   0.452210 0.897600 0.057910 -0.050521
N6    N     N_R   0.547790 0.102400 0.942090 -0.059928
N7    N     N_R   0.547790 0.897600 0.942090 -0.048425
N8    N     N_R   0.452210 0.102400 0.057910 -0.053404
N9    N     N_R   0.026300 0.529110 0.206760 -0.135046
N10   N     N_R   0.973700 0.470890 0.793240 -0.130807
N11   N     N_R   0.973700 0.529110 0.793240 -0.131048
N12   N     N_R   0.107380 0.396210 0.058200 -0.041880
N13   N     N_R   0.026300 0.470890 0.206760 -0.105266
N14   N     N_R   0.526300 0.029110 0.206760 -0.133306
N15   N     N_R   0.473700 0.970890 0.793240 -0.107280
N16   N     N_R   0.473700 0.029110 0.793240 -0.137964
N17   N     N_R   0.526300 0.970890 0.206760 -0.112331
N18   N     N_R   0.818530 0.472270 0.792960 -0.063638
N19   N     N_R   0.181470 0.527730 0.207040 -0.057235
N20   N     N_R   0.181470 0.472270 0.207040 -0.047820
N21   N     N_R   0.818530 0.527730 0.792960 -0.054216
N22   N     N_R   0.318530 0.972270 0.792960 -0.049001
N23   N     N_R   0.107380 0.603790 0.058200 -0.049515
N24   N     N_R   0.681470 0.027730 0.207040 -0.062567
N25   N     N_R   0.681470 0.972270 0.207040 -0.058863
N26   N     N_R   0.318530 0.027730 0.792960 -0.056743
N27   N     N_R   0.892620 0.396210 0.941800 -0.046396
N28   N     N_R   0.392620 0.103790 0.941800 -0.049934
N29   N     N_R   0.607380 0.896210 0.058200 -0.045071
N30   N     N_R   0.607380 0.103790 0.058200 -0.046067
N31   N     N_R   0.392620 0.896210 0.941800 -0.043936
N32   N     N_R   0.952210 0.397600 0.057910 -0.045408
Ni1   Ni    Ni4+2 0.934150 0.565840 0.869060 0.195483
Ni2   Ni    Ni4+2 0.065850 0.434160 0.130940 0.227714
Ni3   Ni    Ni4+2 0.065850 0.565840 0.130940 0.198336
Ni4   Ni    Ni4+2 0.934150 0.434160 0.869060 0.194825
Ni5   Ni    Ni4+2 0.434150 0.065840 0.869060 0.198192
Ni6   Ni    Ni4+2 0.565850 0.934160 0.130940 0.206383
Ni7   Ni    Ni4+2 0.565850 0.065840 0.130940 0.199044
Ni8   Ni    Ni4+2 0.434150 0.934160 0.869060 0.213191
O1    O     O_3   0.067535 0.597883 0.347466 -0.662949
O2    O     O_3   0.969117 0.250383 0.210495 -0.656419
O3    O     O_3   0.805244 0.651523 0.191012 -0.655760
O4    O     O_3   0.022027 0.246772 0.794719 -0.675753
O5    O     O_3   0.710923 0.147656 0.825593 -0.659527
O6    O     O_3   0.455870 0.757024 0.215886 -0.652280
O7    O     O_3   0.286884 0.141993 0.176042 -0.667507
O8    O     O_3   0.530480 0.748413 0.793748 -0.650853
O9    O     O_3   0.944287 0.401126 0.664055 -0.659431
O10   O     O_3   0.955366 0.598141 0.664257 -0.664990
O11   O     O_3   0.084187 0.398630 0.337506 -0.679102
O12   O     O_3   0.570597 0.099895 0.342459 -0.655516
O13   O     O_3   0.461490 0.898498 0.678838 -0.678358
O14   O     O_3   0.429973 0.099040 0.652152 -0.658978
O15   O     O_3   0.561570 0.900299 0.336967 -0.659315
O16   O     O_3   0.225282 0.641084 0.839864 -0.667359

loop_
_geom_bond_atom_site_label_1
_geom_bond_atom_site_label_2
_ccdc_geom_bond_type
C60   C79   A    
C87   C91   A    
C71   C122  S    
C24   C142  S    
C50   H50   S    
C144  I7    S    
C44   C45   S    
N27   Ni4   S    
C98   N5    A    
C35   H79   S    
C111  N18   A    
C104  N11   A    
C61   H69   S    
C5    C6    S    
C86   C88   A    
C91   C131  S    
C89   C129  S    
C112  H67   S    
C98   H35   S    
C39   H23   S    
C54   H61   S    
C42   H32   S    
C19   H132  S    
C109  O14   S    
C118  N25   A    
C37   H20   S    
C42   H33   S    
C137  C140  S    
C148  H77   S    
C51   C52   S    
C27   H151  S    
C137  C146  S    
C3    C143  S    
C4    C5    S    
C49   H47   S    
C8    H108  S    
C10   H114  S    
C1    C120  A    
C43   C44   S    
C37   C38   S    
C86   H94   S    
N31   Ni8   S    
N14   N17   A    
C104  O10   S    
C110  C131  A    
C96   N3    A    
C138  C140  S    
C95   C122  A    
C16   H126  S    
C63   C71   A    
C60   C65   A    
C23   H144  S    
C46   H81   S    
C142  C144  S    
C143  I6    S    
C145  C148  S    
C118  C136  A    
C38   H21   S    
C33   O2    S    
C68   C77   A    
C25   H145  S    
C70   C79   A    
C93   C123  A    
N8    Ni7   S    
C112  C134  A    
N24   N25   A    
C7    O9    S    
C74   C120  S    
C105  C125  A    
C52   H55   S    
C64   O2    S    
C2    C147  S    
N3    Ni4   S    
C103  C130  A    
C12   H118  S    
C28   H153  S    
C58   H84   S    
C18   H131  S    
C20   C21   S    
C147  H76   S    
N20   Ni2   S    
C4    H97   S    
C43   O5    S    
C48   H45   S    
C80   H88   S    
C114  N21   A    
C14   H121  S    
C7    C8    S    
C49   H49   S    
C53   C54   S    
C82   C89   A    
C96   C121  A    
C41   H29   S    
C92   C132  S    
C23   H143  S    
C24   C145  S    
C38   C39   S    
N11   Ni1   S    
C61   C121  A    
C13   C144  S    
N18   Ni4   S    
N8    N28   A    
C109  N16   A    
C58   C77   A    
C32   H8    S    
C102  O1    S    
C73   C123  S    
C64   C73   A    
C21   H138  S    
C33   H12   S    
C44   H37   S    
C101  N8    A    
C13   C143  S    
N27   N32   A    
C79   C125  S    
C56   C75   A    
C25   H147  S    
C61   N12   A    
C26   H148  S    
C3    C24   S    
C59   H85   S    
C84   C90   A    
C114  H70   S    
C110  N17   A    
C94   H102  S    
C140  C147  S    
C36   H18   S    
C85   C92   A    
C53   H58   S    
C99   C126  A    
C19   H133  S    
C101  C124  A    
C62   C66   A    
C80   C82   A    
N30   Ni7   S    
C101  H65   S    
C40   H28   S    
C45   H39   S    
C119  N26   A    
C25   C26   S    
N7    Ni8   S    
C65   C74   A    
C26   H149  S    
C46   C68   A    
N3    N12   A    
C29   H3    S    
N29   Ni6   S    
C30   H4    S    
C31   C32   S    
C35   C67   A    
C17   C18   S    
C95   H2    S    
C11   H116  S    
C3    H78   S    
C127  N31   A    
C54   H60   S    
C7    H106  S    
C5    H100  S    
N13   Ni2   S    
C31   H6    S    
C137  I1    S    
C32   H9    S    
N4    Ni3   S    
C63   O16   S    
N9    Ni3   S    
C110  O15   S    
C62   H87   S    
C5    H99   S    
C62   C78   A    
C83   N27   A    
C95   N2    A    
C68   O6    S    
C34   H14   S    
C50   H51   S    
C94   N28   A    
C141  I4    S    
C47   H42   S    
N14   Ni7   S    
C50   O7    S    
C139  C141  S    
C145  I8    S    
C115  C135  A    
C138  C146  S    
C36   H17   S    
C81   H89   S    
C34   C36   S    
C20   H137  S    
C108  C132  A    
C100  N7    A    
C10   C11   S    
C29   H156  S    
C33   H11   S    
C56   C69   A    
N6    Ni5   S    
C14   C15   S    
C113  H68   S    
C9    H110  S    
C59   C76   A    
C17   H129  S    
C103  N10   A    
C9    H109  S    
C76   C126  S    
C41   C42   S    
C39   H25   S    
C81   C84   A    
C37   H19   S    
C139  I2    S    
N6    N30   A    
N21   Ni1   S    
C97   H24   S    
C6    H103  S    
C28   C29   S    
C86   C91   A    
C16   H127  S    
C30   C31   S    
C37   O3    S    
C142  I5    S    
C18   C19   S    
C22   H141  S    
C112  N19   A    
C55   H64   S    
C54   C55   S    
N22   Ni8   S    
N18   N21   A    
C97   N4    A    
N12   Ni2   S    
C111  H66   S    
C1    H1    S    
C57   C70   A    
C15   H122  S    
N23   Ni3   S    
C81   C89   A    
C98   C128  A    
N10   N11   A    
C104  C130  A    
C38   H22   S    
C2    C133  S    
C20   O13   S    
C60   H86   S    
C113  N20   A    
N5    Ni6   S    
N10   Ni4   S    
C119  C135  A    
C52   H56   S    
C107  N14   A    
N19   N20   A    
N22   N26   A    
C42   H31   S    
C100  H57   S    
C67   O5    S    
C85   H93   S    
C50   C51   S    
C56   H82   S    
N24   Ni7   S    
C28   H154  S    
C46   C71   A    
N2    N23   A    
C48   C49   S    
C72   N23   A    
C113  C134  A    
C9    H111  S    
C10   H112  S    
C105  N29   A    
C106  O11   S    
C53   O8    S    
C127  C128  A    
C108  O13   S    
C6    H101  S    
C2    C137  S    
C27   H152  S    
C3    C144  S    
C88   H96   S    
C31   H7    S    
C49   H48   S    
C8    H107  S    
C27   O15   S    
N15   N16   A    
C55   H62   S    
N25   Ni6   S    
C66   C75   A    
N28   Ni5   S    
C69   O7    S    
C47   H43   S    
N2    Ni1   S    
C48   H44   S    
C138  C139  S    
C90   C130  S    
C65   O3    S    
C72   H80   S    
C36   H16   S    
C20   H136  S    
C83   C123  A    
C116  H124  S    
C117  C136  A    
C51   H53   S    
C44   H38   S    
C106  C129  A    
C1    N1    A    
C102  C129  A    
C103  O9    S    
C99   H46   S    
C139  C147  S    
C59   C64   A    
N1    Ni1   S    
C116  N30   A    
C14   O11   S    
C57   H83   S    
C10   O10   S    
C15   C16   S    
C43   H36   S    
C96   H13   S    
C26   H150  S    
C117  H72   S    
C127  H135  S    
C23   O14   S    
C12   H117  S    
N5    N31   A    
C18   H130  S    
C30   H5    S    
C88   C92   A    
C8    C9    S    
C40   O4    S    
C11   H115  S    
C78   C124  S    
C52   H54   S    
N19   Ni3   S    
C117  N24   A    
N26   Ni5   S    
C116  C126  A    
C7    H105  S    
C118  H73   S    
C115  H71   S    
C69   C78   A    
C84   H92   S    
N17   Ni6   S    
C109  C132  A    
C15   H123  S    
C14   H120  S    
C32   H10   S    
C85   C87   A    
C83   H91   S    
C100  C125  A    
C102  N9    A    
C142  C148  S    
C41   H30   S    
C107  C131  A    
C34   H15   S    
C51   H52   S    
C111  C133  A    
N1    N4    A    
N15   Ni8   S    
C119  H74   S    
C57   C74   A    
C99   N6    A    
C87   H95   S    
C47   C48   S    
C4    H98   S    
C108  N15   A    
C39   H26   S    
C33   C34   S    
C93   N32   A    
C21   H139  S    
C77   C128  S    
C22   H140  S    
C29   H155  S    
N16   Ni5   S    
C141  C146  S    
C24   C135  S    
C45   H41   S    
C40   C41   S    
N32   Ni2   S    
C13   C136  S    
C70   O8    S    
C17   H128  S    
C115  N22   A    
C66   O4    S    
C58   C63   A    
C143  C145  S    
C19   H134  S    
C35   C73   A    
C72   C122  A    
C75   C121  S    
C16   H125  S    
C134  C138  S    
C40   H27   S    
C107  O12   S    
C45   H40   S    
C43   H34   S    
C6    H104  S    
C21   C22   S    
C97   C120  A    
C12   H119  S    
C47   O6    S    
C4    O1    S    
C146  H75   S    
C106  N13   A    
N9    N13   A    
C82   H90   S    
C53   H59   S    
C114  C133  A    
C93   H146  S    
C23   C25   S    
C80   C90   A    
C22   H142  S    
C55   H63   S    
C140  I3    S    
C105  H113  S    
C17   O12   S    
C27   C28   S    
C2    C141  S    
C67   C76   A    
C13   C148  S    
N7    N29   A    
C11   C12   S    
C30   O16   S    
C94   C124  A    
