data_mof_unit_38703.cif
_audit_creation_date              2013-03-05T15:56:56-0500
_audit_creation_method            fapswitch 2.2
_symmetry_space_group_name_H-M    P1
_symmetry_Int_Tables_number       1
_space_group_crystal_system       triclinic
_cell_length_a                    6.934647
_cell_length_b                    14.571999
_cell_length_c                    16.057274
_cell_angle_alpha                 89.957058
_cell_angle_beta                  89.89557
_cell_angle_gamma                 89.947038
_cell_volume                      1622.6104976

loop_
_atom_site_label
_atom_site_type_symbol
_atom_site_description
_atom_site_fract_x
_atom_site_fract_y
_atom_site_fract_z
_atom_type_partial_charge
O1    O     O_R   0.505680 0.583900 0.413320 -0.596347
O2    O     O_R   0.176010 0.594950 0.586080 -0.599044
O3    O     O_R   0.005680 0.416100 0.586680 -0.592960
C1    C     C_R   0.344956 0.617206 0.615027 0.919111
O4    O     O_R   0.175960 0.594930 0.413930 -0.600102
O5    O     O_R   0.005640 0.416080 0.413300 -0.592727
C2    C     C_R   0.345039 0.617000 0.384862 0.921569
O6    O     O_R   0.505720 0.583920 0.586700 -0.598546
O7    O     O_3   0.339190 0.441320 0.500000 -0.268563
V1    V     V_3+5 0.064350 0.510890 0.500000 1.152389
O8    O     O_R   0.675920 0.405050 0.413920 -0.597179
C3    C     C_R   0.845073 0.383456 0.384657 0.929426
O9    O     O_R   0.675960 0.405070 0.586070 -0.595006
C4    C     C_R   0.844654 0.383058 0.614911 0.943623
V2    V     V_3+5 0.564340 0.489110 0.500000 1.154876
O10   O     O_3   0.839370 0.558680 0.500000 -0.277417
C5    C     C_R   0.999261 0.247248 0.685530 0.156861
C6    C     C_R   0.852086 0.312964 0.681710 -0.213771
C7    C     C_R   0.704706 0.306872 0.742139 -0.135704
H1    H     H_    0.585180 0.354598 0.740898 0.114117
C8    C     C_R   0.717106 0.243199 0.808269 -0.102150
H2    H     H_    0.606097 0.243375 0.855724 0.109354
C9    C     C_R   0.876508 0.183435 0.815471 -0.222215
C10   C     C_R   0.010348 0.183841 0.750071 0.198062
C11   C     C_3   0.225713 0.185827 0.750225 -0.331614
C12   C     C_3   0.213110 0.256011 0.679514 -0.530933
H3    H     H_    0.285280 0.214008 0.809052 0.124055
H4    H     H_    0.268762 0.231419 0.618457 0.207196
C13   C     C_R   0.025116 0.246573 0.198449 -0.063111
C14   C     C_R   0.015426 0.311741 0.262428 -0.112997
H5    H     H_    0.131571 0.360884 0.268744 0.115721
C15   C     C_R   0.856013 0.314771 0.316460 -0.141574
C16   C     C_R   0.708678 0.250029 0.306339 -0.194696
H6    H     H_    0.588453 0.249626 0.349620 0.153050
C17   C     C_R   0.720822 0.181476 0.244940 -0.055634
C18   C     C_R   0.878295 0.180958 0.187951 -0.208734
C19   C     C_R   0.187761 0.722642 0.719419 -0.144055
H7    H     H_    0.046852 0.702707 0.696877 0.123291
C20   C     C_R   0.198976 0.785956 0.784806 -0.120444
H8    H     H_    0.066107 0.813123 0.810358 0.136198
C21   C     C_R   0.378830 0.814078 0.816438 -0.139225
C22   C     C_R   0.547121 0.777000 0.780871 -0.131015
H9    H     H_    0.688035 0.797098 0.803290 0.125543
C23   C     C_R   0.535898 0.713553 0.715585 -0.135411
H10   H     H_    0.668792 0.686499 0.689956 0.124952
C24   C     C_R   0.356060 0.685499 0.683892 -0.127976
C25   C     C_R   0.188169 0.725255 0.283052 -0.138951
H11   H     H_    0.047707 0.708192 0.308192 0.123533
C26   C     C_R   0.199152 0.788495 0.217540 -0.117679
H12   H     H_    0.066664 0.818495 0.194486 0.134460
C27   C     C_R   0.378395 0.812989 0.182699 -0.155501
C28   C     C_R   0.546310 0.772334 0.215087 -0.131050
H13   H     H_    0.686787 0.789564 0.190058 0.131734
C29   C     C_R   0.535355 0.709212 0.280683 -0.131524
H14   H     H_    0.667892 0.679415 0.303894 0.122958
C30   C     C_R   0.356147 0.684860 0.315649 -0.127776
O11   O     O_R   0.229200 0.915950 0.913350 -0.590757
O12   O     O_R   0.559090 0.905000 0.086080 -0.583312
O13   O     O_R   0.729280 0.083880 0.086680 -0.592431
C31   C     C_R   0.389809 0.881895 0.114328 0.935882
O14   O     O_R   0.558920 0.904980 0.913920 -0.600929
O15   O     O_R   0.729110 0.083860 0.913300 -0.585952
C32   C     C_R   0.389956 0.882601 0.885087 0.937075
O16   O     O_R   0.229360 0.915970 0.086730 -0.593530
O17   O     O_3   0.395680 0.058580 0.000030 -0.279743
V3    V     V_3+5 0.670570 0.989070 0.999990 1.181805
O18   O     O_R   0.058820 0.094950 0.913870 -0.608717
C33   C     C_R   0.889742 0.117100 0.885207 0.960046
O19   O     O_R   0.058990 0.094970 0.086020 -0.585640
C34   C     C_R   0.889963 0.114842 0.116880 0.963077
V4    V     V_3+5 0.170560 0.010930 0.999930 1.179217
O20   O     O_3   0.895590 0.941310 0.999960 -0.280491
C35   C     C_2   0.577550 0.106536 0.248653 1.009910
O21   O     O_2   0.406574 0.124187 0.258628 -0.655060
O22   O     O_R   0.639905 0.015410 0.246325 -0.796687
H15   H     H_    0.531273 0.970792 0.257854 0.314210
C36   C     C_2   0.315104 0.096025 0.724033 1.085503
O23   O     O_2   0.488296 0.092296 0.710235 -0.638532
O24   O     O_R   0.201360 0.017366 0.715608 -0.807905
H16   H     H_    0.278547 0.962292 0.696141 0.320193
H17   H     H_    0.263062 0.325556 0.697726 0.194698
H18   H     H_    0.147785 0.247995 0.156615 0.127624

loop_
_geom_bond_atom_site_label_1
_geom_bond_atom_site_label_2
_geom_bond_distance
_ccdc_geom_bond_type
C35   O21   1.223277 D    
C4    C6    1.481530 S    
C17   C18   1.423490 A    
C1    O6    1.297122 A    
C25   C26   1.400005 A    
C1    C24   1.490342 S    
C36   O23   1.222064 D    
C23   H10   1.082708 S    
C13   C18   1.407811 A    
C19   H7    1.082682 S    
C11   C36   1.507296 S    
C5    C12   1.491527 S    
C7    C8    1.412293 A    
O13   V3    2.004536 S    
O5    C3    1.296353 A    
C14   H5    1.083181 S    
O12   C31   1.302193 A    
V2    O10   2.160753 S    
O14   C32   1.302499 A    
C6    C7    1.410803 A    
C21   C22   1.406035 A    
O16   V4    2.005439 S    
O19   V4    2.001541 S    
O8    V2    2.001635 S    
O14   V3    2.004801 S    
O12   V3    2.001176 S    
V3    O20   1.708012 S    
C7    H1    1.081694 S    
C23   C24   1.408892 A    
C26   C27   1.408326 A    
C9    C10   1.400246 A    
O11   C32   1.297052 A    
O1    V2    2.002196 S    
O7    V1    2.157937 S    
C28   C29   1.399878 A    
C8    H2    1.082186 S    
C3    C15   1.485885 S    
C35   O22   1.396638 S    
C22   C23   1.400595 A    
C2    C30   1.488988 S    
C18   C34   1.496090 S    
C16   H6    1.084436 S    
C36   O24   1.398772 S    
C29   C30   1.408385 A    
C5    C10   1.390106 A    
O15   V3    2.001625 S    
C27   C28   1.406342 A    
C10   C11   1.493794 S    
C20   C21   1.408909 A    
C20   H8    1.082695 S    
O4    C2    1.301745 A    
C11   C12   1.530117 S    
O17   V4    1.709173 S    
O18   C33   1.300693 A    
C9    C33   1.481653 S    
O2    C1    1.302597 A    
O22   H15   1.012281 S    
C13   C14   1.401006 A    
C25   H11   1.082784 S    
C5    C6    1.400261 A    
O11   V4    2.003372 S    
O3    C4    1.297326 A    
C26   H12   1.082829 S    
O6    V2    2.002971 S    
O9    V2    2.002134 S    
C11   H3    1.110790 S    
C22   H9    1.082696 S    
C21   C32   1.490038 S    
O2    V1    2.004670 S    
C28   H13   1.082782 S    
C29   H14   1.082792 S    
C17   C35   1.478143 S    
O1    C2    1.297287 A    
O5    V1    2.004648 S    
O8    C3    1.301274 A    
C12   H17   1.110832 S    
C12   H4    1.112405 S    
O15   C33   1.295292 A    
C31   O16   1.296688 A    
C15   C16   1.401057 A    
C8    C9    1.411465 A    
O7    V2    1.710190 S    
C13   H18   1.083142 S    
C19   C20   1.400547 A    
O3    V1    2.001697 S    
V1    O10   1.707937 S    
C14   C15   1.404722 A    
C16   C17   1.406420 A    
O18   V4    2.002166 S    
O19   C34   1.304140 A    
O13   C34   1.297522 A    
O24   H16   1.013540 S    
O4    V1    2.001034 S    
V4    O20   2.160729 S    
O17   V3    2.157832 S    
C27   C31   1.489273 S    
C19   C24   1.406182 A    
O9    C4    1.298817 A    
C25   C30   1.406361 A    
