data_mof_unit_63206.cif
_audit_creation_date              2012-12-10T19:19:55-0500
_audit_creation_method            fapswitch 2.2
_symmetry_space_group_name_H-M    P1
_symmetry_Int_Tables_number       1
_space_group_crystal_system       triclinic
_cell_length_a                    44.631522
_cell_length_b                    38.886203
_cell_length_c                    21.63099
_cell_angle_alpha                 90.000052
_cell_angle_beta                  60.743389
_cell_angle_gamma                 90.000016
_cell_volume                      32752.8437823

loop_
_atom_site_label
_atom_site_type_symbol
_atom_type_description
_atom_site_fract_x
_atom_site_fract_y
_atom_site_fract_z
_atom_type_partial_charge
Br1   Br    Br    0.072861 0.318245 0.957870 -0.523520
Br2   Br    Br    0.927139 0.318245 0.042130 -0.523519
Br3   Br    Br    0.572850 0.818246 0.957968 -0.523521
Br4   Br    Br    0.427150 0.818245 0.042032 -0.523521
Br5   Br    Br    0.053353 0.600512 0.850155 -0.557416
Br6   Br    Br    0.946647 0.600513 0.149844 -0.557417
Br7   Br    Br    0.553353 0.100513 0.850155 -0.557416
Br8   Br    Br    0.446647 0.100513 0.149845 -0.557418
C1    C     C_R   0.067213 0.499971 0.432795 0.865407
C2    C     C_R   0.622836 0.499847 0.932803 -0.185719
C3    C     C_R   0.567256 0.499958 0.932642 0.868773
C4    C     C_R   0.932744 0.999958 0.067358 0.868772
C5    C     C_R   0.067256 0.999958 0.932642 0.868771
C6    C     C_R   0.500000 0.567125 0.000000 0.870269
C7    C     C_R   0.000000 0.067125 0.000000 0.870268
C8    C     C_R   0.505999 0.622771 0.049002 -0.186390
C9    C     C_R   0.494001 0.622770 0.950998 -0.186390
C10   C     C_R   0.006018 0.122770 0.048975 -0.186394
C11   C     C_R   0.993982 0.122770 0.951024 -0.186389
C12   C     C_R   0.506115 0.658495 0.048834 -0.166263
C13   C     C_R   0.877164 0.999829 0.067197 -0.185722
C14   C     C_R   0.493885 0.658495 0.951166 -0.166264
C15   C     C_R   0.006134 0.158495 0.048807 -0.166260
C16   C     C_R   0.993866 0.158495 0.951193 -0.166260
C17   C     C_R   0.500000 0.676577 0.000000 0.120738
C18   C     C_R   0.000000 0.176576 0.000000 0.120737
C19   C     C_R   0.500000 0.604691 0.000000 -0.038003
C20   C     C_R   0.000000 0.104691 0.000000 -0.037994
C21   C     C_R   0.483955 0.732356 0.064355 -0.176314
C22   C     C_R   0.516045 0.732356 0.935646 -0.176315
C23   C     C_R   0.983975 0.232356 0.064356 -0.176314
C24   C     C_R   0.122836 0.999859 0.932803 -0.185722
C25   C     C_R   0.016025 0.232356 0.935644 -0.176314
C26   C     C_R   0.000060 0.499485 0.686058 -0.104721
C27   C     C_R   0.999939 0.499485 0.313942 -0.104722
C28   C     C_R   0.500061 0.999485 0.686057 -0.104721
C29   C     C_R   0.499939 0.999485 0.313942 -0.104723
C30   C     C_R   0.984090 0.268079 0.064313 -0.094934
C31   C     C_R   0.015910 0.268079 0.935687 -0.094934
C32   C     C_R   0.484070 0.768079 0.064313 -0.094935
C33   C     C_R   0.515930 0.768079 0.935688 -0.094934
C34   C     C_R   0.000000 0.285909 0.000000 0.177474
C35   C     C_R   0.341490 0.499904 0.103086 -0.173712
C36   C     C_R   0.500000 0.785909 0.000000 0.177472
C37   C     C_R   0.500000 0.714267 0.000000 0.097028
C38   C     C_R   0.000000 0.214267 0.000000 0.097029
C39   C     C_R   0.030576 0.341355 0.981401 0.256654
C40   C     C_R   0.969424 0.341355 0.018599 0.256653
C41   C     C_R   0.530572 0.841356 0.981442 0.256655
C42   C     C_R   0.469428 0.841356 0.018558 0.256655
C43   C     C_R   0.030440 0.377105 0.981233 -0.215000
C44   C     C_R   0.969560 0.377104 0.018766 -0.215000
C45   C     C_R   0.530436 0.877105 0.981273 -0.215000
C46   C     C_R   0.658510 0.499907 0.896914 -0.173711
C47   C     C_R   0.469564 0.877105 0.018727 -0.215000
C48   C     C_R   0.000000 0.395142 0.000000 -0.144302
C49   C     C_R   0.500000 0.895142 0.000000 -0.144292
C50   C     C_R   0.000000 0.323348 0.000000 -0.065487
C51   C     C_R   0.500000 0.823348 0.000000 -0.065488
C52   C     C_R   0.512720 0.377219 0.935982 -0.187783
C53   C     C_R   0.487279 0.377219 0.064018 -0.187784
C54   C     C_R   0.012721 0.877219 0.935981 -0.187785
C55   C     C_R   0.987279 0.877219 0.064018 -0.187782
C56   C     C_R   0.513013 0.341489 0.935903 -0.171172
C57   C     C_R   0.841490 0.999888 0.103085 -0.173712
C58   C     C_R   0.486986 0.341490 0.064097 -0.171172
C59   C     C_R   0.013014 0.841490 0.935903 -0.171172
C60   C     C_R   0.986986 0.841490 0.064096 -0.171172
C61   C     C_R   0.500000 0.323326 0.000000 0.116350
C62   C     C_R   0.000000 0.823326 1.000000 0.116350
C63   C     C_R   0.009836 0.469571 0.708830 -0.199931
C64   C     C_R   0.990164 0.469571 0.291170 -0.199930
C65   C     C_R   0.509836 0.969571 0.708830 -0.199931
C66   C     C_R   0.490164 0.969571 0.291170 -0.199925
C67   C     C_R   0.500000 0.395227 0.000000 -0.032563
C68   C     C_R   0.158510 0.999919 0.896914 -0.173712
C69   C     C_R   0.000000 0.895227 1.000000 -0.032563
C70   C     C_R   0.507352 0.267365 0.047146 -0.185388
C71   C     C_R   0.492647 0.267364 0.952854 -0.185387
C72   C     C_R   0.007352 0.767365 0.047146 -0.185389
C73   C     C_R   0.992648 0.767365 0.952853 -0.185389
C74   C     C_R   0.007045 0.731636 0.047539 -0.174709
C75   C     C_R   0.992955 0.731636 0.952460 -0.174710
C76   C     C_R   0.507045 0.231636 0.047539 -0.174707
C77   C     C_R   0.492954 0.231636 0.952461 -0.174708
C78   C     C_R   0.000000 0.713756 1.000000 0.139708
C79   C     C_R   0.323420 0.500103 0.177336 0.114172
C80   C     C_R   0.500000 0.213756 0.000000 0.139707
C81   C     C_R   0.500000 0.285531 0.000000 0.105898
C82   C     C_R   0.000000 0.785531 1.000000 0.105898
C83   C     C_R   0.022151 0.658502 0.938333 -0.208862
C84   C     C_R   0.977849 0.658502 0.061667 -0.208862
C85   C     C_R   0.522151 0.158502 0.938333 -0.208861
C86   C     C_R   0.477849 0.158502 0.061667 -0.208861
C87   C     C_R   0.022579 0.622763 0.937989 0.197736
C88   C     C_R   0.977420 0.622763 0.062011 0.197736
C89   C     C_R   0.522579 0.122763 0.937989 0.197736
C90   C     C_R   0.676580 0.500103 0.822664 0.114172
C91   C     C_R   0.477420 0.122763 0.062011 0.197736
C92   C     C_R   0.000000 0.604564 1.000000 -0.185181
C93   C     C_R   0.500000 0.104565 0.000000 -0.185181
C94   C     C_R   0.000000 0.676326 1.000000 -0.004506
C95   C     C_R   0.500000 0.176326 0.000000 -0.004507
C96   C     C_R   0.010159 0.469730 0.773222 -0.212234
C97   C     C_R   0.989841 0.469730 0.226777 -0.212234
C98   C     C_R   0.510159 0.969730 0.773222 -0.212233
C99   C     C_R   0.489841 0.969730 0.226778 -0.212232
C100  C     C_R   0.000471 0.499642 0.814759 -0.071688
C101  C     C_R   0.823420 0.000103 0.177335 0.114174
C102  C     C_R   0.999529 0.499642 0.185241 -0.071688
C103  C     C_R   0.500471 0.999642 0.814759 -0.071688
C104  C     C_R   0.499529 0.999642 0.185240 -0.071688
C105  C     C_R   0.991196 0.528351 0.790732 0.080056
C106  C     C_R   0.008803 0.528351 0.209269 0.080056
C107  C     C_R   0.491196 0.028351 0.790732 0.080056
C108  C     C_R   0.508803 0.028351 0.209268 0.080057
C109  C     C_3   0.980407 0.565012 0.806572 -0.230755
C110  C     C_3   0.019592 0.565012 0.193429 -0.230753
C111  C     C_3   0.480407 0.065012 0.806572 -0.230753
C112  C     C_R   0.932787 0.499971 0.567204 0.865406
C113  C     C_R   0.176580 0.000103 0.822664 0.114171
C114  C     C_3   0.519593 0.065012 0.193429 -0.230753
C115  C     C_R   0.946384 0.569943 0.873581 0.179006
C116  C     C_R   0.917653 0.549137 0.889534 -0.116939
C117  C     C_R   0.887017 0.553626 0.953164 -0.153921
C118  C     C_R   0.884727 0.578789 0.001400 -0.105611
C119  C     C_R   0.913026 0.599624 0.985969 -0.094466
C120  C     C_R   0.943659 0.595315 0.922324 -0.153473
C121  C     C_R   0.053616 0.569944 0.126420 0.179005
C122  C     C_R   0.082346 0.549138 0.110467 -0.116939
C123  C     C_R   0.112982 0.553627 0.046837 -0.153920
C124  C     C_R   0.341383 0.500223 0.215369 -0.172577
C125  C     C_R   0.115272 0.578790 0.998602 -0.105611
C126  C     C_R   0.086973 0.599624 0.014032 -0.094467
C127  C     C_R   0.056340 0.595315 0.077678 -0.153475
C128  C     C_R   0.446383 0.069943 0.873581 0.179004
C129  C     C_R   0.417653 0.049137 0.889534 -0.116937
C130  C     C_R   0.387017 0.053626 0.953165 -0.153920
C131  C     C_R   0.384727 0.078789 0.001400 -0.105611
C132  C     C_R   0.413026 0.099623 0.985970 -0.094466
C133  C     C_R   0.443659 0.095315 0.922324 -0.153472
C134  C     C_R   0.553616 0.069943 0.126419 0.179006
C135  C     C_R   0.658617 0.500220 0.784631 -0.172577
C136  C     C_R   0.582347 0.049137 0.110467 -0.116940
C137  C     C_R   0.612983 0.053626 0.046836 -0.153922
C138  C     C_R   0.615273 0.078789 0.998601 -0.105611
C139  C     C_R   0.586974 0.099623 0.014031 -0.094467
C140  C     C_R   0.556341 0.095314 0.077676 -0.153472
C141  C     C_R   0.841383 0.000238 0.215368 -0.172577
C142  C     C_R   0.158617 0.000209 0.784631 -0.172577
C143  C     C_R   0.377068 0.500178 0.179512 -0.187339
C144  C     C_R   0.622931 0.500176 0.820487 -0.187339
C145  C     C_R   0.877068 0.000194 0.179512 -0.187335
C146  C     C_R   0.122932 0.000165 0.820487 -0.187339
C147  C     C_R   0.395196 0.499993 0.105172 -0.037967
C148  C     C_R   0.567213 0.999971 0.432795 0.865406
C149  C     C_R   0.604804 0.499993 0.894828 -0.037965
C150  C     C_R   0.895196 0.999993 0.105172 -0.037967
C151  C     C_R   0.104804 0.999993 0.894827 -0.037965
C152  C     C_R   0.267923 0.522143 0.193094 -0.178362
C153  C     C_R   0.732302 0.478212 0.726942 -0.179696
C154  C     C_R   0.767923 0.022130 0.193071 -0.178361
C155  C     C_R   0.232301 0.978202 0.726959 -0.179696
C156  C     C_R   0.232250 0.522127 0.228702 -0.180613
C157  C     C_R   0.767982 0.478169 0.691374 -0.176928
C158  C     C_R   0.732249 0.022114 0.228679 -0.180612
C159  C     C_R   0.432787 0.999971 0.567204 0.865406
C160  C     C_R   0.267982 0.978159 0.691392 -0.176928
C161  C     C_R   0.214116 0.500122 0.286615 0.104373
C162  C     C_R   0.785884 0.500122 0.713385 0.104373
C163  C     C_R   0.714116 0.000122 0.286614 0.104372
C164  C     C_R   0.285884 0.000122 0.713385 0.104371
C165  C     C_R   0.999869 0.499921 0.620322 0.893520
C166  C     C_R   0.000131 0.499921 0.379677 0.893521
C167  C     C_R   0.499869 0.999921 0.620322 0.893520
C168  C     C_R   0.500131 0.999921 0.379677 0.893521
C169  C     C_R   0.232018 0.478171 0.308629 -0.176928
C170  C     C_3   0.979046 0.564797 0.736516 -0.501675
C171  C     C_R   0.767751 0.522129 0.771294 -0.180613
C172  C     C_R   0.732018 0.978184 0.308652 -0.176928
C173  C     C_R   0.267751 0.022138 0.771276 -0.180612
C174  C     C_R   0.267698 0.478214 0.273061 -0.179694
C175  C     C_R   0.732077 0.522145 0.806902 -0.178361
C176  C     C_R   0.767698 0.978227 0.273084 -0.179696
C177  C     C_R   0.232077 0.022155 0.806884 -0.178362
C178  C     C_R   0.285829 0.500176 0.215068 0.103901
C179  C     C_R   0.714171 0.500176 0.784932 0.103902
C180  C     C_R   0.785829 0.000176 0.215068 0.103903
C181  C     C_3   0.020953 0.564797 0.263485 -0.501673
C182  C     C_R   0.214171 0.000176 0.784932 0.103899
C183  C     C_R   0.158545 0.468845 0.342089 -0.173074
C184  C     C_R   0.841455 0.468845 0.657917 -0.173075
C185  C     C_R   0.658545 0.968845 0.342119 -0.173073
C186  C     C_R   0.341455 0.968845 0.657940 -0.173075
C187  C     C_R   0.122864 0.468793 0.377529 -0.184842
C188  C     C_R   0.877136 0.468793 0.622477 -0.184842
C189  C     C_R   0.622863 0.968793 0.377559 -0.184838
C190  C     C_R   0.377136 0.968793 0.622500 -0.184844
C191  C     C_R   0.104757 0.499986 0.395358 -0.037779
C192  C     C_3   0.479046 0.064797 0.736516 -0.501671
C193  C     C_R   0.895243 0.499987 0.604642 -0.037778
C194  C     C_R   0.604757 0.999986 0.395357 -0.037777
C195  C     C_R   0.395243 0.999987 0.604642 -0.037781
C196  C     C_R   0.122804 0.531218 0.377219 -0.186762
C197  C     C_R   0.877196 0.531218 0.622774 -0.186763
C198  C     C_R   0.622804 0.031218 0.377190 -0.186766
C199  C     C_R   0.377196 0.031218 0.622750 -0.186759
C200  C     C_R   0.158478 0.531245 0.341751 -0.172149
C201  C     C_R   0.841522 0.531245 0.658242 -0.172149
C202  C     C_R   0.658478 0.031245 0.341720 -0.172151
C203  C     C_3   0.520954 0.064797 0.263484 -0.501678
C204  C     C_R   0.341522 0.031245 0.658218 -0.172148
C205  C     C_R   0.176527 0.500067 0.324025 0.113041
C206  C     C_R   0.823473 0.500067 0.675974 0.113040
C207  C     C_R   0.676527 0.000067 0.324025 0.113041
C208  C     C_R   0.323473 0.000067 0.675974 0.113039
C209  C     C_R   0.000000 0.432708 0.000000 0.885449
C210  C     C_R   0.500000 0.932708 0.000000 0.885444
C211  C     C_R   0.990829 0.528319 0.729086 0.103154
C212  C     C_R   0.009171 0.528319 0.270914 0.103154
C213  C     C_R   0.490829 0.028319 0.729086 0.103154
C214  C     C_R   0.377163 0.499845 0.067197 -0.185720
C215  C     C_R   0.509171 0.028319 0.270914 0.103153
C216  C     C_R   0.000087 0.500301 0.880197 0.887770
C217  C     C_R   0.999913 0.500301 0.119803 0.887770
C218  C     C_R   0.500087 0.000302 0.880197 0.887769
C219  C     C_R   0.499913 0.000302 0.119803 0.887769
C220  C     C_R   0.000000 0.567076 1.000000 0.947622
C221  C     C_R   0.500000 0.067076 0.000000 0.947621
C222  C     C_R   0.500000 0.432701 0.000000 0.867898
C223  C     C_R   0.000000 0.932701 1.000000 0.867898
C224  C     C_R   0.432744 0.499958 0.067358 0.868773
H1    H     H_    0.017427 0.446381 0.677040 0.171953
H2    H     H_    0.718864 0.460865 0.709672 0.134422
H3    H     H_    0.109434 0.999630 0.990186 0.157686
H4    H     H_    0.328005 0.499401 0.072894 0.132734
H5    H     H_    0.671995 0.499405 0.927107 0.132734
H6    H     H_    0.828005 0.999373 0.072893 0.132732
H7    H     H_    0.171995 0.999427 0.927106 0.132735
H8    H     H_    0.327809 0.500755 0.272757 0.133601
H9    H     H_    0.672191 0.500750 0.727243 0.133601
H10   H     H_    0.827809 0.000783 0.272756 0.133600
H11   H     H_    0.172191 0.000729 0.727243 0.133602
H12   H     H_    0.919021 0.529285 0.853150 0.130181
H13   H     H_    0.781531 0.039467 0.148753 0.134644
H14   H     H_    0.865076 0.537485 0.965213 0.135493
H15   H     H_    0.861024 0.582142 0.050727 0.134908
H16   H     H_    0.911269 0.619096 0.023367 0.153483
H17   H     H_    0.965301 0.611717 0.911233 0.137452
H18   H     H_    0.080979 0.529285 0.146851 0.130181
H19   H     H_    0.134924 0.537485 0.034788 0.135492
H20   H     H_    0.138976 0.582143 0.949274 0.134908
H21   H     H_    0.088730 0.619096 0.976634 0.153482
H22   H     H_    0.034697 0.611717 0.088769 0.137453
H23   H     H_    0.419021 0.029285 0.853150 0.130181
H24   H     H_    0.218863 0.960848 0.709704 0.134423
H25   H     H_    0.365076 0.037484 0.965213 0.135494
H26   H     H_    0.361024 0.082142 0.050728 0.134908
H27   H     H_    0.411269 0.119096 0.023367 0.153482
H28   H     H_    0.465301 0.111717 0.911233 0.137451
H29   H     H_    0.580979 0.029285 0.146851 0.130181
H30   H     H_    0.634924 0.037484 0.034788 0.135492
H31   H     H_    0.638976 0.082142 0.949273 0.134907
H32   H     H_    0.588731 0.119095 0.976633 0.153482
H33   H     H_    0.534698 0.111717 0.088767 0.137451
H34   H     H_    0.218820 0.539029 0.210623 0.133234
H35   H     H_    0.781600 0.461231 0.646345 0.135685
H36   H     H_    0.718820 0.039006 0.210581 0.133234
H37   H     H_    0.281599 0.961215 0.646376 0.135685
H38   H     H_    0.218400 0.461235 0.353661 0.135685
H39   H     H_    0.781180 0.539033 0.789371 0.133235
H40   H     H_    0.718400 0.961259 0.353702 0.135686
H41   H     H_    0.982573 0.446381 0.322959 0.171953
H42   H     H_    0.281180 0.039050 0.789338 0.133236
H43   H     H_    0.281136 0.460868 0.290334 0.134421
H44   H     H_    0.718469 0.539494 0.851199 0.134647
H45   H     H_    0.781135 0.960891 0.290376 0.134420
H46   H     H_    0.218469 0.039510 0.851167 0.134649
H47   H     H_    0.172106 0.444524 0.328062 0.133976
H48   H     H_    0.827894 0.444524 0.671950 0.133977
H49   H     H_    0.672106 0.944524 0.328115 0.133977
H50   H     H_    0.327893 0.944524 0.671991 0.133977
H51   H     H_    0.109513 0.444361 0.390803 0.158934
H52   H     H_    0.517427 0.946381 0.677039 0.171952
H53   H     H_    0.890487 0.444361 0.609209 0.158934
H54   H     H_    0.609513 0.944361 0.390856 0.158934
H55   H     H_    0.390487 0.944361 0.609251 0.158936
H56   H     H_    0.109411 0.555627 0.390537 0.158457
H57   H     H_    0.890589 0.555627 0.609451 0.158457
H58   H     H_    0.609411 0.055627 0.390483 0.158454
H59   H     H_    0.390589 0.055627 0.609408 0.158459
H60   H     H_    0.171976 0.555599 0.328875 0.134462
H61   H     H_    0.828024 0.555599 0.671113 0.134463
H62   H     H_    0.671976 0.055599 0.328821 0.134463
H63   H     H_    0.482573 0.946381 0.322960 0.171955
H64   H     H_    0.328024 0.055599 0.671070 0.134464
H65   H     H_    0.510911 0.609348 0.087021 0.157264
H66   H     H_    0.489089 0.609348 0.912979 0.157265
H67   H     H_    0.010946 0.109347 0.086973 0.157256
H68   H     H_    0.989054 0.109347 0.913027 0.157259
H69   H     H_    0.017658 0.446763 0.790616 0.150598
H70   H     H_    0.982342 0.446763 0.209383 0.150598
H71   H     H_    0.517659 0.946764 0.790615 0.150598
H72   H     H_    0.482342 0.946763 0.209384 0.150599
H73   H     H_    0.511383 0.671982 0.086292 0.135901
H74   H     H_    0.390406 0.500377 0.209996 0.157317
H75   H     H_    0.488617 0.671982 0.913709 0.135901
H76   H     H_    0.011418 0.171981 0.086243 0.135899
H77   H     H_    0.988582 0.171981 0.913757 0.135900
H78   H     H_    0.471042 0.718884 0.114519 0.136108
H79   H     H_    0.528958 0.718884 0.885481 0.136109
H80   H     H_    0.971077 0.218884 0.114522 0.136107
H81   H     H_    0.028924 0.218884 0.885478 0.136107
H82   H     H_    0.971713 0.281867 0.114185 0.149311
H83   H     H_    0.028287 0.281867 0.885815 0.149311
H84   H     H_    0.471678 0.781867 0.114183 0.149314
H85   H     H_    0.609594 0.500373 0.790004 0.157317
H86   H     H_    0.528322 0.781867 0.885817 0.149314
H87   H     H_    0.054093 0.390722 0.967143 0.195160
H88   H     H_    0.945907 0.390722 0.032857 0.195160
H89   H     H_    0.554085 0.890722 0.967214 0.195151
H90   H     H_    0.445915 0.890722 0.032786 0.195152
H91   H     H_    0.522949 0.390756 0.885957 0.152007
H92   H     H_    0.477050 0.390756 0.114043 0.152007
H93   H     H_    0.022950 0.890756 0.885957 0.152006
H94   H     H_    0.977050 0.890756 0.114043 0.152008
H95   H     H_    0.523796 0.328117 0.885649 0.130929
H96   H     H_    0.890406 0.000405 0.209996 0.157318
H97   H     H_    0.476203 0.328117 0.114351 0.130929
H98   H     H_    0.023797 0.828117 0.885649 0.130929
H99   H     H_    0.976203 0.828117 0.114350 0.130929
H100  H     H_    0.513734 0.280730 0.083090 0.133722
H101  H     H_    0.486265 0.280730 0.916911 0.133721
H102  H     H_    0.013734 0.780730 0.083089 0.133722
H103  H     H_    0.986266 0.780730 0.916910 0.133722
H104  H     H_    0.012796 0.717901 0.084076 0.139459
H105  H     H_    0.987204 0.717901 0.915923 0.139459
H106  H     H_    0.512796 0.217901 0.084076 0.139458
H107  H     H_    0.109594 0.000352 0.790004 0.157318
H108  H     H_    0.487203 0.217901 0.915925 0.139459
H109  H     H_    0.039292 0.672463 0.890589 0.177347
H110  H     H_    0.960708 0.672464 0.109410 0.177347
H111  H     H_    0.539292 0.172464 0.890590 0.177347
H112  H     H_    0.460707 0.172464 0.109411 0.177347
H113  H     H_    0.001518 0.581413 0.803402 0.196616
H114  H     H_    0.998480 0.581413 0.196599 0.196615
H115  H     H_    0.501518 0.081413 0.803402 0.196615
H116  H     H_    0.498481 0.081413 0.196598 0.196615
H117  H     H_    0.952874 0.566932 0.742717 0.197379
H118  H     H_    0.281531 0.539490 0.148795 0.134647
H119  H     H_    0.047125 0.566933 0.257284 0.197377
H120  H     H_    0.452874 0.066932 0.742717 0.197379
H121  H     H_    0.547125 0.066932 0.257283 0.197377
H122  H     H_    0.998709 0.581636 0.694988 0.211366
H123  H     H_    0.001290 0.581636 0.305013 0.211365
H124  H     H_    0.498709 0.081636 0.694988 0.211366
H125  H     H_    0.501291 0.081636 0.305012 0.211366
H126  H     H_    0.390566 0.499604 0.009814 0.157687
H127  H     H_    0.609434 0.499608 0.990186 0.157686
H128  H     H_    0.890567 0.999576 0.009814 0.157686
O1    O     O_R   0.050900 0.528720 0.449120 -0.626693
O2    O     O_R   0.550940 0.499970 0.000810 -0.624405
O3    O     O_R   0.949060 0.999970 0.999190 -0.624407
O4    O     O_R   0.050940 0.999970 0.000810 -0.624408
O5    O     O_R   0.500010 0.550820 0.051820 -0.623701
O6    O     O_R   0.499990 0.550820 0.948180 -0.623700
O7    O     O_R   0.000010 0.050820 0.051820 -0.623701
O8    O     O_R   0.999990 0.050820 0.948180 -0.623695
O9    O     O_R   0.050870 0.471230 0.449150 -0.624910
O10   O     O_R   0.949130 0.471230 0.550850 -0.624909
O11   O     O_R   0.550870 0.971230 0.449150 -0.624910
O12   O     O_R   0.949100 0.528720 0.550880 -0.626694
O13   O     O_R   0.449130 0.971230 0.550850 -0.624909
O14   O     O_R   0.000000 0.528720 0.591610 -0.618543
O15   O     O_R   0.000000 0.528720 0.408390 -0.618544
O16   O     O_R   0.500000 0.028720 0.591610 -0.618540
O17   O     O_R   0.500000 0.028720 0.408390 -0.618547
O18   O     O_R   0.999960 0.471230 0.591650 -0.627330
O19   O     O_R   0.000040 0.471230 0.408350 -0.627329
O20   O     O_R   0.499960 0.971230 0.591650 -0.627332
O21   O     O_R   0.500040 0.971230 0.408350 -0.627325
O22   O     O_R   0.971240 0.449020 0.028740 -0.627601
O23   O     O_R   0.550900 0.028720 0.449120 -0.626692
O24   O     O_R   0.028760 0.449020 0.971260 -0.627602
O25   O     O_R   0.471240 0.949020 0.028740 -0.627598
O26   O     O_R   0.528760 0.949020 0.971260 -0.627598
O27   O     O_R   0.971230 0.499930 0.937140 -0.623000
O28   O     O_R   0.028770 0.499930 0.062860 -0.623000
O29   O     O_R   0.471230 0.999930 0.937140 -0.623001
O30   O     O_R   0.528770 0.999930 0.062860 -0.623001
O31   O     O_R   0.028710 0.499970 0.879680 -0.600070
O32   O     O_R   0.971290 0.499970 0.120320 -0.600070
O33   O     O_R   0.528710 0.999970 0.879680 -0.600070
O34   O     O_R   0.449100 0.028720 0.550880 -0.626695
O35   O     O_R   0.471290 0.999970 0.120320 -0.600070
O36   O     O_R   0.971230 0.550840 0.028760 -0.580875
O37   O     O_R   0.028770 0.550840 0.971240 -0.580876
O38   O     O_R   0.471230 0.050840 0.028760 -0.580875
O39   O     O_R   0.528770 0.050840 0.971240 -0.580877
O40   O     O_R   0.499940 0.449000 0.051660 -0.622644
O41   O     O_R   0.500060 0.449000 0.948340 -0.622644
O42   O     O_R   0.999940 0.949000 0.051660 -0.622641
O43   O     O_R   0.000060 0.949000 0.948340 -0.622647
O44   O     O_R   0.449070 0.499910 0.102620 -0.625296
O45   O     O_R   0.550930 0.499910 0.897380 -0.625296
O46   O     O_R   0.949070 0.999910 0.102620 -0.625294
O47   O     O_R   0.050930 0.999910 0.897380 -0.625294
O48   O     O_R   0.449060 0.499970 0.999190 -0.624405
Zn1   Zn    Zn3+2 0.000000 0.538360 0.500000 0.949854
Zn2   Zn    Zn3+2 0.500020 0.499890 0.930920 0.950333
Zn3   Zn    Zn3+2 0.999980 0.999890 0.069080 0.950333
Zn4   Zn    Zn3+2 0.000020 0.999890 0.930920 0.950334
Zn5   Zn    Zn3+2 0.500000 0.038360 0.500000 0.949855
Zn6   Zn    Zn3+2 0.000000 0.461590 0.500000 0.953449
Zn7   Zn    Zn3+2 0.500000 0.961590 0.500000 0.953453
Zn8   Zn    Zn3+2 0.961590 0.499920 0.038380 1.015217
Zn9   Zn    Zn3+2 0.038410 0.499920 0.961620 1.015217
Zn10  Zn    Zn3+2 0.461590 0.999920 0.038380 1.015217
Zn11  Zn    Zn3+2 0.538410 0.999920 0.961620 1.015216
Zn12  Zn    Zn3+2 0.499980 0.499890 0.069080 0.950333

loop_
_geom_bond_atom_site_label_1
_geom_bond_atom_site_label_2
_ccdc_geom_bond_type
C97   C102  A    
C170  H117  S    
C118  C119  A    
C99   C104  A    
C22   C37   A    
C63   C96   A    
C169  H38   S    
C34   C50   S    
C3    O2    A    
C137  C138  A    
C159  O34   A    
C177  C182  A    
C111  H115  S    
C219  O35   A    
C12   H73   S    
C42   C51   A    
Br8   C91   S    
C35   H4    S    
C100  C216  S    
C169  C174  A    
C192  H120  S    
O20   Zn7   S    
C214  H126  S    
O39   Zn11  S    
C6    O6    A    
C141  C145  A    
C54   C69   A    
C7    O8    A    
C196  C200  A    
C219  O30   A    
C72   H102  S    
C144  H85   S    
C143  C147  A    
O9    Zn6   S    
C116  H12   S    
O3    Zn4   S    
C84   C94   A    
C71   H101  S    
C10   H67   S    
O29   Zn10  S    
C117  H14   S    
C136  H29   S    
Br5   C87   S    
C79   C178  S    
C70   C81   A    
C76   H106  S    
C64   H41   S    
C77   H108  S    
C76   C80   A    
C170  C211  S    
C35   C214  A    
C132  C133  A    
C46   H5    S    
C26   C211  A    
C168  O21   A    
C21   C37   A    
C140  H33   S    
C110  H114  S    
O45   Zn2   S    
C84   H110  S    
C90   C179  S    
C86   H112  S    
C148  O23   A    
C8    C12   A    
C203  C215  S    
C138  H31   S    
O43   Zn4   S    
C125  H20   S    
C129  H23   S    
C73   C82   A    
C65   H52   S    
C142  H11   S    
C91   C93   A    
O48   Zn2   S    
C47   C49   A    
C191  C196  A    
C134  C136  A    
C21   H78   S    
C152  C156  A    
C71   C77   A    
C3    C149  S    
C138  C139  A    
C56   H95   S    
C194  C198  A    
C144  C149  A    
C196  H56   S    
C185  H49   S    
Br7   C89   S    
C217  O32   A    
C30   H82   S    
C13   H128  S    
C201  C206  A    
C106  C212  A    
C136  C137  A    
O5    Zn12  S    
C131  C132  A    
O21   Zn7   S    
O19   Zn6   S    
O22   Zn8   S    
C161  C205  S    
C120  H17   S    
C52   C56   A    
C108  C215  A    
C122  C123  A    
C110  C121  S    
C160  H37   S    
C218  O29   A    
C33   H86   S    
C41   C45   A    
O24   Zn9   S    
C133  H28   S    
O25   Zn10  S    
C155  C182  A    
C197  H57   S    
C28   C65   A    
C40   C44   A    
C75   C78   A    
C28   C167  S    
C119  H16   S    
C220  O36   A    
C164  C208  S    
C153  C157  A    
C172  C176  A    
C54   H93   S    
O26   Zn11  S    
O37   Zn9   S    
C200  C205  A    
C139  C140  A    
C31   H83   S    
C85   C95   A    
O38   Zn10  S    
C115  C116  A    
C11   H68   S    
C68   H7    S    
C204  H64   S    
C192  C213  S    
C16   C18   A    
C216  O31   A    
C202  H62   S    
C110  C181  S    
C49   C210  S    
C218  O33   A    
C202  C207  A    
C131  H26   S    
C84   C88   A    
C47   H90   S    
C145  C150  A    
C25   H81   S    
C66   C99   A    
C121  C127  A    
C164  C173  A    
C14   C17   A    
C4    O3    A    
C22   C33   A    
C85   H111  S    
C22   H79   S    
C102  C106  A    
C8    C19   A    
O40   Zn12  S    
C53   H92   S    
C61   C81   S    
C161  C169  A    
C73   C75   A    
C123  H19   S    
C185  C207  A    
C187  C191  A    
C98   C103  A    
C69   C223  S    
C9    C19   A    
C10   C20   A    
C29   C215  A    
C72   C74   A    
C99   H72   S    
C156  H34   S    
O6    Zn2   S    
C198  C202  A    
C224  O48   A    
O18   Zn6   S    
C44   H88   S    
C189  C194  A    
C56   C61   A    
C60   H99   S    
C11   C20   A    
C221  O39   A    
C146  H107  S    
C105  C109  S    
C107  C111  S    
C209  O22   A    
C192  H124  S    
C57   H6    S    
C170  H122  S    
C78   C94   S    
C85   C89   A    
C104  C108  A    
C121  C122  A    
C77   C80   A    
C168  O17   A    
C55   C60   A    
C118  H15   S    
C126  H21   S    
C128  C129  A    
C24   C68   A    
C126  C127  A    
C148  O11   A    
C171  H39   S    
C41   C51   A    
C162  C171  A    
C59   C62   A    
C154  H13   S    
C155  C160  A    
C124  H8    S    
C146  C151  A    
O34   Zn5   S    
C175  H44   S    
C186  C190  A    
O4    Zn3   S    
C88   C92   A    
C21   C32   A    
C167  O16   A    
C63   H1    S    
C127  H22   S    
O27   Zn8   S    
C183  C187  A    
C166  O19   A    
C71   C81   A    
C83   C87   A    
C7    O7    A    
C32   C36   A    
C116  C117  A    
C186  H50   S    
C193  C197  A    
O17   Zn5   S    
C203  H125  S    
C4    C150  S    
C188  C193  A    
C58   H97   S    
C28   C213  A    
C5    C151  S    
C1    C191  S    
C210  O26   A    
O1    Zn1   S    
C29   C66   A    
C181  H119  S    
C96   H69   S    
C17   C37   S    
C165  O18   A    
O13   Zn7   S    
C13   C150  A    
C55   H94   S    
C189  H54   S    
C15   H76   S    
C59   H98   S    
C108  C114  S    
C184  C188  A    
C66   H63   S    
C198  H58   S    
C186  C208  A    
C12   C17   A    
C147  C224  S    
O30   Zn11  S    
O14   Zn1   S    
C174  C178  A    
C15   C18   A    
C92   C220  S    
O28   Zn9   S    
C200  H60   S    
C154  C158  A    
C141  H10   S    
C209  O24   A    
C135  H9    S    
C159  C195  S    
C6    C19   S    
O23   Zn5   S    
C24   C151  A    
C163  C207  S    
O15   Zn1   S    
C104  C219  S    
C177  H46   S    
C25   C38   A    
O31   Zn9   S    
C75   H105  S    
C114  H116  S    
C216  O27   A    
C48   C209  S    
C31   C34   A    
C223  O42   A    
O33   Zn11  S    
C45   C49   A    
C87   C92   A    
Br1   C39   S    
C39   C43   A    
Br2   C40   S    
C74   C78   A    
C111  C192  S    
Br4   C42   S    
C14   H75   S    
C67   C222  S    
C109  H113  S    
C175  C179  A    
C125  C126  A    
C83   H109  S    
C25   C31   A    
C57   C101  A    
C172  H40   S    
O41   Zn2   S    
C135  C144  A    
C27   C64   A    
O46   Zn3   S    
C117  C118  A    
C33   C36   A    
C1    O1    A    
C119  C120  A    
C96   C100  A    
C109  C170  S    
C190  H55   S    
C157  C162  A    
C143  H74   S    
C13   C57   A    
C159  O13   A    
C103  C218  S    
C107  C213  A    
O35   Zn10  S    
C52   H91   S    
C40   C50   A    
C162  C206  S    
C45   H89   S    
C224  O44   A    
C52   C67   A    
C9    C14   A    
C23   C30   A    
C74   H104  S    
C11   C16   A    
C223  O43   A    
C153  C179  A    
C26   C165  S    
C183  C205  A    
C29   C168  S    
C154  C180  A    
C7    C20   S    
C97   H70   S    
C130  C131  A    
C18   C38   S    
O32   Zn8   S    
C4    O46   A    
C160  C164  A    
C64   C97   A    
C5    O47   A    
O8    Zn4   S    
C190  C195  A    
C124  C143  A    
C114  C203  S    
C93   C221  S    
C36   C51   S    
C139  H32   S    
O7    Zn3   S    
C24   H3    S    
C100  C105  A    
C132  H27   S    
C90   C135  A    
C6    O5    A    
C152  C178  A    
C148  C194  S    
C27   C212  A    
Br3   C41   S    
C53   C67   A    
C167  O20   A    
C128  C133  A    
C222  O40   A    
C54   C59   A    
C68   C113  A    
C166  O15   A    
C30   C34   A    
C58   C61   A    
C113  C142  A    
C187  H51   S    
C43   C48   A    
C203  H121  S    
C157  H35   S    
O10   Zn6   S    
C53   C58   A    
C153  H2    S    
C204  C208  A    
C165  O14   A    
C152  H118  S    
O2    Zn12  S    
C221  O38   A    
C181  C212  S    
C1    O9    A    
C130  H25   S    
C158  C163  A    
C112  O10   A    
C112  C193  S    
C156  C161  A    
C62   C82   S    
C184  C206  A    
C173  H42   S    
C171  C175  A    
C122  H18   S    
C101  C180  S    
O42   Zn3   S    
C10   C15   A    
O44   Zn12  S    
C134  C140  A    
C113  C182  S    
C173  C177  A    
C176  H45   S    
C195  C199  A    
C8    H65   S    
C23   C38   A    
C176  C180  A    
C217  O28   A    
O11   Zn7   S    
C79   C124  A    
C101  C141  A    
C98   H71   S    
C32   H84   S    
C197  C201  A    
C73   H103  S    
C183  H47   S    
C181  H123  S    
O47   Zn4   S    
C2    C149  A    
O12   Zn1   S    
C106  C110  S    
C184  H48   S    
C2    H127  S    
Br6   C88   S    
C112  O12   A    
C199  C204  A    
C163  C172  A    
C114  C134  S    
C83   C94   A    
C188  H53   S    
C80   C95   S    
C55   C69   A    
C9    H66   S    
C201  H61   S    
C27   C166  S    
C3    O45   A    
C199  H59   S    
C123  C125  A    
C102  C217  S    
C86   C95   A    
C23   H80   S    
C129  C130  A    
C42   C47   A    
C111  C128  S    
C35   C79   A    
C109  C115  S    
C145  H96   S    
O36   Zn8   S    
C39   C50   A    
C65   C98   A    
O16   Zn5   S    
C86   C91   A    
C5    O4    A    
C185  C189  A    
C70   H100  S    
C220  O37   A    
C222  O41   A    
C72   C82   A    
C155  H24   S    
C2    C46   A    
C70   C76   A    
C43   H87   S    
C60   C62   A    
C142  C146  A    
C115  C120  A    
C137  H30   S    
C158  H36   S    
C46   C90   A    
C147  C214  A    
C103  C107  A    
C16   H77   S    
C210  O25   A    
C26   C63   A    
C105  C211  A    
C89   C93   A    
C44   C48   A    
C174  H43   S    
