data_mof_unit_32953.cif
_audit_creation_date              2012-10-26T20:19:17-0400
_audit_creation_method            fapswitch 2.2
_symmetry_space_group_name_H-M    P1
_symmetry_Int_Tables_number       1
_space_group_crystal_system       triclinic
_cell_length_a                    15.023717
_cell_length_b                    12.985593
_cell_length_c                    11.689188
_cell_angle_alpha                 100.171712
_cell_angle_beta                  93.677726
_cell_angle_gamma                 90.249856
_cell_volume                      2239.71508525

loop_
_atom_site_label
_atom_site_type_symbol
_atom_type_description
_atom_site_fract_x
_atom_site_fract_y
_atom_site_fract_z
_atom_type_partial_charge
C1    C     C_R   0.499117 0.299092 0.478351 0.538969
C2    C     C_R   0.476874 0.875775 0.638909 -0.122382
C3    C     C_R   0.482151 0.138876 0.560205 -0.143735
C4    C     C_R   0.517283 0.860955 0.439103 -0.136740
C5    C     C_R   0.488205 0.031032 0.552495 0.009744
C6    C     C_R   0.511476 0.968930 0.446518 0.017194
C7    C     C_R   0.419254 0.398768 0.020141 -0.153550
C8    C     C_R   0.580837 0.601117 0.979845 -0.151563
C9    C     C_R   0.427668 0.406258 0.143221 0.438811
C10   C     C_R   0.572431 0.593631 0.856769 0.438789
C11   C     C_R   0.534190 0.544422 0.157511 0.003681
C12   C     C_R   0.500900 0.700916 0.521627 0.538803
C13   C     C_R   0.465816 0.455563 0.842483 0.001727
C14   C     C_R   0.529173 0.536741 0.034673 -0.048223
C15   C     C_R   0.470862 0.463204 0.965317 -0.049514
C16   C     C_R   0.328886 0.499007 0.500462 0.566154
C17   C     C_R   0.671114 0.500985 0.499535 0.565661
C18   C     C_R   0.817637 0.584458 0.570708 0.262486
C19   C     C_R   0.182363 0.415549 0.429228 0.262403
C20   C     C_R   0.767512 0.503810 0.498234 -0.001206
C21   C     C_R   0.232487 0.496168 0.501757 -0.001086
C22   C     C_R   0.809141 0.425611 0.423366 -0.184555
C23   C     C_R   0.036433 0.341765 0.350831 -0.116803
C24   C     C_R   0.190855 0.574337 0.576659 -0.183723
C25   C     C_R   0.901777 0.423697 0.423372 0.002767
C26   C     C_R   0.098220 0.576257 0.576639 0.002787
C27   C     C_R   0.953214 0.501366 0.499344 0.020728
C28   C     C_R   0.046784 0.498596 0.500655 0.020751
C29   C     C_R   0.911215 0.581862 0.573767 0.023633
C30   C     C_R   0.088783 0.418119 0.426205 0.023808
C31   C     C_R   0.943719 0.344587 0.349533 -0.136804
C32   C     C_R   0.056277 0.655373 0.650469 -0.136367
C33   C     C_3   0.756089 0.743677 0.572396 -0.107148
C34   C     C_R   0.963564 0.658217 0.649140 -0.116917
C35   C     C_3   0.243993 0.256332 0.427257 -0.106285
C36   C     C_3   0.501980 0.972957 0.149414 -0.137704
C37   C     C_3   0.517611 0.056592 0.835488 -0.145013
C38   C     C_3   0.620843 0.762334 0.854408 -0.099777
C39   C     C_3   0.379557 0.237400 0.145479 -0.097882
C40   C     C_R   0.499397 0.814354 0.534234 -0.069784
C41   C     C_R   0.500514 0.185642 0.465501 -0.065826
C42   C     C_R   0.527158 0.015295 0.349200 0.272651
C43   C     C_R   0.472402 0.984319 0.649453 0.269361
C44   C     C_R   0.523333 0.124484 0.360799 -0.129928
Cu1   Cu    Cu3+1 0.506660 0.507730 0.615930 1.007338
Cu2   Cu    Cu3+1 0.493340 0.492270 0.384070 1.008490
H1    H     H_    0.769141 0.365091 0.366766 0.121533
H2    H     H_    0.182314 0.226317 0.458966 0.101333
H3    H     H_    0.372670 0.343247 0.967526 0.095302
H4    H     H_    0.627485 0.656555 0.032463 0.095696
H5    H     H_    0.904753 0.284634 0.290904 0.113690
H6    H     H_    0.095242 0.715323 0.709103 0.114958
H7    H     H_    0.066891 0.279623 0.292611 0.155245
H8    H     H_    0.933104 0.720372 0.707341 0.155159
H9    H     H_    0.534929 0.812438 0.358698 0.178589
H10   H     H_    0.464165 0.187110 0.640623 0.173429
H11   H     H_    0.528503 0.042252 0.118287 0.102275
H12   H     H_    0.230853 0.634843 0.633282 0.123005
H13   H     H_    0.429950 0.982537 0.165831 0.109113
H14   H     H_    0.506991 0.904801 0.078195 0.133554
H15   H     H_    0.576844 0.092077 0.803750 0.120237
H16   H     H_    0.535303 0.981093 0.862806 0.095343
H17   H     H_    0.497695 0.110840 0.913665 0.128026
H18   H     H_    0.421119 0.398585 0.788565 0.124546
H19   H     H_    0.578881 0.601408 0.211427 0.124887
H20   H     H_    0.672366 0.779676 0.927897 0.116190
H21   H     H_    0.553616 0.785649 0.884071 0.071330
H22   H     H_    0.636680 0.811574 0.789868 0.137965
H23   H     H_    0.460644 0.839619 0.711806 0.135889
H24   H     H_    0.446703 0.214338 0.115390 0.064828
H25   H     H_    0.327830 0.219948 0.072250 0.118078
H26   H     H_    0.364168 0.188036 0.210083 0.138717
H27   H     H_    0.540756 0.161963 0.289482 0.127580
H28   H     H_    0.725764 0.810592 0.628052 0.132632
H29   H     H_    0.707248 0.715361 0.497717 0.117686
H30   H     H_    0.817807 0.773597 0.540682 0.101177
H31   H     H_    0.292853 0.284598 0.501925 0.117827
H32   H     H_    0.274328 0.189501 0.371481 0.134118
N1    N     N_R   0.516670 0.519360 0.790130 -0.222761
N2    N     N_R   0.483330 0.480640 0.209870 -0.222859
O1    O     O_R   0.504720 0.354460 0.582000 -0.527869
O2    O     O_3   0.224908 0.335179 0.360589 -0.533279
O3    O     O_3   0.553979 0.953418 0.248072 -0.580764
O4    O     O_3   0.445197 0.043747 0.751087 -0.578948
O5    O     O_3   0.623659 0.656068 0.800773 -0.482282
O6    O     O_3   0.376592 0.343641 0.199197 -0.482043
O7    O     O_R   0.495280 0.645540 0.418000 -0.526183
O8    O     O_R   0.493480 0.341410 0.386200 -0.466900
O9    O     O_R   0.506520 0.658590 0.613800 -0.466659
O10   O     O_R   0.375880 0.506510 0.597910 -0.536568
O11   O     O_R   0.624120 0.493490 0.402090 -0.537390
O12   O     O_R   0.364640 0.493450 0.402110 -0.417836
O13   O     O_R   0.635360 0.506550 0.597890 -0.418608
O14   O     O_3   0.775091 0.664917 0.639211 -0.533207

loop_
_geom_bond_atom_site_label_1
_geom_bond_atom_site_label_2
_ccdc_geom_bond_type
C25   C31   A    
C13   N1    A    
C10   O5    S    
C26   C32   A    
C16   C21   S    
C27   C29   A    
C17   O11   A    
C36   H13   S    
Cu1   O13   S    
C33   O14   S    
C37   H16   S    
Cu1   Cu2   S    
C16   O10   A    
C19   C21   A    
C24   C26   A    
C5    C6    A    
C11   C14   A    
Cu2   O12   S    
C36   O3    S    
C1    O1    A    
C17   C20   S    
C32   H6    S    
C33   H29   S    
C38   H20   S    
C22   C25   A    
C39   H26   S    
C37   O4    S    
C19   O2    S    
Cu1   O9    S    
C1    O8    A    
C7    C15   A    
C22   H1    S    
C5    C43   A    
C43   O4    S    
C42   C44   A    
C35   H2    S    
C37   H17   S    
C35   O2    S    
C23   H7    S    
Cu2   O8    S    
C38   O5    S    
C23   C30   A    
C4    C40   A    
C12   O9    A    
C7    H3    S    
C4    C6    A    
C36   H11   S    
C31   H5    S    
Cu2   O11   S    
C36   H14   S    
C29   C34   A    
C35   H31   S    
C9    N2    A    
C23   C31   A    
C12   C40   S    
C9    O6    S    
C3    H10   S    
C33   H30   S    
C2    C43   A    
Cu1   N1    S    
C18   C29   A    
Cu1   O10   S    
C1    C41   S    
C20   C22   A    
C34   H8    S    
C13   C15   A    
C4    H9    S    
C18   O14   S    
C41   C44   A    
C17   O13   A    
C2    H23   S    
C8    H4    S    
Cu2   O7    S    
C7    C9    A    
C3    C41   A    
C8    C14   A    
C12   O7    A    
C8    C10   A    
Cu1   O1    S    
C42   O3    S    
C38   H22   S    
C3    C5    A    
C37   H15   S    
C10   N1    A    
C16   O12   A    
C25   C27   A    
C35   H32   S    
C26   C28   A    
C28   C30   A    
Cu2   N2    S    
C13   H18   S    
C39   H24   S    
C18   C20   A    
C44   H27   S    
C11   N2    A    
C2    C40   A    
C33   H28   S    
C38   H21   S    
C24   H12   S    
C6    C42   A    
C21   C24   A    
C27   C28   A    
C39   H25   S    
C14   C15   A    
C39   O6    S    
C19   C30   A    
C11   H19   S    
C32   C34   A    
