data_mof_unit_39452.cif
_audit_creation_date              2012-12-10T17:15:41-0500
_audit_creation_method            fapswitch 2.2
_symmetry_space_group_name_H-M    P1
_symmetry_Int_Tables_number       1
_space_group_crystal_system       triclinic
_cell_length_a                    17.341843
_cell_length_b                    13.00362
_cell_length_c                    11.666563
_cell_angle_alpha                 100.04485
_cell_angle_beta                  90.084736
_cell_angle_gamma                 90.660733
_cell_volume                      2590.37250535

loop_
_atom_site_label
_atom_site_type_symbol
_atom_type_description
_atom_site_fract_x
_atom_site_fract_y
_atom_site_fract_z
_atom_type_partial_charge
C1    C     C_R   0.498413 0.299093 0.478578 0.818254
C2    C     C_R   0.501541 0.700911 0.521413 0.818794
C3    C     C_R   0.504204 0.814274 0.533782 -0.072671
C4    C     C_R   0.495355 0.185715 0.466103 -0.091664
C5    C     C_R   0.462151 0.016022 0.351566 0.094385
C6    C     C_R   0.536112 0.983795 0.647882 0.097976
C7    C     C_R   0.468154 0.124945 0.363085 -0.201548
C8    C     C_R   0.530623 0.875384 0.636994 -0.229797
C9    C     C_R   0.518018 0.139214 0.559187 -0.287046
C10   C     C_R   0.481735 0.860708 0.440385 -0.285566
C11   C     C_R   0.513351 0.031256 0.552374 0.124091
C12   C     C_R   0.485439 0.968998 0.447366 0.096925
C13   C     C_R   0.425226 0.405474 0.028866 -0.351934
C14   C     C_R   0.574419 0.595036 0.971215 -0.349323
C15   C     C_R   0.432623 0.414012 0.150371 0.076284
C16   C     C_R   0.567173 0.586275 0.849671 0.080262
C17   C     C_R   0.532372 0.540544 0.154035 0.020511
C18   C     C_R   0.467648 0.459398 0.845945 0.023129
C19   C     C_R   0.527067 0.534403 0.031682 0.068168
C20   C     C_R   0.472799 0.465757 0.968334 0.073840
C21   C     C_R   0.350731 0.499616 0.514867 0.803330
C22   C     C_R   0.649303 0.500449 0.485097 0.804231
C23   C     C_R   0.266713 0.493424 0.521024 -0.054146
C24   C     C_R   0.733394 0.505904 0.478320 -0.053983
C25   C     C_R   0.222871 0.499058 0.421595 -0.213760
C26   C     C_R   0.777297 0.516551 0.580675 -0.212938
C27   C     C_R   0.143491 0.488856 0.424055 -0.189405
C28   C     C_R   0.856844 0.523672 0.576002 -0.189067
C29   C     C_R   0.105847 0.473976 0.526432 0.168248
C30   C     C_R   0.894160 0.519617 0.468955 0.164050
C31   C     C_R   0.149724 0.465071 0.626636 0.124723
C32   C     C_R   0.850710 0.509562 0.364836 0.119464
C33   C     C_R   0.230111 0.476018 0.622994 -0.230620
C34   C     C_R   0.770198 0.502912 0.370892 -0.233189
C35   C     C_2   0.021109 0.467849 0.526902 -0.258873
C36   C     C_2   0.978453 0.526514 0.468035 -0.240251
Cu1   Cu    Cu3+1 0.505800 0.507690 0.615350 0.934558
Cu2   Cu    Cu3+1 0.494200 0.492310 0.384650 0.933572
H1    H     H_    0.249885 0.510693 0.341093 0.158168
H2    H     H_    0.750274 0.520001 0.664890 0.156500
H3    H     H_    0.603915 0.633360 0.804022 0.117910
H4    H     H_    0.395859 0.366932 0.195995 0.118488
H5    H     H_    0.382837 0.351808 0.982684 0.136586
H6    H     H_    0.616729 0.648812 0.017409 0.133848
H7    H     H_    0.736317 0.494271 0.291584 0.148979
H8    H     H_    0.264173 0.468593 0.699046 0.146282
H9    H     H_    0.005457 0.579495 0.417495 0.153232
H10   H     H_    0.992811 0.415871 0.577514 0.161812
H11   H     H_    0.889449 0.533148 0.656556 0.137225
H12   H     H_    0.111641 0.491278 0.344670 0.137564
H13   H     H_    0.461237 0.810778 0.362187 0.156980
H14   H     H_    0.539396 0.188825 0.636932 0.170944
H15   H     H_    0.548071 0.838234 0.709019 0.148466
H16   H     H_    0.450741 0.164125 0.293054 0.146512
H17   H     H_    0.426218 0.406524 0.796364 0.116551
H18   H     H_    0.573897 0.593267 0.203596 0.117734
N1    N     N_R   0.514530 0.519260 0.788680 -0.179336
N2    N     N_R   0.485470 0.480740 0.211320 -0.177372
O1    O     O_R   0.504120 0.354440 0.581590 -0.590050
O2    O     O_R   0.495880 0.645560 0.418410 -0.590597
O3    O     O_R   0.494320 0.341440 0.386760 -0.590514
O4    O     O_R   0.505680 0.658560 0.613240 -0.589690
O5    O     O_R   0.391870 0.507230 0.608700 -0.588913
O6    O     O_R   0.608130 0.492770 0.391300 -0.589532
O7    O     O_R   0.382070 0.494240 0.413880 -0.593494
O8    O     O_R   0.617930 0.505760 0.586120 -0.593403
C37   C     C_3   0.113275 0.441362 0.736882 -0.436229
C38   C     C_3   0.105135 0.322931 0.730317 -0.339392
C39   C     C_3   0.064625 0.296717 0.837513 -0.868830
H19   H     H_    0.097451 0.329961 0.917519 0.256848
H20   H     H_    0.005354 0.328596 0.843115 0.258327
H21   H     H_    0.060696 0.210622 0.831242 0.243213
H22   H     H_    0.071469 0.288009 0.651698 0.215942
H23   H     H_    0.163281 0.287228 0.723885 0.218802
H24   H     H_    0.149726 0.474216 0.813403 0.194070
H25   H     H_    0.056393 0.479742 0.751930 0.196779
C40   C     C_3   0.888449 0.500478 0.246676 -0.428796
C41   C     C_3   0.922379 0.391449 0.209119 -0.321202
C42   C     C_3   0.960411 0.381253 0.090123 -0.882618
H26   H     H_    0.917640 0.394595 0.023412 0.254723
H27   H     H_    0.008649 0.438623 0.092817 0.254388
H28   H     H_    0.983709 0.301322 0.065219 0.248948
H29   H     H_    0.966193 0.375551 0.273137 0.228531
H30   H     H_    0.875659 0.331574 0.204829 0.219956
H31   H     H_    0.845409 0.514277 0.180344 0.192298
H32   H     H_    0.933792 0.561731 0.248422 0.187091
C43   C     C_3   0.430843 0.949271 0.239707 -0.414442
C44   C     C_3   0.404532 0.008177 0.143425 -0.366283
C45   C     C_3   0.373545 0.932666 0.037960 -0.844967
H33   H     H_    0.419736 0.879209 0.999081 0.255526
H34   H     H_    0.324509 0.885924 0.063561 0.254980
H35   H     H_    0.352791 0.977401 0.971403 0.235144
H36   H     H_    0.357973 0.063417 0.176780 0.217174
H37   H     H_    0.454033 0.052264 0.114885 0.225784
H38   H     H_    0.476478 0.893830 0.202830 0.198827
H39   H     H_    0.380406 0.903616 0.263066 0.199340
C46   C     C_3   0.567490 0.045016 0.761554 -0.420351
C47   C     C_3   0.502379 0.096821 0.839073 -0.347387
C48   C     C_3   0.534516 0.165077 0.948827 -0.847090
H40   H     H_    0.571008 0.118223 0.998215 0.251155
H41   H     H_    0.569328 0.230708 0.925723 0.261265
H42   H     H_    0.486188 0.197820 0.005373 0.239502
H43   H     H_    0.466490 0.145916 0.791605 0.217840
H44   H     H_    0.464541 0.035139 0.864495 0.226134
H45   H     H_    0.598797 0.992231 0.810617 0.191291
H46   H     H_    0.611226 0.103398 0.744196 0.193813

loop_
_geom_bond_atom_site_label_1
_geom_bond_atom_site_label_2
_ccdc_geom_bond_type
C43   C44   S    
C27   C29   A    
C35   C36   D    
Cu1   O4    S    
C40   C41   S    
C31   C37   S    
C14   H6    S    
C24   C26   A    
C1    O1    A    
C2    O2    A    
C10   H13   S    
C38   H23   S    
C47   H43   S    
C36   H9    S    
C39   H20   S    
C22   O8    A    
C32   C40   S    
Cu2   N2    S    
C41   H29   S    
C19   C20   A    
C38   C39   S    
C23   C33   A    
C43   H38   S    
C31   C33   A    
C45   H34   S    
C18   C20   A    
C27   H12   S    
C17   N2    A    
Cu2   O3    S    
C46   H45   S    
C40   H31   S    
Cu1   O8    S    
C33   H8    S    
C9    H14   S    
C4    C7    A    
C35   H10   S    
Cu1   O5    S    
C46   C47   S    
Cu2   O6    S    
C44   H37   S    
C37   C38   S    
C6    C46   S    
C5    C12   A    
C3    C8    A    
C6    C11   A    
C5    C7    A    
C41   C42   S    
C6    C8    A    
C38   H22   S    
C24   C34   A    
C32   C34   A    
C39   H21   S    
Cu1   Cu2   S    
C28   H11   S    
C18   N1    A    
C48   H40   S    
Cu2   O7    S    
C43   H39   S    
C34   H7    S    
C45   H35   S    
C9    C11   A    
C17   H18   S    
Cu1   O1    S    
C10   C12   A    
C18   H17   S    
Cu2   O2    S    
C46   H46   S    
C48   H41   S    
C40   H32   S    
C13   C15   A    
C15   N2    A    
C14   C16   A    
C37   H24   S    
C13   H5    S    
C42   H27   S    
C44   H36   S    
C13   C20   A    
C21   O7    A    
C14   C19   A    
C15   H4    S    
C1    O3    A    
C8    H15   S    
C42   H28   S    
C11   C12   A    
C25   C27   A    
C29   C35   S    
C26   C28   A    
C30   C36   S    
C1    C4    S    
C21   C23   S    
C2    C3    S    
C4    C9    A    
C29   C31   A    
C3    C10   A    
C25   H1    S    
C30   C32   A    
C26   H2    S    
C47   H44   S    
C28   C30   A    
C17   C19   A    
C22   C24   S    
C16   N1    A    
C23   C25   A    
C39   H19   S    
C21   O5    A    
C22   O6    A    
C42   H26   S    
C5    C43   S    
C41   H30   S    
C48   H42   S    
C44   C45   S    
C47   C48   S    
C37   H25   S    
C7    H16   S    
C45   H33   S    
C16   H3    S    
Cu1   N1    S    
C2    O4    A    
