data_mof_unit_48938.cif
_audit_creation_date              2012-12-11T14:44:12-0500
_audit_creation_method            fapswitch 2.2
_symmetry_space_group_name_H-M    P1
_symmetry_Int_Tables_number       1
_space_group_crystal_system       triclinic
_cell_length_a                    18.896107
_cell_length_b                    11.051823
_cell_length_c                    18.781528
_cell_angle_alpha                 89.96293
_cell_angle_beta                  89.800778
_cell_angle_gamma                 90.0225
_cell_volume                      3922.2424195

loop_
_atom_site_label
_atom_site_type_symbol
_atom_type_description
_atom_site_fract_x
_atom_site_fract_y
_atom_site_fract_z
_atom_type_partial_charge
C1    C     C_R   0.732432 0.384103 0.149148 0.537787
C2    C     C_R   0.989694 0.997560 0.033663 -0.140251
C3    C     C_R   0.997037 0.777634 0.036628 0.047266
C4    C     C_R   0.497657 0.058280 0.035826 -0.132428
C5    C     C_R   0.505170 0.058058 0.962876 -0.124691
C6    C     C_R   0.997677 0.558280 0.035815 -0.132555
C7    C     C_R   0.005189 0.558053 0.962865 -0.124567
C8    C     C_R   0.509688 0.497702 0.962612 -0.093784
C9    C     C_R   0.489674 0.497563 0.033688 -0.140197
C10   C     C_R   0.675989 0.932366 0.024599 0.072606
C11   C     C_R   0.324300 0.933847 0.975627 0.071518
C12   C     C_R   0.175993 0.432342 0.024603 0.072562
C13   C     C_R   0.824301 0.433854 0.975627 0.071563
C14   C     C_R   0.681843 0.913657 0.950989 -0.165898
C15   C     C_R   0.318343 0.915117 0.049253 -0.165492
C16   C     C_R   0.181846 0.413639 0.950993 -0.166005
C17   C     C_R   0.267560 0.383991 0.850870 0.537539
C18   C     C_R   0.818342 0.415121 0.049253 -0.165352
C19   C     C_R   0.742673 0.948932 0.914722 -0.009259
C20   C     C_R   0.257205 0.949369 0.085285 -0.007766
C21   C     C_R   0.242673 0.448921 0.914725 -0.009494
C22   C     C_R   0.757203 0.449371 0.085284 -0.007520
C23   C     C_R   0.787729 0.033963 0.946797 0.130329
C24   C     C_R   0.211749 0.033546 0.052939 0.127097
C25   C     C_R   0.287728 0.533951 0.946800 0.130229
C26   C     C_R   0.711746 0.533548 0.052938 0.127174
C27   C     C_R   0.785400 0.049769 0.020403 0.108182
C28   C     C_R   0.232433 0.884105 0.149149 0.537971
C29   C     C_R   0.214119 0.049143 0.979331 0.119436
C30   C     C_R   0.285402 0.549752 0.020405 0.108236
C31   C     C_R   0.714118 0.549147 0.979331 0.119387
C32   C     C_R   0.730563 0.995589 0.061122 0.042825
C33   C     C_R   0.269442 0.995970 0.938862 0.046711
C34   C     C_R   0.230568 0.495565 0.061125 0.042794
C35   C     C_R   0.769442 0.495976 0.938862 0.046755
C36   C     C_R   0.479829 0.059893 0.456743 -0.135903
C37   C     C_R   0.473691 0.056540 0.529395 -0.127752
C38   C     C_R   0.026458 0.556597 0.470726 -0.128155
C39   C     C_R   0.767560 0.883992 0.850871 0.537325
C40   C     C_R   0.020339 0.560057 0.543382 -0.135764
C41   C     C_R   0.483469 0.161939 0.569935 0.038631
C42   C     C_R   0.500392 0.166949 0.423140 0.034402
C43   C     C_R   0.999639 0.667075 0.576856 0.033900
C44   C     C_R   0.016532 0.661867 0.430059 0.038142
C45   C     C_R   0.530791 0.155764 0.146740 0.571582
C46   C     C_R   0.469593 0.155642 0.852867 0.536779
C47   C     C_R   0.030797 0.655764 0.146736 0.573749
C48   C     C_R   0.969596 0.655640 0.852865 0.534664
C49   C     C_R   0.498075 0.272080 0.536069 -0.142177
C50   C     C_R   0.521202 0.389583 0.926248 0.143740
C51   C     C_R   0.506995 0.274491 0.462548 -0.135898
C52   C     C_R   0.992898 0.774506 0.537312 -0.135943
C53   C     C_R   0.001806 0.772001 0.463791 -0.141579
C54   C     C_R   0.814121 0.954879 0.460075 -0.134796
C55   C     C_R   0.183825 0.946403 0.541726 -0.132763
C56   C     C_R   0.316252 0.446010 0.458184 -0.132004
C57   C     C_R   0.685888 0.454947 0.539899 -0.135510
C58   C     C_R   0.817036 0.949300 0.532794 -0.128066
C59   C     C_R   0.180092 0.938836 0.468986 -0.124850
C60   C     C_R   0.320001 0.438557 0.530933 -0.124680
C61   C     C_R   0.482166 0.389024 0.071022 0.125445
C62   C     C_R   0.682956 0.449206 0.467184 -0.128141
C63   C     C_R   0.759465 0.903883 0.572049 0.036559
C64   C     C_R   0.238687 0.898682 0.429229 0.037241
C65   C     C_R   0.261348 0.398658 0.570750 0.036934
C66   C     C_R   0.740509 0.403741 0.427971 0.036925
C67   C     C_R   0.698377 0.864531 0.537015 -0.134240
C68   C     C_R   0.300497 0.861967 0.463904 -0.136850
C69   C     C_R   0.199479 0.362018 0.536143 -0.137253
C70   C     C_R   0.801576 0.364431 0.463055 -0.133810
C71   C     C_R   0.694195 0.875453 0.463453 -0.130881
C72   C     C_R   0.021232 0.889574 0.926227 0.144048
C73   C     C_R   0.304841 0.872616 0.537439 -0.133463
C74   C     C_R   0.195128 0.372544 0.462602 -0.133620
C75   C     C_R   0.805765 0.375471 0.536609 -0.130671
C76   C     C_R   0.751715 0.923592 0.425084 0.031909
C77   C     C_R   0.247308 0.919782 0.576059 0.031870
C78   C     C_R   0.252703 0.419551 0.423915 0.032485
C79   C     C_R   0.748274 0.423689 0.574928 0.031248
C80   C     C_R   0.727726 0.018228 0.139385 0.582707
C81   C     C_R   0.272298 0.018312 0.860570 0.586045
C82   C     C_R   0.227732 0.518206 0.139387 0.582833
C83   C     C_R   0.982194 0.889024 0.071000 0.125215
C84   C     C_R   0.772299 0.518315 0.860570 0.585914
C85   C     C_R   0.728515 0.375653 0.353739 0.550015
C86   C     C_R   0.272125 0.374118 0.645632 0.548897
C87   C     C_R   0.227879 0.874078 0.354363 0.549284
C88   C     C_R   0.771469 0.875741 0.646277 0.549579
C89   C     C_R   0.531431 0.157357 0.352806 0.550481
C90   C     C_R   0.464756 0.156408 0.644750 0.545908
C91   C     C_R   0.035255 0.656351 0.355253 0.550568
C92   C     C_R   0.968581 0.657419 0.647195 0.545302
C93   C     C_R   0.741751 0.970206 0.353917 0.557910
C94   C     C_R   0.009713 0.997695 0.962588 -0.093800
C95   C     C_R   0.258028 0.969497 0.646420 0.555021
C96   C     C_R   0.241978 0.469400 0.353565 0.556835
C97   C     C_R   0.758250 0.470281 0.646078 0.556064
C98   C     C_R   0.502548 0.165460 0.924142 -0.013621
C99   C     C_R   0.500200 0.165818 0.074308 0.020963
C100  C     C_R   0.002569 0.665454 0.924130 -0.013098
C101  C     C_R   0.000223 0.665819 0.074295 0.020469
C102  C     C_R   0.507276 0.277484 0.961180 0.011766
C103  C     C_R   0.497002 0.277634 0.036644 0.047578
C104  C     C_R   0.007310 0.777478 0.961164 0.012056
Cr1   Cr    Cr6+3 0.772000 0.169640 0.250110 1.008222
Cr2   Cr    Cr6+3 0.383330 0.010620 0.749160 1.015156
Cr3   Cr    Cr6+3 0.116670 0.510620 0.250840 1.015541
Cr4   Cr    Cr6+3 0.883330 0.510620 0.749160 1.016428
Cr5   Cr    Cr6+3 0.228000 0.169640 0.749890 1.018413
Cr6   Cr    Cr6+3 0.272000 0.669640 0.250110 1.006504
Cr7   Cr    Cr6+3 0.728000 0.669640 0.749890 1.020112
Cr8   Cr    Cr6+3 0.614960 0.323350 0.249260 1.004477
Cr9   Cr    Cr6+3 0.385040 0.323350 0.750740 0.990744
Cr10  Cr    Cr6+3 0.114960 0.823350 0.249260 1.005707
Cr11  Cr    Cr6+3 0.885040 0.823350 0.750740 0.989604
Cr12  Cr    Cr6+3 0.616670 0.010620 0.250840 1.016687
H1    H     H_    0.493680 0.972242 0.062894 0.154928
H2    H     H_    0.981337 0.082843 0.060641 0.111807
H3    H     H_    0.516824 0.583194 0.935387 0.124078
H4    H     H_    0.481326 0.582846 0.060668 0.111718
H5    H     H_    0.473272 0.976101 0.427532 0.125569
H6    H     H_    0.460142 0.970543 0.553419 0.129394
H7    H     H_    0.040109 0.470648 0.446792 0.129130
H8    H     H_    0.027012 0.476350 0.572704 0.125408
H9    H     H_    0.865813 0.977829 0.557805 0.129107
H10   H     H_    0.130303 0.962818 0.444293 0.134538
H11   H     H_    0.369832 0.462429 0.555588 0.134752
H12   H     H_    0.508281 0.971791 0.935998 0.156486
H13   H     H_    0.634184 0.477688 0.442147 0.128977
H14   H     H_    0.654324 0.825896 0.566276 0.123651
H15   H     H_    0.345121 0.826108 0.434354 0.118288
H16   H     H_    0.154811 0.326317 0.565753 0.118024
H17   H     H_    0.845612 0.325763 0.433841 0.123916
H18   H     H_    0.645215 0.851398 0.437210 0.130009
H19   H     H_    0.354068 0.849769 0.563464 0.120403
H20   H     H_    0.145861 0.349779 0.436619 0.120221
H21   H     H_    0.854734 0.351433 0.562879 0.130288
H22   H     H_    0.575652 0.313729 0.841554 0.231805
H23   H     H_    0.993691 0.472245 0.062884 0.155004
H24   H     H_    0.520780 0.431356 0.820754 0.238277
H25   H     H_    0.400792 0.426655 0.136953 0.272801
H26   H     H_    0.481425 0.452243 0.172088 0.229157
H27   H     H_    0.075588 0.813714 0.841460 0.231228
H28   H     H_    0.020786 0.931491 0.820750 0.237943
H29   H     H_    0.900760 0.926527 0.136896 0.272840
H30   H     H_    0.981410 0.952327 0.172065 0.229303
H31   H     H_    0.633292 0.817034 0.095982 0.275212
H32   H     H_    0.581529 0.840745 0.026449 0.191147
H33   H     H_    0.367684 0.818454 0.904811 0.274861
H34   H     H_    0.008292 0.471784 0.935988 0.156401
H35   H     H_    0.419265 0.843983 0.974189 0.190434
H36   H     H_    0.133285 0.317037 0.095994 0.275302
H37   H     H_    0.081531 0.340731 0.026453 0.191171
H38   H     H_    0.867686 0.318457 0.904815 0.274759
H39   H     H_    0.919268 0.343997 0.974191 0.190414
H40   H     H_    0.640318 0.866953 0.922596 0.111510
H41   H     H_    0.359853 0.868486 0.077755 0.113166
H42   H     H_    0.140319 0.366943 0.922599 0.111292
H43   H     H_    0.859852 0.368491 0.077755 0.113372
H44   H     H_    0.883296 0.063166 0.898319 0.256621
H45   H     H_    0.859455 0.991417 0.431812 0.127516
H46   H     H_    0.812182 0.128526 0.855948 0.246726
H47   H     H_    0.115610 0.060641 0.100714 0.258896
H48   H     H_    0.186033 0.127560 0.143565 0.247393
H49   H     H_    0.383279 0.563204 0.898305 0.256648
H50   H     H_    0.312148 0.628536 0.855955 0.246820
H51   H     H_    0.615595 0.560604 0.100685 0.258873
H52   H     H_    0.686001 0.627512 0.143578 0.247324
H53   H     H_    0.812414 0.192666 0.076134 0.253325
H54   H     H_    0.875780 0.156606 0.019195 0.236554
H55   H     H_    0.185490 0.190516 0.922632 0.245971
H56   H     H_    0.138251 0.980816 0.570462 0.128851
H57   H     H_    0.122798 0.153681 0.980139 0.232640
H58   H     H_    0.312384 0.692673 0.076119 0.253352
H59   H     H_    0.375769 0.656613 0.019196 0.236561
H60   H     H_    0.685491 0.690525 0.922634 0.245942
H61   H     H_    0.622795 0.653682 0.980135 0.232629
H62   H     H_    0.503295 0.355069 0.566253 0.112978
H63   H     H_    0.522396 0.358529 0.437233 0.119749
H64   H     H_    0.977400 0.858506 0.562520 0.119725
H65   H     H_    0.996484 0.854918 0.433501 0.113674
H66   H     H_    0.361863 0.480265 0.429385 0.129223
H67   H     H_    0.640576 0.491542 0.568119 0.127226
H68   H     H_    0.016840 0.083186 0.935360 0.123960
N1    N     N_3   0.556314 0.397514 0.858340 -0.576885
N2    N     N_3   0.163739 0.105816 0.094289 -0.669289
N3    N     N_3   0.334921 0.607389 0.905109 -0.666692
N4    N     N_3   0.663724 0.605797 0.094285 -0.669323
N5    N     N_3   0.839069 0.120111 0.054608 -0.615984
N6    N     N_3   0.159713 0.117543 0.944861 -0.577471
N7    N     N_3   0.339055 0.620123 0.054609 -0.616010
N8    N     N_3   0.659712 0.617547 0.944859 -0.577402
N9    N     N_3   0.451967 0.392034 0.141096 -0.602461
N10   N     N_3   0.056315 0.897504 0.858300 -0.577108
N11   N     N_3   0.951980 0.892031 0.141067 -0.601594
N12   N     N_3   0.615751 0.884324 0.061739 -0.600288
N13   N     N_3   0.384824 0.886570 0.938685 -0.597665
N14   N     N_3   0.115752 0.384316 0.061741 -0.600367
N15   N     N_3   0.884826 0.386579 0.938686 -0.597592
N16   N     N_3   0.834942 0.107375 0.905108 -0.666745
O1    O     O_R   0.787540 0.042690 0.170470 -0.508619
O2    O     O_R   0.454130 0.051100 0.669160 -0.529583
O3    O     O_R   0.045870 0.551100 0.330840 -0.529585
O4    O     O_R   0.954130 0.551100 0.669160 -0.525907
O5    O     O_R   0.681340 0.959300 0.325510 -0.502866
O6    O     O_R   0.318660 0.959300 0.674490 -0.506668
O7    O     O_R   0.181340 0.459300 0.325510 -0.506410
O8    O     O_R   0.818660 0.459300 0.674490 -0.503131
O9    O     O_3   0.667880 0.167870 0.250070 -0.266732
O10   O     O_3   0.332120 0.167870 0.749930 -0.265624
O11   O     O_3   0.167880 0.667870 0.250070 -0.268492
O12   O     O_R   0.212460 0.042690 0.829530 -0.473862
O13   O     O_3   0.832120 0.667870 0.749930 -0.263871
O14   O     O_R   0.765660 0.292160 0.175050 -0.530955
O15   O     O_R   0.234340 0.292160 0.824950 -0.532858
O16   O     O_R   0.265660 0.792160 0.175050 -0.530844
O17   O     O_R   0.734340 0.792160 0.824950 -0.532967
O18   O     O_R   0.670190 0.408980 0.168550 -0.519666
O19   O     O_R   0.329810 0.408980 0.831450 -0.518652
O20   O     O_R   0.170190 0.908980 0.168550 -0.519417
O21   O     O_R   0.829810 0.908980 0.831450 -0.518917
O22   O     O_R   0.556580 0.251450 0.175160 -0.475512
O23   O     O_R   0.287540 0.542690 0.170470 -0.508695
O24   O     O_R   0.443420 0.251450 0.824840 -0.507252
O25   O     O_R   0.056580 0.751450 0.175160 -0.474553
O26   O     O_R   0.943420 0.751450 0.824840 -0.508126
O27   O     O_R   0.545920 0.049510 0.170320 -0.514341
O28   O     O_R   0.454080 0.049510 0.829680 -0.502167
O29   O     O_R   0.045920 0.549510 0.170320 -0.512501
O30   O     O_R   0.954080 0.549510 0.829680 -0.504027
O31   O     O_R   0.681390 0.957840 0.176710 -0.489358
O32   O     O_R   0.318610 0.957840 0.823290 -0.491101
O33   O     O_R   0.181390 0.457840 0.176710 -0.489157
O34   O     O_R   0.712460 0.542690 0.829530 -0.473818
O35   O     O_R   0.818610 0.457840 0.823290 -0.491361
O36   O     O_R   0.787500 0.044280 0.330990 -0.522193
O37   O     O_R   0.212500 0.044280 0.669010 -0.521164
O38   O     O_R   0.287500 0.544280 0.330990 -0.521479
O39   O     O_R   0.712500 0.544280 0.669010 -0.521876
O40   O     O_R   0.765610 0.293630 0.323860 -0.502354
O41   O     O_R   0.234390 0.293630 0.676140 -0.503810
O42   O     O_R   0.265610 0.793630 0.323860 -0.503123
O43   O     O_R   0.734390 0.793630 0.676140 -0.503015
O44   O     O_R   0.670140 0.410570 0.329080 -0.532142
O45   O     O_R   0.556540 0.252920 0.323970 -0.505607
O46   O     O_R   0.329860 0.410570 0.670920 -0.530717
O47   O     O_R   0.170140 0.910570 0.329080 -0.531396
O48   O     O_R   0.829860 0.910570 0.670920 -0.531462
O49   O     O_R   0.443460 0.252920 0.676030 -0.509300
O50   O     O_R   0.056540 0.752920 0.323970 -0.504044
O51   O     O_R   0.943460 0.752920 0.676030 -0.510586
O52   O     O_R   0.545870 0.051100 0.330840 -0.526529

loop_
_geom_bond_atom_site_label_1
_geom_bond_atom_site_label_2
_ccdc_geom_bond_type
C3    C104  A    
C28   O16   A    
C56   C78   A    
C99   C103  A    
C16   C21   A    
H52   N4    S    
C89   O52   A    
C55   C59   A    
C63   C88   S    
C34   C82   S    
C57   C79   A    
C36   C42   A    
Cr6   O11   S    
Cr8   O22   S    
C54   H45   S    
Cr4   O8    S    
Cr12  O5    S    
C93   O5    A    
C71   H18   S    
C11   N13   S    
C2    H2    S    
Cr1   O9    S    
C57   C62   A    
H44   N16   S    
Cr4   O30   S    
C59   H10   S    
Cr3   O3    S    
H54   N5    S    
C59   C64   A    
H49   N3    S    
C94   H68   S    
C13   C18   A    
H47   N2    S    
C9    C61   A    
C45   O22   A    
C64   C68   A    
C36   C37   A    
C61   C103  A    
Cr9   O10   S    
C15   H41   S    
H48   N2    S    
C69   H16   S    
C45   O27   A    
C71   C76   A    
C55   C77   A    
C43   C52   A    
H60   N8    S    
C88   O48   A    
C47   O29   A    
Cr9   O46   S    
Cr2   O10   S    
C29   C33   A    
H57   N6    S    
C100  C104  A    
Cr7   O34   S    
Cr9   O49   S    
Cr11  O13   S    
C24   N2    S    
C95   O37   A    
C6    C101  A    
C6    H23   S    
H35   N13   S    
C24   C29   A    
C18   H43   S    
C25   N3    S    
C11   C15   A    
C44   C53   A    
H32   N12   S    
C40   C43   A    
C12   C16   A    
Cr2   O28   S    
C78   C96   S    
C8    C9    A    
C49   C51   A    
C81   O32   A    
C74   H20   S    
Cr5   O41   S    
C70   H17   S    
Cr7   O43   S    
C87   O47   A    
C1    O18   A    
C23   C27   A    
Cr5   O12   S    
C64   C87   S    
Cr3   O7    S    
C38   H7    S    
C92   O4    A    
C42   C51   A    
C48   O30   A    
C3    C101  A    
C95   O6    A    
C65   C86   S    
C41   C90   S    
Cr3   O33   S    
Cr4   O35   S    
C1    C22   S    
C86   O46   A    
H61   N8    S    
C37   C41   A    
C83   N11   S    
C62   H13   S    
C2    C83   A    
C15   C20   A    
C46   O24   A    
C26   N4    S    
C66   C85   S    
C51   H63   S    
Cr6   O23   S    
C41   C49   A    
Cr11  O48   S    
C39   O17   A    
Cr9   O19   S    
C93   O36   A    
Cr1   O40   S    
Cr8   O45   S    
C48   C100  S    
C90   O49   A    
C63   C67   A    
C97   O39   A    
C7    C100  A    
C62   C66   A    
Cr12  O27   S    
C16   H42   S    
H50   N3    S    
C73   H19   S    
C2    C94   A    
C88   O43   A    
Cr11  O26   S    
C5    H12   S    
C45   C99   S    
C27   N5    S    
C30   C34   A    
C19   C23   A    
C96   O7    A    
H37   N14   S    
Cr12  O52   S    
C26   C31   A    
C68   C73   A    
C98   C102  A    
H27   N10   S    
C23   N16   S    
C77   C95   S    
C85   O44   A    
C17   C21   S    
C56   C60   A    
H55   N6    S    
Cr10  O11   S    
C68   H15   S    
Cr6   O16   S    
C52   H64   S    
Cr9   O24   S    
C38   C44   A    
Cr12  O9    S    
C53   H65   S    
C76   C93   S    
Cr2   O2    S    
C7    H34   S    
C48   O26   A    
C84   O34   A    
Cr6   O42   S    
Cr1   O1    S    
C80   O1    A    
C47   O25   A    
C11   C33   A    
H22   N1    S    
H36   N14   S    
C69   C74   A    
Cr10  O47   S    
H25   N9    S    
C30   N7    S    
C40   H8    S    
C58   C63   A    
C44   C91   S    
C32   C80   S    
C54   C76   A    
C33   C81   S    
C60   C65   A    
C50   C102  A    
Cr3   O29   S    
Cr12  O31   S    
C75   H21   S    
Cr1   O36   S    
C31   C35   A    
C4    H1    S    
C4    C99   A    
C67   H14   S    
C75   C79   A    
H24   N1    S    
C80   O31   A    
C12   C34   A    
Cr5   O10   S    
C61   N9    S    
C55   H56   S    
C57   H67   S    
Cr11  O51   S    
H39   N15   S    
C52   C53   A    
C49   H62   S    
C54   C58   A    
C92   O51   A    
C25   C30   A    
C21   C25   A    
C46   O28   A    
Cr1   O14   S    
C13   N15   S    
C14   H40   S    
C27   C32   A    
C18   C22   A    
C96   O38   A    
C14   C19   A    
C79   C97   S    
C60   H11   S    
C3    C83   A    
Cr7   O13   S    
Cr10  O20   S    
C4    C5    A    
Cr5   O15   S    
C17   O19   A    
C81   O12   A    
Cr2   O6    S    
C35   C84   S    
Cr6   O38   S    
C13   C35   A    
C6    C7    A    
C82   O23   A    
Cr5   O37   S    
C20   C28   S    
C28   O20   A    
H58   N7    S    
C43   C92   S    
C87   O42   A    
C42   C89   S    
C12   N14   S    
C85   O40   A    
C36   H5    S    
Cr4   O13   S    
C72   C94   A    
Cr4   O4    S    
Cr8   O18   S    
C10   N12   S    
Cr8   O9    S    
Cr3   O11   S    
C38   C40   A    
H38   N15   S    
C66   C70   A    
C56   H66   S    
C86   O41   A    
C65   C69   A    
H51   N4    S    
C31   N8    S    
H46   N16   S    
H26   N9    S    
C89   O45   A    
C8    C50   A    
C67   C71   A    
C47   C101  S    
C97   O8    A    
C46   C98   S    
C102  C103  A    
H59   N7    S    
Cr7   O39   S    
H29   N11   S    
C10   C32   A    
C22   C26   A    
C37   H6    S    
H31   N12   S    
C84   O35   A    
Cr8   O44   S    
C72   N10   S    
H28   N10   S    
C5    C98   A    
Cr11  O21   S    
C58   H9    S    
C19   C39   S    
H53   N5    S    
C74   C78   A    
C82   O33   A    
H33   N13   S    
C1    O14   A    
Cr2   O32   S    
C9    H4    S    
C73   C77   A    
C29   N6    S    
C39   O21   A    
C70   C75   A    
Cr7   O17   S    
C90   O2    A    
H30   N11   S    
C17   O15   A    
C50   N1    S    
C72   C104  A    
C20   C24   A    
C91   O3    A    
C8    H3    S    
C10   C14   A    
Cr10  O25   S    
C91   O50   A    
Cr10  O50   S    
