data_mof_unit_13663.cif
_audit_creation_date              2012-12-10T18:09:31-0500
_audit_creation_method            fapswitch 2.2
_symmetry_space_group_name_H-M    P1
_symmetry_Int_Tables_number       1
_space_group_crystal_system       triclinic
_cell_length_a                    15.160769
_cell_length_b                    15.212441
_cell_length_c                    9.431196
_cell_angle_alpha                 90.040371
_cell_angle_beta                  90.030624
_cell_angle_gamma                 90.001301
_cell_volume                      2175.13761105

loop_
_atom_site_label
_atom_site_type_symbol
_atom_type_description
_atom_site_fract_x
_atom_site_fract_y
_atom_site_fract_z
_atom_type_partial_charge
C1    C     C_R   0.119139 0.378951 0.500143 0.820993
C2    C     C_R   0.118812 0.621324 0.499908 0.822052
C3    C     C_R   0.619293 0.879015 0.499880 0.807130
C4    C     C_R   0.618984 0.121237 0.499923 0.809844
C5    C     C_3   0.066607 0.563134 0.083845 -0.541279
C6    C     C_3   0.066913 0.562832 0.916350 -0.550824
C7    C     C_3   0.566511 0.063192 0.083794 -0.551184
C8    C     C_3   0.567132 0.062585 0.916333 -0.541004
C9    C     C_R   0.878744 0.381337 0.499740 0.806303
C10   C     C_R   0.879239 0.619141 0.499766 0.771395
C11   C     C_R   0.378728 0.881283 0.499796 0.805254
C12   C     C_R   0.379089 0.119059 0.500195 0.769864
C13   C     C_3   0.849684 0.224630 0.547085 -0.417596
C14   C     C_3   0.770721 0.301694 0.347286 -0.352082
C15   C     C_3   0.848189 0.773908 0.560375 -0.441595
C16   C     C_3   0.778043 0.705250 0.345020 -0.424298
C17   C     C_3   0.350891 0.722857 0.535773 -0.424709
C18   C     C_3   0.265148 0.807089 0.350492 -0.353068
C19   C     C_3   0.271747 0.199282 0.652851 -0.422887
C20   C     C_3   0.349811 0.275988 0.451405 -0.427986
C21   C     C_3   0.279659 0.649609 0.530573 -0.051837
C22   C     C_3   0.192229 0.736334 0.350281 -0.061114
C23   C     C_3   0.198102 0.269151 0.652936 -0.042993
C24   C     C_3   0.278971 0.349562 0.457742 -0.041253
C25   C     C_3   0.778520 0.151413 0.543983 -0.052431
C26   C     C_3   0.697981 0.230915 0.346923 -0.056947
C27   C     C_3   0.777029 0.847134 0.557696 -0.027470
C28   C     C_3   0.704812 0.775387 0.344526 -0.042482
C29   C     C_3   0.733206 0.338836 0.600870 -0.359351
C30   C     C_3   0.730082 0.657897 0.589737 -0.389830
C31   C     C_3   0.236837 0.835017 0.609936 -0.352428
C32   C     C_3   0.233335 0.161385 0.399848 -0.390595
C33   C     C_3   0.809335 0.313069 0.498797 0.048553
C34   C     C_3   0.810110 0.687609 0.498821 0.122543
C35   C     C_3   0.309229 0.812972 0.499014 0.050513
C36   C     C_3   0.309810 0.187516 0.501023 0.115091
C37   C     C_3   0.187165 0.691035 0.499419 0.154630
C38   C     C_3   0.187703 0.309389 0.500679 0.140436
C39   C     C_3   0.687271 0.191140 0.499477 0.152863
C40   C     C_3   0.687838 0.809299 0.499469 0.138753
C41   C     C_3   0.166142 0.762281 0.612960 -0.406398
C42   C     C_3   0.162905 0.234458 0.395579 -0.373572
C43   C     C_3   0.661949 0.266492 0.603367 -0.404320
C44   C     C_3   0.658648 0.730158 0.592622 -0.378387
C45   C     C_3   0.913948 0.525889 0.083487 0.577963
C46   C     C_3   0.914096 0.526399 0.916351 0.579954
C47   C     C_3   0.024721 0.412234 0.083576 0.566686
C48   C     C_3   0.024113 0.412087 0.916367 0.587214
C49   C     C_3   0.413909 0.025801 0.083518 0.575292
C50   C     C_3   0.414184 0.026672 0.916381 0.583268
C51   C     C_3   0.524747 0.912295 0.083473 0.590045
C52   C     C_3   0.523838 0.911998 0.916281 0.559765
Cu1   Cu    Cu3+1 0.000100 0.500000 0.642410 1.000409
Cu2   Cu    Cu3+1 0.000100 0.500000 0.357590 1.002133
Cu3   Cu    Cu3+1 0.500100 0.000000 0.642410 1.003068
Cu4   Cu    Cu3+1 0.500100 0.000000 0.357590 0.998366
H1    H     H_    0.878302 0.232027 0.655184 0.232191
H2    H     H_    0.744838 0.365830 0.308575 0.216609
H3    H     H_    0.872434 0.762224 0.670217 0.168512
H4    H     H_    0.754518 0.642845 0.296090 0.191188
H5    H     H_    0.382459 0.726332 0.642232 0.218125
H6    H     H_    0.238187 0.872528 0.320245 0.206325
H7    H     H_    0.246901 0.135106 0.693195 0.192809
H8    H     H_    0.376574 0.268583 0.342145 0.178290
H9    H     H_    0.905069 0.206043 0.475572 0.144338
H10   H     H_    0.823650 0.281273 0.272379 0.236762
H11   H     H_    0.906267 0.795248 0.496850 0.141331
H12   H     H_    0.834031 0.728983 0.278846 0.154334
H13   H     H_    0.404215 0.707114 0.458663 0.154398
H14   H     H_    0.315220 0.789358 0.269010 0.243245
H15   H     H_    0.324934 0.220809 0.726638 0.150859
H16   H     H_    0.406410 0.294258 0.520720 0.133760
H17   H     H_    0.296041 0.604516 0.441097 0.137358
H18   H     H_    0.211006 0.685595 0.270348 0.152152
H19   H     H_    0.218727 0.322669 0.726773 0.133254
H20   H     H_    0.298649 0.397099 0.542075 0.132678
H21   H     H_    0.797907 0.102256 0.461967 0.121345
H22   H     H_    0.719577 0.177290 0.274047 0.145486
H23   H     H_    0.799485 0.899527 0.483399 0.119134
H24   H     H_    0.728496 0.831859 0.279456 0.125714
H25   H     H_    0.758916 0.348372 0.710313 0.255044
H26   H     H_    0.703254 0.402153 0.566539 0.148583
H27   H     H_    0.751435 0.643595 0.700278 0.191591
H28   H     H_    0.701690 0.596248 0.545364 0.154892
H29   H     H_    0.266298 0.841143 0.717562 0.259309
H30   H     H_    0.205504 0.899169 0.583764 0.150902
H31   H     H_    0.202774 0.098806 0.436225 0.156910
H32   H     H_    0.258683 0.150187 0.290583 0.189271
H33   H     H_    0.163643 0.732950 0.720750 0.181098
H34   H     H_    0.099795 0.791255 0.594837 0.152056
H35   H     H_    0.097074 0.206628 0.421466 0.161191
H36   H     H_    0.157182 0.260054 0.285653 0.184335
H37   H     H_    0.654430 0.241340 0.713246 0.176841
H38   H     H_    0.596730 0.294896 0.575253 0.151079
H39   H     H_    0.646666 0.751027 0.703842 0.184381
H40   H     H_    0.594708 0.703024 0.555084 0.158787
H41   H     H_    0.897091 0.593395 0.119619 0.001031
H42   H     H_    0.897962 0.594287 0.881173 -0.003031
H43   H     H_    0.092246 0.393822 0.118820 0.010587
H44   H     H_    0.091168 0.392920 0.880266 0.012342
H45   H     H_    0.396826 0.093188 0.120025 0.001971
H46   H     H_    0.398446 0.094710 0.881620 -0.004456
H47   H     H_    0.592430 0.894313 0.118165 0.013135
H48   H     H_    0.590711 0.892379 0.879754 0.019128
H49   H     H_    0.051690 0.630733 0.121871 0.222257
H50   H     H_    0.052793 0.630455 0.877585 0.205660
H51   H     H_    0.133893 0.546870 0.123078 0.214151
H52   H     H_    0.134178 0.545824 0.877955 0.220460
H53   H     H_    0.551166 0.130760 0.121278 0.227530
H54   H     H_    0.553469 0.130213 0.877187 0.203954
H55   H     H_    0.633779 0.047283 0.123441 0.204638
H56   H     H_    0.634358 0.045092 0.878370 0.232179
N1    N     N_3   0.001260 0.500000 0.143650 -0.240570
N2    N     N_3   0.001260 0.500000 0.856350 -0.244679
N3    N     N_3   0.501260 0.000000 0.143650 -0.244300
N4    N     N_3   0.501260 0.000000 0.856350 -0.241382
O1    O     O_R   0.091250 0.408820 0.620260 -0.574247
O2    O     O_R   0.091250 0.408820 0.379740 -0.569255
O3    O     O_R   0.091250 0.591180 0.620260 -0.592195
O4    O     O_R   0.091250 0.591180 0.379740 -0.590293
O5    O     O_R   0.591250 0.908820 0.620260 -0.560062
O6    O     O_R   0.591250 0.908820 0.379740 -0.578018
O7    O     O_R   0.591250 0.091180 0.620260 -0.581419
O8    O     O_R   0.591250 0.091180 0.379740 -0.596324
O9    O     O_R   0.908940 0.408800 0.620260 -0.477273
O10   O     O_R   0.908940 0.408800 0.379740 -0.490783
O11   O     O_R   0.908940 0.591200 0.620260 -0.591794
O12   O     O_R   0.908940 0.591200 0.379740 -0.583940
O13   O     O_R   0.408940 0.908800 0.620260 -0.484517
O14   O     O_R   0.408940 0.908800 0.379740 -0.482677
O15   O     O_R   0.408940 0.091200 0.620260 -0.590636
O16   O     O_R   0.408940 0.091200 0.379740 -0.583885
N5    N     N_3   0.279783 0.596839 0.660994 -0.605866
H57   H     H_    0.277934 0.637775 0.749994 0.243274
H58   H     H_    0.339184 0.561985 0.665816 0.210841
N6    N     N_3   0.106691 0.773210 0.307043 -0.608164
H59   H     H_    0.093687 0.831190 0.362786 0.219694
H60   H     H_    0.110497 0.790226 0.199770 0.225271
N7    N     N_3   0.114563 0.232747 0.706126 -0.548139
H61   H     H_    0.100682 0.172786 0.656719 0.218646
H62   H     H_    0.121876 0.219568 0.814346 0.232684
N8    N     N_3   0.274499 0.398539 0.323703 -0.603952
H63   H     H_    0.269007 0.355142 0.238189 0.220094
H64   H     H_    0.333804 0.432724 0.310625 0.210381
N9    N     N_3   0.774285 0.105132 0.680413 -0.578173
H65   H     H_    0.767060 0.150152 0.763337 0.241009
H66   H     H_    0.834810 0.073768 0.696681 0.215952
N10   N     N_3   0.614366 0.266197 0.291931 -0.603736
H67   H     H_    0.599272 0.325983 0.340922 0.221139
H68   H     H_    0.622437 0.279584 0.183928 0.225663
N11   N     N_3   0.767202 0.887668 0.698271 -0.577777
H69   H     H_    0.756601 0.839358 0.775103 0.215315
H70   H     H_    0.826863 0.918054 0.724591 0.210694
N12   N     N_3   0.623918 0.741408 0.277913 -0.537232
H71   H     H_    0.607755 0.679738 0.319223 0.223096
H72   H     H_    0.636192 0.732273 0.169753 0.224489
F1    F     F_    0.847891 0.471273 0.133639 -0.599940
F2    F     F_    0.847577 0.472779 0.864791 -0.597939
F3    F     F_    0.968691 0.347800 0.134856 -0.597795
F4    F     F_    0.966878 0.348226 0.866264 -0.579206
F5    F     F_    0.347963 0.970882 0.133239 -0.598840
F6    F     F_    0.347425 0.973529 0.864353 -0.598962
F7    F     F_    0.468974 0.847754 0.135166 -0.580621
F8    F     F_    0.466214 0.848364 0.866558 -0.592113

loop_
_geom_bond_atom_site_label_1
_geom_bond_atom_site_label_2
_ccdc_geom_bond_type
C16   C28   S    
C41   H33   S    
Cu3   Cu4   S    
Cu3   O5    S    
C17   H13   S    
C31   H29   S    
C12   O15   A    
Cu2   O4    S    
C50   F6    S    
C19   H15   S    
C6    H52   S    
C13   C25   S    
C14   C33   S    
N9    H65   S    
C7    C8    S    
C5    H49   S    
C45   C46   S    
C29   H25   S    
Cu2   O10   S    
C26   H22   S    
C37   C41   S    
C25   H21   S    
C32   C36   S    
C23   N7    S    
N10   H68   S    
C38   C42   S    
C27   H23   S    
C19   C36   S    
C8    H56   S    
C49   H45   S    
C5    C6    S    
Cu1   O1    S    
C26   C39   S    
C13   H1    S    
Cu3   N4    S    
C28   C40   S    
C51   H47   S    
C46   F2    S    
Cu2   N1    S    
C21   H17   S    
C43   H38   S    
C47   H43   S    
C4    O8    A    
C42   H35   S    
C16   H4    S    
C7    N3    S    
C30   H27   S    
C6    N2    S    
Cu1   O11   S    
C16   C34   S    
C20   C24   S    
C29   C33   S    
C19   H7    S    
Cu3   O13   S    
C24   C38   S    
N11   H69   S    
C51   F7    S    
C16   H12   S    
C12   C36   S    
C12   O16   A    
C18   C35   S    
C15   C34   S    
N12   H72   S    
C3    O6    A    
C17   H5    S    
C22   C37   S    
C41   H34   S    
C46   H42   S    
C31   H30   S    
C29   C43   S    
C28   N12   S    
C30   C44   S    
C15   H3    S    
C10   O12   A    
C11   O13   A    
C21   N5    S    
N9    H66   S    
C52   N4    S    
C6    H50   S    
C48   H44   S    
Cu3   O7    S    
C30   C34   S    
C51   C52   S    
C45   F1    S    
N10   H67   S    
N6    H60   S    
C24   N8    S    
C46   N2    S    
C24   H20   S    
C47   F3    S    
Cu1   Cu2   S    
C32   H31   S    
Cu2   O12   S    
C9    O9    A    
C7    H53   S    
C4    O7    A    
C22   N6    S    
Cu4   O6    S    
C20   H8    S    
C19   C23   S    
C13   C33   S    
C44   H40   S    
C8    H54   S    
C48   F4    S    
C15   C27   S    
C47   C48   S    
C4    C39   S    
C27   C40   S    
N7    H61   S    
C15   H11   S    
C14   H10   S    
C10   C34   S    
C1    O1    A    
C14   C26   S    
C26   N10   S    
N12   H71   S    
Cu4   O16   S    
C18   H14   S    
Cu1   O9    S    
C1    C38   S    
C9    C33   S    
C49   N3    S    
C52   F8    S    
C3    C40   S    
C50   H46   S    
Cu3   O15   S    
Cu2   O2    S    
N5    H57   S    
C31   C35   S    
C32   H32   S    
C22   H18   S    
C28   H24   S    
C10   O11   A    
C11   O14   A    
Cu4   O8    S    
N8    H64   S    
Cu1   N2    S    
C48   N2    S    
C5    H51   S    
C47   N1    S    
C52   H48   S    
C27   N11   S    
C31   C41   S    
C42   H36   S    
C5    N1    S    
C18   C22   S    
C49   F5    S    
C18   H6    S    
C23   H19   S    
N6    H59   S    
C39   C43   S    
C2    O3    A    
Cu1   O3    S    
C23   C38   S    
C9    O10   A    
C11   C35   S    
C29   H26   S    
C44   H39   S    
C45   H41   S    
C25   C39   S    
N7    H62   S    
C2    C37   S    
C43   H37   S    
Cu4   N3    S    
C7    H55   S    
C50   N4    S    
C1    O2    A    
N11   H70   S    
C30   H28   S    
C13   H9    S    
C51   N3    S    
C8    N4    S    
C20   C36   S    
C45   N1    S    
C40   C44   S    
C21   C37   S    
C49   C50   S    
N5    H58   S    
C32   C42   S    
N8    H63   S    
C20   H16   S    
C25   N9    S    
C17   C35   S    
C2    O4    A    
Cu4   O14   S    
C3    O5    A    
C14   H2    S    
C17   C21   S    
