data_mof_unit_7524.cif
_audit_creation_date              2012-12-10T18:51:37-0500
_audit_creation_method            fapswitch 2.2
_symmetry_space_group_name_H-M    P1
_symmetry_Int_Tables_number       1
_space_group_crystal_system       triclinic
_cell_length_a                    10.746681
_cell_length_b                    9.829981
_cell_length_c                    10.541453
_cell_angle_alpha                 89.829351
_cell_angle_beta                  87.92642
_cell_angle_gamma                 90.323475
_cell_volume                      1112.84303759

loop_
_atom_site_label
_atom_site_type_symbol
_atom_type_description
_atom_site_fract_x
_atom_site_fract_y
_atom_site_fract_z
_atom_type_partial_charge
C1    C     C_R   0.872549 0.502019 0.497403 -0.413128
C2    C     C_R   0.127452 0.497985 0.502592 -0.413123
C3    C     C_R   0.259956 0.499441 0.501125 1.013159
C4    C     C_R   0.740044 0.500559 0.498874 1.013163
C5    C     C_R   0.501075 0.500348 0.257321 0.961494
C6    C     C_R   0.498926 0.499652 0.742679 0.961489
C7    C     C_3   0.474782 0.625491 0.039990 0.510593
C8    C     C_3   0.525220 0.374507 0.960010 0.510596
C9    C     C_3   0.586495 0.586039 0.954368 0.493509
C10   C     C_3   0.413507 0.413960 0.045633 0.493510
C11   C     C_3   0.384292 0.538879 0.963097 -0.533304
C12   C     C_3   0.615710 0.461120 0.036903 -0.533293
C13   C     C_3   0.498045 0.498851 0.877267 -0.246034
C14   C     C_3   0.501957 0.501147 0.122733 -0.246038
C15   C     C_R   0.430399 0.071269 0.588630 -0.064363
C16   C     C_R   0.569601 0.928731 0.411370 -0.064355
C17   C     C_R   0.569673 0.072703 0.411420 -0.048102
C18   C     C_R   0.430327 0.927297 0.588580 -0.048095
C19   C     C_R   0.065604 0.389792 0.444519 0.367578
C20   C     C_R   0.934396 0.610214 0.555473 0.367580
C21   C     C_R   0.937467 0.395170 0.437276 0.366320
C22   C     C_R   0.062533 0.604835 0.562718 0.366309
H1    H     H_    0.374774 0.125317 0.659444 0.125500
H2    H     H_    0.625227 0.874683 0.340557 0.125489
H3    H     H_    0.625385 0.127887 0.340672 0.140374
H4    H     H_    0.374613 0.872113 0.659326 0.140369
H5    H     H_    0.291565 0.569148 0.931652 0.161580
H6    H     H_    0.708435 0.430849 0.068353 0.161581
N1    N     N_R   0.500000 0.857200 0.500000 -0.077894
N2    N     N_R   0.500000 0.142800 0.500000 -0.077897
O1    O     O_R   0.316770 0.614620 0.499990 -0.583928
O2    O     O_R   0.683230 0.385380 0.500010 -0.583929
O3    O     O_R   0.683230 0.614620 0.500010 -0.602024
O4    O     O_R   0.316770 0.385380 0.499990 -0.602021
O5    O     O_R   0.499970 0.614650 0.313950 -0.606979
O6    O     O_R   0.500030 0.385350 0.686050 -0.606976
O7    O     O_R   0.500030 0.614650 0.686050 -0.604274
O8    O     O_R   0.499970 0.385350 0.313950 -0.604271
Zn1   Zn    Zn3+2 0.500000 0.653120 0.500000 1.001024
Zn2   Zn    Zn3+2 0.500000 0.346880 0.500000 1.001026
O9    O     O_3   0.453795 0.755487 0.092883 -0.591204
C23   C     C_3   0.401864 0.840928 0.001665 -0.310518
H7    H     H_    0.304588 0.809798 0.984017 0.153430
H8    H     H_    0.458904 0.843357 0.911371 0.188792
H9    H     H_    0.398266 0.945868 0.039813 0.194192
O10   O     O_3   0.546208 0.244513 0.907116 -0.591204
C24   C     C_3   0.598131 0.159067 0.998332 -0.310531
H10   H     H_    0.541081 0.156627 0.088613 0.188800
H11   H     H_    0.695399 0.190200 0.015996 0.153432
H12   H     H_    0.601742 0.054131 0.960179 0.194193
O11   O     O_3   0.672243 0.676790 0.894255 -0.564079
C25   C     C_3   0.752183 0.729957 0.984930 -0.287937
H13   H     H_    0.813259 0.649356 0.022222 0.143491
H14   H     H_    0.699590 0.780836 0.064091 0.173486
H15   H     H_    0.813311 0.807809 0.937994 0.188455
O12   O     O_3   0.327759 0.323208 0.105746 -0.564079
C26   C     C_3   0.247814 0.270047 0.015073 -0.287944
H16   H     H_    0.300403 0.219173 0.935907 0.173482
H17   H     H_    0.186736 0.350650 0.977789 0.143495
H18   H     H_    0.186688 0.192193 0.062009 0.188454
O13   O     O_3   0.131326 0.286440 0.383539 -0.549788
C27   C     C_3   0.121526 0.167033 0.458178 -0.180358
H19   H     H_    0.147592 0.185479 0.558041 0.123205
H20   H     H_    0.187097 0.090570 0.417568 0.182453
H21   H     H_    0.026425 0.122462 0.456375 0.168287
O14   O     O_3   0.868675 0.713570 0.616447 -0.549775
C28   C     C_3   0.878470 0.832966 0.541796 -0.180392
H22   H     H_    0.812957 0.909461 0.582446 0.182455
H23   H     H_    0.852325 0.814520 0.441962 0.123243
H24   H     H_    0.973590 0.877497 0.543519 0.168269
O15   O     O_3   0.875235 0.294872 0.372491 -0.581609
C29   C     C_3   0.881174 0.327378 0.242163 -0.299149
H25   H     H_    0.850361 0.433550 0.224544 0.122673
H26   H     H_    0.817993 0.257498 0.192745 0.160140
H27   H     H_    0.976657 0.312273 0.200723 0.204932
O16   O     O_3   0.124765 0.705139 0.627492 -0.581601
C30   C     C_3   0.118845 0.672634 0.757821 -0.299125
H28   H     H_    0.182019 0.742525 0.807235 0.160132
H29   H     H_    0.149680 0.566472 0.775432 0.122672
H30   H     H_    0.023364 0.687717 0.799270 0.204917

loop_
_geom_bond_atom_site_label_1
_geom_bond_atom_site_label_2
_ccdc_geom_bond_type
C15   C18   A    
C1    C21   A    
C8    C13   S    
O9    C23   S    
C9    O11   S    
C22   O16   S    
C24   H11   S    
C30   H28   S    
C7    C11   S    
O3    Zn1   S    
C21   O15   S    
O4    Zn2   S    
C20   O14   S    
C19   C21   A    
C26   H17   S    
O12   C26   S    
C9    C13   S    
C27   H20   S    
C4    O3    A    
C7    C14   S    
C6    O6    A    
C16   C17   A    
C18   H4    S    
C2    C22   A    
C10   O12   S    
C25   H15   S    
C15   H1    S    
O14   C28   S    
C16   H2    S    
C5    O8    A    
C17   N2    A    
C23   H8    S    
C29   H27   S    
C25   H14   S    
C24   H12   S    
C30   H29   S    
C28   H22   S    
O6    Zn2   S    
O16   C30   S    
C29   H26   S    
C10   C14   S    
C26   H18   S    
C3    O4    A    
C16   N1    A    
O11   C25   S    
C28   H23   S    
C23   H9    S    
O5    Zn1   S    
C27   H19   S    
C24   H10   S    
C11   H5    S    
C8    C12   S    
N1    Zn1   S    
C6    O7    A    
N2    Zn2   S    
C18   N1    A    
C3    O1    A    
C5    C14   S    
C4    O2    A    
C20   C22   A    
C23   H7    S    
O2    Zn2   S    
C25   H13   S    
C15   N2    A    
C30   H30   S    
C7    C9    S    
O10   C24   S    
C1    C20   A    
C27   H21   S    
C2    C19   A    
C12   C14   S    
C29   H25   S    
C28   H24   S    
C17   H3    S    
C1    C4    S    
C2    C3    S    
O15   C29   S    
O7    Zn1   S    
C6    C13   S    
O8    Zn2   S    
C11   C13   S    
C26   H16   S    
C19   O13   S    
C5    O5    A    
O1    Zn1   S    
C7    O9    S    
O13   C27   S    
C9    C12   S    
C8    O10   S    
C10   C11   S    
C12   H6    S    
C8    C10   S    
