data_mof_unit_68577.cif
_audit_creation_date              2012-12-11T18:18:16-0500
_audit_creation_method            fapswitch 2.2
_symmetry_space_group_name_H-M    P1
_symmetry_Int_Tables_number       1
_space_group_crystal_system       triclinic
_cell_length_a                    8.373974
_cell_length_b                    14.37466
_cell_length_c                    15.049327
_cell_angle_alpha                 95.449713
_cell_angle_beta                  97.281834
_cell_angle_gamma                 91.24365
_cell_volume                      1787.75564373

loop_
_atom_site_label
_atom_site_type_symbol
_atom_type_description
_atom_site_fract_x
_atom_site_fract_y
_atom_site_fract_z
_atom_type_partial_charge
Ba1   Ba    Ba6+2 0.833410 0.543320 0.453520 1.789253
Ba2   Ba    Ba6+2 0.356410 0.456750 0.546480 1.772743
C1    C     C_3   0.379569 0.823109 0.114618 -0.042271
C2    C     C_R   0.112590 0.473568 0.209697 -0.014987
C3    C     C_R   0.918606 0.498574 0.772078 -0.357492
C4    C     C_3   0.915450 0.777069 0.205024 0.465338
C5    C     C_R   0.823094 0.468982 0.833355 0.046139
C6    C     C_R   0.879025 0.477609 0.925967 0.429501
C7    C     C_R   0.041442 0.508582 0.958138 -0.012027
C8    C     C_R   0.131199 0.549345 0.894474 -0.056206
C9    C     C_R   0.116277 0.505785 0.051048 0.071422
C10   C     C_R   0.273996 0.546246 0.077883 -0.066587
C11   C     C_R   0.353141 0.586711 0.014678 0.009009
C12   C     C_3   0.453502 0.776579 0.197760 0.655089
C13   C     C_R   0.278194 0.596310 0.929048 0.403866
C14   C     C_R   0.046267 0.461285 0.118380 -0.014568
C15   C     C_R   0.260606 0.519194 0.234157 -0.279442
C16   C     C_3   0.862173 0.849613 0.140454 -0.243679
C17   C     C_R   0.068615 0.542651 0.799741 0.019575
C18   C     C_R   0.700381 0.939812 0.552805 0.032773
C19   C     C_R   0.509689 0.803207 0.504737 0.067111
C20   C     C_R   0.356561 0.770795 0.464834 -0.190336
C21   C     C_R   0.244998 0.831947 0.429477 0.114997
C22   C     C_R   0.288287 0.925975 0.427491 -0.026105
C23   C     C_3   0.384486 0.278590 0.280261 0.335912
C24   C     C_R   0.442638 0.960448 0.464837 0.072313
C25   C     C_R   0.552727 0.900426 0.508204 0.002132
C26   C     C_R   0.638701 0.091932 0.498403 -0.083861
C27   C     C_R   0.744120 0.034853 0.549202 -0.021493
C28   C     C_3   0.080579 0.755488 0.699121 0.672830
C29   C     C_R   0.683491 0.187380 0.495391 -0.002975
C30   C     C_R   0.829526 0.224008 0.541506 -0.243297
C31   C     C_R   0.936246 0.167591 0.587881 0.044175
C32   C     C_R   0.890501 0.074805 0.596388 0.315573
C33   C     C_R   0.488046 0.053701 0.457483 0.023076
C34   C     C_3   0.370660 0.273825 0.177844 0.624866
C35   C     C_3   0.083919 0.820511 0.785331 -0.223323
C36   C     C_3   0.928453 0.243566 0.319144 0.611508
C37   C     C_3   0.853501 0.156018 0.261057 -0.064489
C38   C     C_3   0.638263 0.701529 0.735149 0.252797
C39   C     C_3   0.681943 0.756231 0.828235 0.225249
C40   C     C_3   0.077640 0.246819 0.800743 0.267385
C41   C     C_3   0.133310 0.239021 0.900457 0.562445
C42   C     C_3   0.559281 0.223762 0.783542 0.488347
C43   C     C_3   0.535683 0.141902 0.841608 0.356606
C44   C     C_R   0.346282 0.550509 0.169233 0.020108
Cl1   Cl    Cl    0.554705 0.862189 0.280575 -0.742533
Cl2   Cl    Cl    0.349674 0.693423 0.884862 -0.760723
Cl3   Cl    Cl    0.001741 0.018038 0.680587 -0.643054
Cl4   Cl    Cl    0.098749 0.823176 0.609149 -0.649255
Cl5   Cl    Cl    0.064934 0.202393 0.404603 -0.792557
Cl6   Cl    Cl    0.735047 0.683233 0.915427 -0.712474
Cl7   Cl    Cl    0.531750 0.338802 0.143945 -0.517411
Cl8   Cl    Cl    0.367439 0.155805 0.129003 -0.619932
Cl9   Cl    Cl    0.292300 0.322242 0.941026 -0.612387
Cl10  Cl    Cl    0.973616 0.258609 0.966448 -0.670644
Cl11  Cl    Cl    0.428815 0.042882 0.777661 -0.651211
Cl12  Cl    Cl    0.728832 0.464963 0.996613 -0.505158
H1    H     H_    0.063614 0.779536 0.841968 0.080931
H2    H     H_    0.786272 0.804115 0.829032 0.051029
H3    H     H_    0.583176 0.802400 0.844426 0.143723
H4    H     H_    0.354432 0.743307 0.227808 -0.092536
H5    H     H_    0.285656 0.234363 0.297094 0.091929
H6    H     H_    0.372727 0.352571 0.307111 -0.067272
H7    H     H_    0.255966 0.304555 0.151632 0.022392
H8    H     H_    0.282775 0.776213 0.075782 0.036967
H9    H     H_    0.960126 0.865949 0.100515 0.094725
H10   H     H_    0.075119 0.321837 0.788204 -0.016232
H11   H     H_    0.954929 0.215351 0.783632 0.025201
H12   H     H_    0.201676 0.859480 0.801593 0.215389
H13   H     H_    0.176051 0.167613 0.910051 0.121125
H14   H     H_    0.441230 0.252078 0.762164 0.092378
H15   H     H_    0.461500 0.166871 0.894380 0.145051
H16   H     H_    0.816326 0.763423 0.244109 0.155092
H17   H     H_    0.313656 0.526070 0.303990 0.066373
H18   H     H_    0.470860 0.619735 0.033063 0.184112
H19   H     H_    0.945461 0.412896 0.102617 0.196502
H20   H     H_    0.872876 0.488540 0.701144 0.057487
H21   H     H_    0.321895 0.697561 0.462950 0.050695
H22   H     H_    0.202564 0.971615 0.395100 0.096761
H23   H     H_    0.987800 0.871668 0.777649 0.143855
H24   H     H_    0.864035 0.296547 0.538396 0.072341
H25   H     H_    0.782170 0.896736 0.590164 0.176022
H26   H     H_    0.403568 0.095997 0.420165 0.114365
H27   H     H_    0.755866 0.822482 0.092854 0.161741
H28   H     H_    0.830545 0.915029 0.178820 0.126004
H29   H     H_    0.966840 0.713264 0.685964 -0.016778
H30   H     H_    0.845341 0.202577 0.136271 0.266603
H31   H     H_    0.709853 0.117796 0.143499 0.235030
H32   H     H_    0.225277 0.905751 0.179876 0.223457
H33   H     H_    0.258750 0.938703 0.079762 0.224560
H34   H     H_    0.834588 0.284649 0.348534 0.019408
H35   H     H_    0.725890 0.148733 0.720960 0.157547
H36   H     H_    0.547659 0.152859 0.658758 0.209301
H37   H     H_    0.665938 0.074077 0.938760 0.214127
H38   H     H_    0.744968 0.068379 0.841797 0.212358
H39   H     H_    0.055466 0.701032 0.124303 0.157033
H40   H     H_    0.973906 0.640218 0.198066 0.174158
H41   H     H_    0.771399 0.119105 0.299739 0.111979
H42   H     H_    0.949540 0.107132 0.244756 0.110763
H43   H     H_    0.695841 0.632776 0.731627 0.012933
H44   H     H_    0.506848 0.693255 0.720572 0.129944
H45   H     H_    0.472864 0.833122 0.069769 0.159917
N1    N     N_3   0.763619 0.179753 0.177307 -0.378683
N2    N     N_3   0.314719 0.914271 0.138811 -0.416067
N3    N     N_3   0.633012 0.192944 0.703562 -0.521061
N4    N     N_3   0.689647 0.113259 0.886491 -0.412009
N5    N     N_3   0.950194 0.690592 0.153174 -0.432447
O1    O     O_2   0.841250 0.444240 0.280450 -0.427066
O2    O     O_2   0.269323 0.165111 0.589614 -0.406551
O3    O     O_3   0.182791 0.197120 0.749585 -0.576915
O4    O     O_3   0.112870 0.447390 0.393710 -0.478202
O5    O     O_3   0.560600 0.613720 0.540760 -0.502720
O6    O     O_2   0.387470 0.270310 0.467210 -0.425104
O7    O     O_3   0.530791 0.243139 0.316029 -0.626470
O8    O     O_2   0.485473 0.444922 0.827353 -0.382335
O9    O     O_3   0.656008 0.294646 0.835809 -0.543009
O10   O     O_3   0.597960 0.615760 0.327700 -0.479929
O11   O     O_2   0.681088 0.547243 0.172694 -0.361118
O12   O     O_3   0.694345 0.756402 0.674034 -0.679684
O13   O     O_3   0.016888 0.295371 0.267108 -0.655656
O14   O     O_3   0.569166 0.713731 0.170529 -0.647474
O15   O     O_2   0.802240 0.729720 0.532850 -0.422850
O16   O     O_3   0.017190 0.664840 0.371090 -0.499973
O17   O     O_2   0.905310 0.837274 0.405950 -0.428209
O18   O     O_3   0.053848 0.812311 0.261290 -0.673480
O19   O     O_2   0.348460 0.555790 0.719610 -0.432653
O20   O     O_3   0.076820 0.552690 0.606290 -0.490978
O21   O     O_3   0.591740 0.384320 0.672310 -0.508243
O22   O     O_3   0.217000 0.702190 0.705122 -0.592971
O23   O     O_3   0.629090 0.386360 0.459240 -0.471376
O24   O     O_3   0.172500 0.335240 0.628910 -0.479305
P1    P     P_3+3 0.018620 0.416870 0.295980 1.026251
P2    P     P_3+3 0.635650 0.716500 0.560900 1.003654
P3    P     P_3+3 0.050445 0.785639 0.372345 1.007383
P4    P     P_3+3 0.171070 0.583210 0.704020 1.040291
P5    P     P_3+3 0.137547 0.216633 0.636420 1.097956
P6    P     P_3+3 0.547187 0.604533 0.210854 1.030414
P7    P     P_3+3 0.558114 0.269314 0.433408 0.975945
P8    P     P_3+3 0.634388 0.402452 0.789613 1.090492

loop_
_geom_bond_atom_site_label_1
_geom_bond_atom_site_label_2
_ccdc_geom_bond_type
C12   O14   S    
H33   N2    S    
Ba1   O20   S    
C39   H3    S    
O4    P1    S    
C37   N1    S    
C1    N2    S    
Ba2   O4    S    
C24   C25   A    
C16   H28   S    
C26   C27   A    
C22   C24   A    
C20   H21   S    
C14   H19   S    
C8    C13   A    
O20   P4    S    
Ba1   O4    S    
C5    P8    S    
Ba2   O5    S    
C4    N5    S    
C12   H4    S    
C36   H34   S    
Ba2   O21   S    
H40   N5    S    
H32   N2    S    
C43   H15   S    
Ba1   Ba2   S    
C23   H5    S    
C34   Cl7   S    
Ba1   O1    S    
C38   H43   S    
H39   N5    S    
C22   H22   S    
C26   C33   A    
C31   P5    S    
C6    C7    A    
Ba2   O24   S    
C21   C22   A    
C7    C8    A    
C39   Cl6   S    
C44   P6    S    
C6    Cl12  S    
Ba2   O19   S    
O17   P3    D    
C19   C25   A    
C19   C20   A    
C40   H10   S    
C35   H23   S    
Ba1   O5    S    
C13   Cl2   S    
Ba1   P1    S    
H30   N1    S    
C4    H16   S    
C18   C27   A    
O2    P5    D    
C4    C16   S    
C16   H27   S    
Ba2   O23   S    
O15   P2    D    
O1    P1    D    
C5    C6    A    
C34   Cl8   S    
C15   C44   A    
C4    O18   S    
C10   C44   A    
C3    C5    A    
C34   H7    S    
C36   Cl5   S    
C17   P4    S    
C28   O22   S    
C27   C32   A    
C40   H11   S    
Ba2   P4    S    
C28   C35   S    
C23   H6    S    
C2    C14   A    
C40   O3    S    
Ba1   O15   S    
C3    H20   S    
H35   N3    S    
C9    C14   A    
C41   Cl10  S    
C37   H41   S    
C29   C30   A    
C11   H18   S    
C8    C17   A    
C9    C10   A    
C43   Cl11  S    
C31   C32   A    
O6    P7    D    
O19   P4    D    
C7    C9    A    
O14   P6    S    
C35   H1    S    
C1    C12   S    
H37   N4    S    
C2    C15   A    
C41   Cl9   S    
C38   C39   S    
C38   O12   S    
H38   N4    S    
O7    P7    S    
O18   P3    S    
O5    P2    S    
C11   C13   A    
H31   N1    S    
C1    H8    S    
C40   C41   S    
C29   P7    S    
Ba1   P2    S    
C19   P2    S    
C42   C43   S    
O3    P5    S    
C1    H45   S    
H36   N3    S    
C32   Cl3   S    
C41   H13   S    
O16   P3    S    
O11   P6    D    
C26   C29   A    
O22   P4    S    
C39   H2    S    
Ba1   O23   S    
C33   H26   S    
C12   Cl1   S    
C3    C17   A    
C18   C25   A    
C42   N3    S    
C30   H24   S    
C21   P3    S    
C30   C31   A    
C23   O7    S    
O24   P5    S    
Ba1   O16   S    
O10   P6    S    
Ba2   O6    S    
C37   H42   S    
C36   C37   S    
O21   P8    S    
C42   O9    S    
C42   H14   S    
O12   P2    S    
Ba1   O10   S    
C28   Cl4   S    
C36   O13   S    
O23   P7    S    
C23   C34   S    
C38   H44   S    
O9    P8    S    
C24   C33   A    
C10   C11   A    
C18   H25   S    
C15   H17   S    
C16   H9    S    
C20   C21   A    
O13   P1    S    
C28   H29   S    
C35   H12   S    
C43   N4    S    
C2    P1    S    
O8    P8    D    
Ba2   O20   S    
