data_mof_unit_58492.cif
_audit_creation_date              2012-12-10T16:57:08-0500
_audit_creation_method            fapswitch 2.2
_symmetry_space_group_name_H-M    P1
_symmetry_Int_Tables_number       1
_space_group_crystal_system       triclinic
_cell_length_a                    7.768881
_cell_length_b                    8.579766
_cell_length_c                    16.588477
_cell_angle_alpha                 91.8164
_cell_angle_beta                  80.519925
_cell_angle_gamma                 93.768097
_cell_volume                      1088.0048047

loop_
_atom_site_label
_atom_site_type_symbol
_atom_type_description
_atom_site_fract_x
_atom_site_fract_y
_atom_site_fract_z
_atom_type_partial_charge
C1    C     C_R   0.546239 0.794828 0.497887 0.968756
C2    C     C_R   0.424802 0.660276 0.241439 -0.209971
C3    C     C_R   0.617685 0.585657 0.857777 -0.195863
C4    C     C_R   0.452730 0.728927 0.165789 -0.208171
C5    C     C_R   0.466225 0.645692 0.903027 0.187654
C6    C     C_R   0.600316 0.696255 0.108492 0.193752
C7    C     C_R   0.313179 0.648359 0.868144 0.121962
C8    C     C_R   0.729311 0.604945 0.130132 0.132304
C9    C     C_R   0.315850 0.594665 0.787627 -0.232026
C10   C     C_R   0.701725 0.538780 0.207648 -0.239392
C11   C     C_2   0.459295 0.685059 0.989900 -0.232301
C12   C     C_R   0.453771 0.205170 0.502029 0.974916
C13   C     C_2   0.601966 0.729462 0.022470 -0.251948
C14   C     C_2   0.570606 0.958275 0.496602 -0.379419
C15   C     C_2   0.429423 0.041693 0.503136 -0.387328
C16   C     C_R   0.477744 0.506165 0.654783 0.870123
C17   C     C_R   0.524372 0.506794 0.345596 0.865994
C18   C     C_R   0.469336 0.539736 0.741953 -0.059558
C19   C     C_R   0.547085 0.562218 0.262256 -0.055167
C20   C     C_R   0.619449 0.534147 0.777750 -0.217427
H1    H     H_    0.738916 0.491331 0.743742 0.160612
H2    H     H_    0.296154 0.990518 0.509358 0.179214
H3    H     H_    0.022875 0.380186 0.439314 0.190551
H4    H     H_    0.977117 0.619781 0.560709 0.188002
H5    H     H_    0.179816 0.826171 0.924256 0.188145
H6    H     H_    0.053251 0.693198 0.881189 0.170605
H7    H     H_    0.844211 0.496033 0.027676 0.185418
H8    H     H_    0.971698 0.517224 0.100145 0.181925
H9    H     H_    0.308314 0.686093 0.284070 0.168196
H10   H     H_    0.799204 0.467342 0.224870 0.149715
H11   H     H_    0.199284 0.600078 0.760107 0.153405
H12   H     H_    0.726398 0.757421 0.983800 0.171535
H13   H     H_    0.336282 0.655034 0.029441 0.181970
H14   H     H_    0.354602 0.801784 0.150364 0.149086
H15   H     H_    0.734095 0.574238 0.884465 0.134862
H16   H     H_    0.703880 0.009441 0.490358 0.179304
N1    N     N_2   0.953500 0.457650 0.478520 -0.174227
N2    N     N_2   0.046500 0.542350 0.521480 -0.176295
N3    N     N_3   0.156434 0.706182 0.914618 -0.472040
N4    N     N_3   0.882770 0.573820 0.072096 -0.468152
O1    O     O_R   0.388470 0.738640 0.505270 -0.613607
O2    O     O_R   0.611530 0.261360 0.494730 -0.609060
O3    O     O_R   0.679650 0.711510 0.491500 -0.627721
O4    O     O_R   0.320350 0.288490 0.508500 -0.625406
O5    O     O_R   0.337210 0.515200 0.623500 -0.620077
O6    O     O_R   0.662790 0.484800 0.376500 -0.614629
O7    O     O_R   0.628380 0.488060 0.609730 -0.624270
O8    O     O_R   0.371620 0.511940 0.390270 -0.627118
Zn1   Zn    Zn3+2 0.305580 0.518120 0.509190 0.934002
Zn2   Zn    Zn3+2 0.694420 0.481880 0.490810 0.939160

loop_
_geom_bond_atom_site_label_1
_geom_bond_atom_site_label_2
_ccdc_geom_bond_type
C16   O5    A    
O4    Zn1   S    
H4    N2    S    
C17   O6    A    
C17   O8    A    
O3    Zn2   S    
N1    N2    D    
O5    Zn1   S    
C7    N3    S    
C10   H10   S    
C13   H12   S    
C2    C4    A    
C12   C15   S    
C3    H15   S    
H7    N4    S    
C3    C20   A    
C12   O4    A    
N2    Zn1   S    
H5    N3    S    
C6    C13   S    
N1    Zn2   S    
C11   C13   D    
O2    Zn2   S    
C2    H9    S    
C6    C8    A    
C16   O7    A    
O1    Zn1   S    
O8    Zn1   S    
C17   C19   S    
C10   C19   A    
C5    C11   S    
O7    Zn2   S    
C18   C20   A    
C15   H2    S    
C14   H16   S    
C4    H14   S    
H6    N3    S    
C4    C6    A    
C9    H11   S    
C7    C9    A    
C9    C18   A    
C11   H13   S    
C20   H1    S    
C16   C18   S    
C1    O1    A    
C5    C7    A    
O6    Zn2   S    
C14   C15   D    
C12   O2    A    
C1    C14   S    
C8    N4    S    
C2    C19   A    
H3    N1    S    
C1    O3    A    
C8    C10   A    
H8    N4    S    
C3    C5    A    
