data_mof_unit_52429.cif
_audit_creation_date              2012-12-11T20:55:27-0500
_audit_creation_method            fapswitch 2.2
_symmetry_space_group_name_H-M    P1
_symmetry_Int_Tables_number       1
_space_group_crystal_system       triclinic
_cell_length_a                    8.273406
_cell_length_b                    19.112672
_cell_length_c                    22.777572
_cell_angle_alpha                 99.833713
_cell_angle_beta                  89.96143
_cell_angle_gamma                 91.980827
_cell_volume                      3546.65771977

loop_
_atom_site_label
_atom_site_type_symbol
_atom_type_description
_atom_site_fract_x
_atom_site_fract_y
_atom_site_fract_z
_atom_type_partial_charge
Ba1   Ba    Ba6+2 0.157290 0.533910 0.474710 1.665312
Ba2   Ba    Ba6+2 0.652900 0.466090 0.525240 1.652785
C1    C     C_3   0.358463 0.740495 0.264981 -0.336777
C2    C     C_3   0.421459 0.718598 0.321632 0.327473
C3    C     C_3   0.485193 0.684002 0.617858 0.307566
C4    C     C_3   0.497151 0.764403 0.635426 -0.345436
C5    C     C_3   0.878472 0.281819 0.649901 0.288670
C6    C     C_3   0.843328 0.209264 0.667894 -0.190656
C7    C     C_3   0.398063 0.312033 0.682676 0.289804
C8    C     C_3   0.456483 0.300482 0.743419 -0.315604
C9    C     C_R   0.957199 0.197701 0.469430 -0.111790
C10   C     C_R   0.989418 0.272167 0.479696 0.068598
C11   C     C_R   0.137227 0.187653 0.550566 -0.162179
C12   C     C_3   0.920599 0.721736 0.346356 0.397132
C13   C     C_R   0.203554 0.254852 0.546073 -0.000475
C14   C     C_R   0.676090 0.810610 0.447624 -0.163362
C15   C     C_R   0.608061 0.744035 0.453305 -0.008591
C16   C     C_R   0.857981 0.801401 0.528351 -0.145716
C17   C     C_R   0.822053 0.727292 0.519746 0.055016
C18   C     C_R   0.020968 0.153569 0.508541 -0.013654
C19   C     C_R   0.118314 0.299274 0.516372 -0.265492
C20   C     C_R   0.794029 0.844938 0.488870 0.000317
C21   C     C_R   0.690338 0.700450 0.484699 -0.243019
C22   C     C_R   0.230168 0.034654 0.537999 -0.061532
C23   C     C_3   0.940407 0.792415 0.324390 -0.366561
C24   C     C_R   0.323413 0.982944 0.555880 -0.066060
C25   C     C_R   0.277099 0.912450 0.539078 -0.062875
C26   C     C_R   0.131997 0.895114 0.508741 -0.079272
C27   C     C_R   0.015005 0.946222 0.506327 0.013411
C28   C     C_R   0.068942 0.019772 0.517089 0.040188
C29   C     C_R   0.851619 0.923843 0.490603 -0.012792
C30   C     C_R   0.746533 0.978560 0.479534 0.041078
C31   C     C_R   0.800747 0.052052 0.490118 0.016265
C32   C     C_R   0.963919 0.074461 0.506023 -0.009725
C33   C     C_R   0.584865 0.963875 0.458967 -0.081014
C34   C     C_3   0.820863 0.374634 0.341988 0.312605
C35   C     C_R   0.491455 0.015684 0.441264 -0.082099
C36   C     C_R   0.538314 0.086126 0.457935 -0.062545
C37   C     C_R   0.684060 0.103202 0.487699 -0.080261
C38   C     C_R   0.644560 0.523737 0.335343 -0.300479
C39   C     C_R   0.368531 0.563180 0.948372 -0.031425
C40   C     C_R   0.319360 0.559673 0.888651 0.592077
C41   C     C_R   0.240466 0.436341 0.882128 0.578670
C42   C     C_R   0.292471 0.437586 0.941307 -0.023119
C43   C     C_R   0.356671 0.501493 0.974548 -0.051394
C44   C     C_R   0.429896 0.626910 0.982443 -0.070937
C45   C     C_3   0.817177 0.355556 0.274360 -0.355158
C46   C     C_R   0.478808 0.629404 0.041406 -0.076351
C47   C     C_R   0.469416 0.568073 0.067926 -0.019833
C48   C     C_R   0.408864 0.503796 0.034284 -0.052583
C49   C     C_R   0.283135 0.376284 0.967854 -0.068293
C50   C     C_R   0.337629 0.378223 0.026157 -0.072115
C51   C     C_R   0.400684 0.441799 0.060059 -0.023626
C52   C     C_R   0.455894 0.444741 0.119098 0.587241
C53   C     C_R   0.518113 0.569825 0.127483 0.585942
C54   C     C_2   0.064363 0.475560 0.773203 -0.067845
C55   C     C_3   0.021284 0.481456 0.709554 -0.048035
C56   C     C_3   0.998930 0.634344 0.660891 0.274606
C57   C     C_1   0.302665 0.512499 0.694525 0.008289
C58   C     C_2   0.342543 0.512904 0.750864 -0.081262
C59   C     C_2   0.216993 0.493509 0.793611 0.208214
C60   C     C_R   0.708924 0.543906 0.235794 -0.098722
C61   C     C_R   0.750784 0.549801 0.296049 -0.041010
C62   C     C_R   0.501365 0.487448 0.314545 0.035612
C63   C     C_R   0.456448 0.482943 0.254637 -0.087349
C64   C     C_R   0.558856 0.511957 0.214618 0.212019
C65   C     C_2   0.170660 0.478260 0.671171 -0.289737
C66   C     C_3   0.013945 0.661181 0.728083 -0.211331
C67   C     C_3   0.320611 0.317822 0.394834 0.327244
C68   C     C_3   0.305479 0.237167 0.377142 0.267634
H1    H     H_    0.434362 0.659938 0.313764 0.028044
H2    H     H_    0.734290 0.308732 0.260299 0.129027
H3    H     H_    0.774122 0.400602 0.254558 0.066385
H4    H     H_    0.940561 0.342881 0.257426 0.130091
H5    H     H_    0.120052 0.622580 0.642089 -0.006050
H6    H     H_    0.920417 0.585349 0.653134 0.023796
H7    H     H_    0.062097 0.619033 0.750292 0.020317
H8    H     H_    0.892279 0.673767 0.746838 0.077295
H9    H     H_    0.201738 0.338666 0.409407 -0.000369
H10   H     H_    0.408179 0.330645 0.432290 0.024402
H11   H     H_    0.245934 0.709661 0.249564 0.160263
H12   H     H_    0.284058 0.214008 0.417994 -0.014824
H13   H     H_    0.422777 0.216169 0.358708 0.001940
H14   H     H_    0.541309 0.745828 0.331158 -0.036745
H15   H     H_    0.450522 0.730460 0.229450 0.133736
H16   H     H_    0.607113 0.664683 0.604987 0.012018
H17   H     H_    0.401937 0.670914 0.579032 0.069531
H18   H     H_    0.581538 0.779601 0.673733 0.151110
H19   H     H_    0.542838 0.788497 0.597326 0.047323
H20   H     H_    0.375994 0.785229 0.647939 0.134012
H21   H     H_    0.334376 0.798133 0.273063 0.098936
H22   H     H_    0.879184 0.834716 0.354808 0.066810
H23   H     H_    0.793740 0.286187 0.612930 0.089981
H24   H     H_    0.004337 0.285164 0.634418 -0.037673
H25   H     H_    0.715911 0.206212 0.682837 0.111048
H26   H     H_    0.857115 0.166684 0.628623 0.003886
H27   H     H_    0.265243 0.301347 0.679823 0.029969
H28   H     H_    0.424843 0.368434 0.679004 0.056313
H29   H     H_    0.391917 0.335589 0.778762 0.124365
H30   H     H_    0.587679 0.313618 0.748706 0.162344
H31   H     H_    0.974352 0.727658 0.391762 0.064056
H32   H     H_    0.433798 0.244334 0.748665 0.137150
H33   H     H_    0.875885 0.175783 0.433309 0.082522
H34   H     H_    0.176929 0.163910 0.587464 0.122783
H35   H     H_    0.635429 0.834058 0.410726 0.059603
H36   H     H_    0.941284 0.823432 0.563782 0.093484
H37   H     H_    0.159145 0.354068 0.518730 0.063915
H38   H     H_    0.645751 0.646558 0.484679 0.065287
H39   H     H_    0.295154 0.083563 0.537325 0.070736
H40   H     H_    0.442251 0.996920 0.575169 0.083941
H41   H     H_    0.359494 0.871785 0.545708 0.099532
H42   H     H_    0.789589 0.707928 0.348076 -0.097420
H43   H     H_    0.109939 0.841397 0.487164 0.126242
H44   H     H_    0.519433 0.915185 0.459968 0.074201
H45   H     H_    0.372192 0.001844 0.422316 0.078656
H46   H     H_    0.456252 0.127112 0.451840 0.087018
H47   H     H_    0.706603 0.156781 0.509061 0.124886
H48   H     H_    0.329251 0.329712 0.044749 0.124560
H49   H     H_    0.234899 0.326322 0.943407 0.132599
H50   H     H_    0.524804 0.679625 0.066122 0.121978
H51   H     H_    0.793093 0.563557 0.205498 0.109604
H52   H     H_    0.440115 0.675234 0.963633 0.132717
H53   H     H_    0.070294 0.808203 0.322871 0.141306
H54   H     H_    0.465676 0.526564 0.766130 0.106480
H55   H     H_    0.969799 0.463911 0.803535 0.104502
H56   H     H_    0.342645 0.456563 0.239195 0.117210
H57   H     H_    0.678831 0.527404 0.381630 0.078927
H58   H     H_    0.173143 0.444872 0.627529 0.060020
H59   H     H_    0.887003 0.787841 0.279118 0.121564
H60   H     H_    0.696997 0.386185 0.358062 -0.003207
H61   H     H_    0.902219 0.422224 0.354880 0.057525
N1    N     N_R   0.258289 0.496497 0.855971 -0.432678
N2    N     N_R   0.511002 0.508626 0.152692 -0.423944
O1    O     O_2   0.108070 0.674980 0.540650 -0.459827
O2    O     O_3   0.373676 0.347317 0.345800 -0.649931
O3    O     O_3   0.000302 0.669703 0.307080 -0.583989
O4    O     O_2   0.702240 0.324970 0.459330 -0.475901
O5    O     O_3   0.948380 0.413820 0.464520 -0.495423
O6    O     O_3   0.443920 0.371740 0.566130 -0.467799
O7    O     O_3   0.877120 0.316676 0.364996 -0.598173
O8    O     O_3   0.358830 0.538360 0.571050 -0.482920
O9    O     O_3   0.852160 0.408490 0.597560 -0.486655
O10   O     O_2   0.690679 0.446238 0.697909 -0.488012
O11   O     O_3   0.857588 0.335785 0.699073 -0.601012
O12   O     O_3   0.861930 0.586170 0.535430 -0.488660
O13   O     O_3   0.451480 0.461630 0.428900 -0.492078
O14   O     O_2   0.599240 0.538720 0.642170 -0.457468
O15   O     O_3   0.426953 0.654115 0.666330 -0.610212
O16   O     O_2   0.529600 0.246136 0.522662 -0.515924
O17   O     O_3   0.477869 0.266117 0.638051 -0.594687
O18   O     O_2   0.329526 0.613066 0.865803 -0.556505
O19   O     O_2   0.180515 0.381586 0.853732 -0.586764
O20   O     O_2   0.456566 0.390217 0.140378 -0.602951
O21   O     O_2   0.565482 0.626156 0.157137 -0.621079
O22   O     O_3   0.366390 0.628250 0.433820 -0.460095
O23   O     O_2   0.289704 0.752209 0.484904 -0.503380
O24   O     O_3   0.928062 0.686616 0.634670 -0.610552
O25   O     O_3   0.313881 0.739625 0.368626 -0.584530
O26   O     O_2   0.211060 0.461230 0.357810 -0.455706
O27   O     O_3   0.958150 0.591500 0.402390 -0.485543
O28   O     O_2   0.084253 0.538815 0.296500 -0.477531
P1    P     P_3+3 0.933470 0.664380 0.557030 1.000696
P2    P     P_3+3 0.383600 0.440030 0.365120 0.991456
P3    P     P_3+3 0.948366 0.586537 0.324978 0.970825
P4    P     P_3+3 0.876840 0.335610 0.442930 1.003557
P5    P     P_3+3 0.856812 0.418495 0.675587 0.968538
P6    P     P_3+3 0.397082 0.718044 0.433491 0.937597
P7    P     P_3+3 0.418374 0.561531 0.645653 0.973340
P8    P     P_3+3 0.411343 0.282738 0.569222 0.923545
C69   C     C_2   0.123316 0.726402 0.741863 0.934837
O29   O     O_2   0.247012 0.724892 0.770899 -0.556811
O30   O     O_R   0.081800 0.788952 0.722380 -0.733634
H62   H     H_    0.164619 0.829156 0.734537 0.305138
O31   O     O_3   0.170602 0.217907 0.338844 -0.632277
C70   C     C_3   0.221495 0.195171 0.279804 0.218005
H63   H     H_    0.288529 0.145169 0.276194 0.014829
H64   H     H_    0.296782 0.237008 0.263277 0.069307
H65   H     H_    0.112963 0.184030 0.250700 0.065172
C71   C     C_2   0.954231 0.196091 0.716642 0.922902
O32   O     O_2   0.900988 0.194965 0.766572 -0.574605
O33   O     O_R   0.117155 0.183711 0.704466 -0.783894
H66   H     H_    0.178469 0.173860 0.740518 0.316072

loop_
_geom_bond_atom_site_label_1
_geom_bond_atom_site_label_2
_ccdc_geom_bond_type
C53   O21   D    
C7    H28   S    
C1    H15   S    
C39   C40   A    
Ba1   O12   S    
C6    H26   S    
C23   H59   S    
C52   O20   D    
O4    P4    D    
C56   H6    S    
C5    C6    S    
C70   H64   S    
C51   C52   A    
C50   C51   A    
Ba2   O12   S    
C12   H42   S    
C24   C25   A    
C60   C61   A    
C38   C61   A    
C12   O3    S    
C34   C45   S    
O5    P4    S    
O16   P8    D    
Ba2   O6    S    
O27   P3    S    
C1    H21   S    
C41   N1    Am   
C33   C35   A    
C35   C36   A    
C22   C24   A    
Ba1   Ba2   S    
C26   H43   S    
C57   P7    S    
C3    C4    S    
O17   P8    S    
O12   P1    S    
O33   H66   S    
O7    P4    S    
C4    H18   S    
C54   C55   S    
C13   P8    S    
C33   H44   S    
C58   H54   S    
C16   C17   A    
Ba1   O22   S    
O31   C70   S    
C59   N1    S    
C57   C65   D    
C66   C69   S    
C31   C37   A    
C2    O25   S    
C29   C30   A    
O22   P6    S    
C14   C15   A    
O8    P7    S    
C68   O31   S    
C1    H11   S    
C49   H49   S    
C39   C44   A    
C7    C8    S    
C24   H40   S    
C18   C32   S    
C25   H41   S    
C57   C58   D    
C67   O2    S    
C3    O15   S    
Ba1   O13   S    
C67   C68   S    
C6    H25   S    
C55   C65   S    
C62   P2    S    
C5    O11   S    
C56   H5    S    
C70   H65   S    
C66   H8    S    
C61   P3    S    
C5    H23   S    
C44   C46   A    
C7    O17   S    
C48   C51   A    
C20   C29   S    
C60   C64   A    
C49   C50   A    
Ba2   O5    S    
C30   C33   A    
C8    H32   S    
C45   H3    S    
C46   H50   S    
C15   P6    S    
C34   H61   S    
C10   P4    S    
C28   C32   A    
C12   H31   S    
C55   P5    S    
O23   P6    D    
Ba2   O14   S    
C37   H47   S    
C52   N2    Am   
C9    C18   A    
O1    P1    D    
C30   C31   A    
O11   P5    S    
C58   C59   S    
C17   P1    S    
C17   C21   A    
C41   C42   A    
C16   H36   S    
O10   P5    D    
C27   C28   A    
C40   O18   D    
C34   H60   S    
O9    P5    S    
C64   N2    S    
C36   H46   S    
C70   H63   S    
C2    H14   S    
Ba1   O26   S    
C47   C53   A    
C31   C32   A    
C15   C21   A    
C54   H55   S    
C11   H34   S    
C8    H30   S    
C68   H13   S    
C34   O7    S    
Ba2   P4    S    
C19   H37   S    
C14   H35   S    
C7    H27   S    
C3    H16   S    
C42   C49   A    
C56   C66   S    
C46   C47   A    
Ba1   P1    S    
C22   H39   S    
C11   C13   A    
O15   P7    S    
C47   C48   A    
O26   P2    D    
O25   P6    S    
C67   H9    S    
Ba1   O1    S    
O28   P3    D    
O30   H62   S    
O3    P3    S    
C66   H7    S    
C5    H24   S    
C26   C27   A    
C23   H22   S    
C14   C20   A    
C11   C18   A    
C16   C20   A    
Ba2   O4    S    
O2    P2    S    
Ba1   O27   S    
C42   C43   A    
C45   H4    S    
C56   O24   S    
C9    H33   S    
C9    C10   A    
C35   H45   S    
Ba2   O13   S    
C4    H19   S    
O13   P2    S    
C38   C62   A    
C63   H56   S    
C27   C29   A    
C53   N2    Am   
C65   H58   S    
C62   C63   A    
C38   H57   S    
C6    C71   S    
C36   C37   A    
C69   O30   S    
C43   C48   A    
Ba2   O9    S    
C21   H38   S    
C10   C19   A    
O6    P8    S    
C60   H51   S    
C12   C23   S    
C8    H29   S    
C68   H12   S    
C22   C28   A    
C45   H2    S    
Ba1   O8    S    
O14   P7    D    
C41   O19   D    
C71   O32   D    
C3    H17   S    
C13   C19   A    
C4    H20   S    
Ba1   P2    S    
C63   C64   A    
C69   O29   D    
C23   H53   S    
C25   C26   A    
Ba2   O8    S    
C39   C43   A    
C54   C59   D    
C44   H52   S    
C67   H10   S    
C40   N1    Am   
O24   P1    S    
C2    H1    S    
Ba1   O5    S    
C1    C2    S    
C71   O33   S    
C50   H48   S    
