data_mof_unit_57158.cif
_audit_creation_date              2012-12-11T15:27:43-0500
_audit_creation_method            fapswitch 2.2
_symmetry_space_group_name_H-M    P1
_symmetry_Int_Tables_number       1
_space_group_crystal_system       triclinic
_cell_length_a                    23.099722
_cell_length_b                    7.297809
_cell_length_c                    15.196155
_cell_angle_alpha                 89.658568
_cell_angle_beta                  107.684772
_cell_angle_gamma                 90.034839
_cell_volume                      2440.62092213

loop_
_atom_site_label
_atom_site_type_symbol
_atom_type_description
_atom_site_fract_x
_atom_site_fract_y
_atom_site_fract_z
_atom_type_partial_charge
O1    O     O_R   0.711000 0.648610 0.341170 -0.525903
O2    O     O_R   0.289000 0.351390 0.658830 -0.541162
O3    O     O_R   0.789000 0.148610 0.158830 -0.526034
O4    O     O_R   0.211000 0.851390 0.841170 -0.538404
O5    O     O_R   0.829650 0.322030 0.336650 -0.532479
O6    O     O_R   0.170350 0.677970 0.663350 -0.537605
O7    O     O_R   0.670350 0.822030 0.163350 -0.530547
O8    O     O_R   0.329650 0.177970 0.836650 -0.538448
C1    C     C_R   0.854309 0.485664 0.356801 0.712844
C2    C     C_R   0.145634 0.514371 0.643389 0.718101
C3    C     C_R   0.645716 0.986107 0.143208 0.718266
C4    C     C_R   0.354384 0.013966 0.856441 0.716453
O9    O     O_R   0.713950 0.319280 0.352070 -0.551216
O10   O     O_R   0.286050 0.680720 0.647930 -0.539891
O11   O     O_R   0.786050 0.819280 0.147930 -0.547709
O12   O     O_R   0.213950 0.180720 0.852070 -0.540858
O13   O     O_R   0.672470 0.142870 0.174360 -0.537087
O14   O     O_R   0.327530 0.857130 0.825640 -0.531801
O15   O     O_R   0.827530 0.642870 0.325640 -0.538491
O16   O     O_R   0.172470 0.357130 0.674360 -0.534389
C5    C     C_R   0.702280 0.487676 0.376891 0.731349
C6    C     C_R   0.298102 0.512047 0.623960 0.715773
C7    C     C_R   0.798337 0.989280 0.123538 0.718711
C8    C     C_R   0.201248 0.011885 0.875557 0.715436
O17   O     O_3   0.736530 0.478650 0.191680 -0.384737
O18   O     O_3   0.263470 0.521350 0.808320 -0.379387
O19   O     O_3   0.763470 0.978650 0.308320 -0.385710
O20   O     O_3   0.236530 0.021350 0.691680 -0.380667
V1    V     V_3+5 0.752500 0.206170 0.260820 1.413473
V2    V     V_3+5 0.247500 0.793830 0.739180 1.439987
V3    V     V_3+5 0.747500 0.706170 0.239180 1.418640
V4    V     V_3+5 0.252500 0.293830 0.760820 1.433384
C9    C     C_R   0.827901 0.014441 0.050451 -0.257986
C10   C     C_R   0.173278 0.000056 0.950339 -0.209304
C11   C     C_R   0.674630 0.503701 0.451916 -0.239125
C12   C     C_R   0.327774 0.499433 0.551713 -0.211364
C13   C     C_R   0.837208 0.230675 0.932025 0.304259
C14   C     C_R   0.176016 0.878297 0.100986 0.319275
C15   C     C_R   0.672666 0.671362 0.589258 0.311829
C16   C     C_R   0.327242 0.385403 0.401493 0.318160
C17   C     C_R   0.801374 0.140833 0.978957 0.211519
C18   C     C_R   0.205692 0.917349 0.034797 0.145640
C19   C     C_R   0.704884 0.605996 0.530594 0.153340
C20   C     C_R   0.295926 0.424749 0.465393 0.140112
C21   C     C_R   0.889065 0.962399 0.067811 0.299782
C22   C     C_R   0.111984 0.051261 0.933670 0.317832
C23   C     C_R   0.613840 0.451579 0.436435 0.307481
C24   C     C_R   0.390860 0.528352 0.574950 0.312150
C25   C     C_R   0.927591 0.065089 0.027884 -0.009508
C26   C     C_R   0.084912 0.039276 0.006152 -0.017824
C27   C     C_R   0.578351 0.540405 0.485499 -0.029771
C28   C     C_R   0.419903 0.524169 0.504778 -0.025971
C29   C     C_R   0.900830 0.198800 0.958458 -0.260008
C30   C     C_R   0.116211 0.942585 0.088263 -0.231209
C31   C     C_R   0.608881 0.643347 0.565625 -0.245581
C32   C     C_R   0.387802 0.446370 0.418011 -0.239162
C33   C     C_R   0.992086 0.037946 0.053788 -0.209891
C34   C     C_R   0.025116 0.106264 0.995828 -0.210349
C35   C     C_R   0.513532 0.524818 0.458998 -0.215415
C36   C     C_R   0.481839 0.578358 0.521323 -0.212699
C37   C     C_R   0.999481 0.252591 0.936132 0.645499
C38   C     C_R   0.026083 0.961139 0.139211 0.627121
C39   C     C_R   0.512214 0.693546 0.594892 0.624942
C40   C     C_R   0.478421 0.473415 0.369351 0.630503
C41   C     C_R   0.938823 0.299402 0.918542 0.521133
C42   C     C_R   0.086467 0.911105 0.155424 0.577744
C43   C     C_R   0.574579 0.717105 0.619628 0.555029
C44   C     C_R   0.417574 0.428005 0.350323 0.578396
C45   C     C_1   0.416883 0.006410 0.918359 -0.167098
C46   C     C_1   0.583251 0.993825 0.081151 -0.158192
C47   C     C_1   0.083152 0.507394 0.581423 -0.170274
C48   C     C_1   0.916775 0.492752 0.418827 -0.165712
C49   C     C_1   0.469223 0.002248 0.969623 0.045782
C50   C     C_1   0.530920 0.998120 0.029836 0.053776
C51   C     C_1   0.030815 0.502690 0.530193 0.040031
C52   C     C_1   0.969110 0.497550 0.470070 0.045851
F1    F     F_    0.918734 0.447757 0.863667 -0.683733
F2    F     F_    0.115189 0.832320 0.238271 -0.651958
F3    F     F_    0.600384 0.812364 0.698168 -0.638849
F4    F     F_    0.388133 0.369463 0.263760 -0.649169
N1    N     N_2   0.075175 0.087083 0.841038 -0.471273
H1    H     H_    0.095821 0.160164 0.800655 0.270862
C53   C     C_3   0.041673 0.930103 0.794111 -0.484720
H2    H     H_    0.011660 0.972820 0.725079 0.195002
H3    H     H_    0.012768 0.872086 0.833993 0.229446
H4    H     H_    0.073531 0.823097 0.784904 0.194553
N2    N     N_2   0.910558 0.800367 0.120451 -0.451606
H5    H     H_    0.896285 0.780739 0.177759 0.283787
C54   C     C_3   0.906708 0.636769 0.066063 -0.485937
H6    H     H_    0.928968 0.521096 0.111590 0.201952
H7    H     H_    0.930296 0.657533 0.013063 0.236122
H8    H     H_    0.858377 0.601332 0.032158 0.169853
N3    N     N_2   0.426160 0.528545 0.670232 -0.463243
H9    H     H_    0.407110 0.595186 0.714341 0.268209
C55   C     C_3   0.452247 0.352740 0.705604 -0.456658
H10   H     H_    0.481572 0.368069 0.778094 0.201180
H11   H     H_    0.480694 0.299864 0.664053 0.217453
H12   H     H_    0.415710 0.252518 0.704034 0.189957
N4    N     N_2   0.590310 0.298684 0.378415 -0.444180
H13   H     H_    0.602530 0.290796 0.318753 0.284559
C56   C     C_3   0.595265 0.125315 0.426707 -0.524427
H14   H     H_    0.572075 0.016997 0.377559 0.215029
H15   H     H_    0.573150 0.133591 0.482103 0.199374
H16   H     H_    0.643832 0.086869 0.457083 0.173756
N5    N     N_2   0.266590 0.854839 0.050817 -0.532003
H17   H     H_    0.271771 0.761958 0.002953 0.276514
C57   C     C_3   0.312575 0.996537 0.071338 -0.459764
H18   H     H_    0.307133 0.087721 0.010756 0.174164
H19   H     H_    0.358286 0.932302 0.089691 0.214277
H20   H     H_    0.309951 0.080230 0.130578 0.234751
N6    N     N_2   0.737463 0.175133 0.952485 -0.502177
H21   H     H_    0.710985 0.070328 0.965097 0.244615
C58   C     C_3   0.718155 0.356851 0.969786 -0.389673
H22   H     H_    0.688493 0.347329 0.015058 0.180920
H23   H     H_    0.691764 0.420678 0.903241 0.211308
H24   H     H_    0.757308 0.446742 0.003974 0.175158
N7    N     N_2   0.234680 0.363753 0.446865 -0.536589
H25   H     H_    0.228577 0.269265 0.493930 0.273630
C59   C     C_3   0.188998 0.506613 0.425750 -0.452765
H26   H     H_    0.194286 0.596766 0.486157 0.173044
H27   H     H_    0.143143 0.443524 0.406973 0.215090
H28   H     H_    0.192051 0.590660 0.366460 0.247686
N8    N     N_2   0.768900 0.634268 0.553944 -0.535301
H29   H     H_    0.793214 0.525108 0.540422 0.238769
C60   C     C_3   0.788577 0.810573 0.529280 -0.450546
H30   H     H_    0.814483 0.792146 0.479281 0.195668
H31   H     H_    0.819116 0.875646 0.592120 0.185457
H32   H     H_    0.749613 0.903615 0.497457 0.188409
N9    N     N_2   0.808194 0.359619 0.861495 -0.472453
H33   H     H_    0.818060 0.495802 0.876362 0.284558
C61   C     C_3   0.799385 0.307138 0.766612 -0.430247
H34   H     H_    0.750595 0.322002 0.727206 0.179016
H35   H     H_    0.814252 0.163703 0.761794 0.176048
H36   H     H_    0.825396 0.399236 0.734144 0.237760
N10   N     N_2   0.202814 0.749464 0.172152 -0.450288
H37   H     H_    0.219347 0.637312 0.147030 0.257598
C62   C     C_3   0.245801 0.824075 0.253986 -0.443229
H38   H     H_    0.284413 0.889832 0.237271 0.209093
H39   H     H_    0.264550 0.712878 0.304493 0.178633
H40   H     H_    0.222633 0.923766 0.286517 0.234370
N11   N     N_2   0.704655 0.763814 0.672216 -0.441306
H41   H     H_    0.747456 0.713308 0.705527 0.273119
C63   C     C_3   0.702775 0.962014 0.667244 -0.404207
H42   H     H_    0.738019 0.014806 0.638143 0.134595
H43   H     H_    0.711122 0.016701 0.737964 0.230817
H44   H     H_    0.657882 0.013091 0.623812 0.208126
N12   N     N_2   0.302317 0.254001 0.331381 -0.456758
H45   H     H_    0.287127 0.139354 0.357274 0.253024
C64   C     C_3   0.258642 0.323151 0.248351 -0.436293
H46   H     H_    0.219565 0.388074 0.263912 0.213144
H47   H     H_    0.240833 0.209262 0.199815 0.173086
H48   H     H_    0.281049 0.421711 0.213848 0.243199
F5    F     F_    0.034697 0.366515 0.903139 -0.647750
F6    F     F_    0.004404 0.958213 0.212827 -0.639121
F7    F     F_    0.481226 0.801759 0.637552 -0.648885
F8    F     F_    0.500278 0.488562 0.296164 -0.642272

loop_
_geom_bond_atom_site_label_1
_geom_bond_atom_site_label_2
_ccdc_geom_bond_type
O17   V3    S    
C63   H44   S    
C4    C45   S    
O1    C5    A    
N3    H9    S    
O19   V1    S    
C9    C21   A    
C49   C50   S    
O12   C8    A    
O3    C7    A    
C55   H10   S    
C10   C18   A    
C1    C48   S    
N2    H5    S    
C61   H36   S    
O15   V3    S    
N1    H1    S    
C55   H12   S    
C23   N4    S    
N8    H29   S    
O18   V4    S    
N5    C57   S    
C35   C40   A    
C26   C30   A    
C36   C39   A    
C40   C44   A    
O9    V1    S    
C21   N2    S    
C14   C18   A    
C64   H47   S    
O4    C8    A    
N8    C60   S    
C63   H42   S    
C63   H43   S    
O1    V3    S    
O13   V1    S    
O2    V4    S    
O3    V1    S    
C28   C36   A    
N12   H45   S    
C1    O15   A    
C15   C31   A    
C15   N11   S    
C2    O16   A    
C7    C9    S    
C46   C50   T    
C60   H32   S    
C57   H18   S    
C45   C49   T    
C10   C22   A    
C54   H7    S    
C11   C19   A    
C16   C20   A    
C16   N12   S    
C48   C52   T    
C58   H24   S    
C13   C29   A    
C2    C47   S    
C34   C37   A    
O11   C7    A    
C62   H38   S    
C11   C23   A    
C35   C36   A    
C56   H15   S    
C57   H19   S    
O10   V2    S    
N1    C53   S    
O5    V1    S    
C59   H27   S    
C42   F2    S    
C62   H40   S    
C39   C43   A    
C3    C46   S    
C41   F1    S    
C24   N3    S    
C38   C42   A    
C26   C34   A    
C56   H14   S    
N10   H37   S    
O7    V3    S    
C64   H48   S    
C15   C19   A    
C16   C32   A    
C32   C44   A    
C8    C10   S    
C38   F6    S    
N11   C63   S    
O8    V4    S    
O7    C3    A    
C51   C52   S    
O5    C1    A    
C23   C27   A    
C22   N1    S    
C62   H39   S    
C53   H2    S    
C14   C30   A    
C21   C25   A    
O8    C4    A    
O9    C5    A    
N6    C58   S    
C14   N10   S    
C54   H8    S    
C5    C11   S    
O6    V2    S    
C56   H16   S    
N2    C54   S    
C60   H30   S    
C57   H20   S    
C12   C20   A    
C27   C35   A    
C33   C38   A    
C44   F4    S    
C19   N8    S    
C29   C41   A    
C58   H22   S    
O16   V4    S    
C59   H28   S    
N10   C62   S    
C40   F8    S    
C3    O13   A    
N6    H21   S    
C53   H3    S    
C61   H35   S    
C37   F5    S    
O6    C2    A    
C25   C33   A    
C31   C43   A    
C59   H26   S    
C55   H11   S    
O11   V3    S    
C30   C42   A    
O12   V4    S    
C6    C12   S    
N5    H17   S    
C22   C26   A    
N7    H25   S    
N4    H13   S    
C9    C17   A    
O2    C6    A    
N7    C59   S    
N9    H33   S    
C39   F7    S    
C64   H46   S    
C47   C51   T    
O10   C6    A    
C33   C34   A    
C28   C32   A    
C20   N7    S    
C25   C29   A    
O20   V2    S    
C13   N9    S    
C12   C24   A    
C27   C31   A    
C13   C17   A    
N12   C64   S    
C18   N5    S    
O14   V2    S    
C37   C41   A    
C24   C28   A    
C53   H4    S    
N3    C55   S    
C17   N6    S    
C4    O14   A    
C60   H31   S    
C58   H23   S    
C54   H6    S    
N11   H41   S    
N4    C56   S    
C43   F3    S    
O4    V2    S    
C61   H34   S    
N9    C61   S    
