data_mof_unit_46620.cif
_audit_creation_date              2013-03-05T15:45:23-0500
_audit_creation_method            fapswitch 2.2
_symmetry_space_group_name_H-M    P1
_symmetry_Int_Tables_number       1
_space_group_crystal_system       triclinic
_cell_length_a                    29.660928
_cell_length_b                    17.058079
_cell_length_c                    19.219532
_cell_angle_alpha                 89.877066
_cell_angle_beta                  140.077944
_cell_angle_gamma                 90.11831
_cell_volume                      6240.49444177

loop_
_atom_site_label
_atom_site_type_symbol
_atom_site_description
_atom_site_fract_x
_atom_site_fract_y
_atom_site_fract_z
_atom_type_partial_charge
C1    C     C_R   0.172342 0.419835 0.813695 -0.160429
C2    C     C_R   0.811028 0.599701 0.200689 -0.129554
C3    C     C_R   0.826297 0.422363 0.187042 -0.172505
C4    C     C_R   0.189954 0.603722 0.793924 -0.134891
C5    C     C_R   0.686633 0.905728 0.806463 -0.069775
C6    C     C_R   0.309912 0.104488 0.206986 -0.152493
C7    C     C_R   0.327153 0.920452 0.186242 -0.155276
C8    C     C_R   0.688208 0.097172 0.803234 -0.113383
H1    H     H_    0.216304 0.457538 0.877333 0.111214
H2    H     H_    0.760360 0.571546 0.145054 0.141374
H3    H     H_    0.777598 0.453819 0.123327 0.118748
H4    H     H_    0.239706 0.576161 0.841412 0.132074
H5    H     H_    0.735876 0.936998 0.867043 0.087216
H6    H     H_    0.260231 0.076073 0.158356 0.100739
H7    H     H_    0.283560 0.958646 0.122955 0.108497
H8    H     H_    0.738512 0.068084 0.860624 0.101070
N1    N     N_R   0.127770 0.430660 0.707120 -0.052362
N2    N     N_R   0.872230 0.569340 0.292880 -0.051372
N3    N     N_R   0.872230 0.430660 0.292880 -0.053768
N4    N     N_R   0.127770 0.569340 0.707120 -0.052698
N5    N     N_R   0.627770 0.930660 0.707120 -0.041983
N6    N     N_R   0.372230 0.069340 0.292880 -0.046922
N7    N     N_R   0.372230 0.930660 0.292880 -0.052445
N8    N     N_R   0.627770 0.069340 0.707120 -0.042100
C9    C     C_R   0.835083 0.603086 0.422420 -0.051350
C10   C     C_R   0.163289 0.395524 0.573736 -0.110532
C11   C     C_R   0.163870 0.602928 0.574218 -0.060619
C12   C     C_R   0.836737 0.394470 0.425914 -0.121176
C13   C     C_R   0.343462 0.099105 0.444902 0.002673
C14   C     C_R   0.650312 0.910558 0.539441 -0.093445
C15   C     C_R   0.653279 0.094857 0.546841 0.013914
C16   C     C_R   0.354666 0.915701 0.470692 -0.066151
H9    H     H_    0.787042 0.570893 0.373862 0.107368
H10   H     H_    0.212497 0.424926 0.621526 0.122967
H11   H     H_    0.212254 0.571462 0.623149 0.099404
H12   H     H_    0.786820 0.422729 0.376188 0.123410
H13   H     H_    0.293438 0.072271 0.397353 0.062377
H14   H     H_    0.699101 0.939554 0.585188 0.071510
H15   H     H_    0.702607 0.067332 0.592408 0.061997
H16   H     H_    0.306852 0.945628 0.427574 0.075852
N9    N     N_R   0.889730 0.573880 0.452970 -0.046776
N10   N     N_R   0.110270 0.426120 0.547030 -0.043886
N11   N     N_R   0.110270 0.573880 0.547030 -0.046128
N12   N     N_R   0.889730 0.426120 0.452970 -0.046324
N13   N     N_R   0.389730 0.073880 0.452970 -0.051922
N14   N     N_R   0.610270 0.926120 0.547030 -0.054561
N15   N     N_R   0.610270 0.073880 0.547030 -0.054670
N16   N     N_R   0.389730 0.926120 0.452970 -0.053042
C17   C     C_R   0.920954 0.306324 0.513698 -0.057683
C18   C     C_R   0.082880 0.693896 0.491574 -0.112860
C19   C     C_R   0.080724 0.306087 0.489944 -0.114984
C20   C     C_R   0.914549 0.694859 0.500756 -0.135924
C21   C     C_R   0.442805 0.831841 0.569971 -0.096081
C22   C     C_R   0.566358 0.181238 0.451399 -0.135699
C23   C     C_R   0.564682 0.823710 0.444669 -0.070797
C24   C     C_R   0.430379 0.185560 0.539516 -0.122990
H17   H     H_    0.946878 0.250588 0.538888 0.101238
H18   H     H_    0.059231 0.750511 0.471382 0.130329
H19   H     H_    0.057563 0.249384 0.471259 0.112467
H20   H     H_    0.935187 0.751672 0.511924 0.117778
H21   H     H_    0.479660 0.786573 0.626365 0.109149
H22   H     H_    0.534965 0.232605 0.406312 0.114553
H23   H     H_    0.533756 0.772140 0.399888 0.118089
H24   H     H_    0.461018 0.238279 0.580267 0.117525
N17   N     N_R   0.941150 0.372910 0.507880 -0.046530
N18   N     N_R   0.058850 0.627090 0.492120 -0.050920
N19   N     N_R   0.058850 0.372910 0.492120 -0.041973
N20   N     N_R   0.941150 0.627090 0.507880 -0.047238
N21   N     N_R   0.441150 0.872910 0.507880 -0.050378
N22   N     N_R   0.558850 0.127090 0.492120 -0.049868
N23   N     N_R   0.558850 0.872910 0.492120 -0.059409
N24   N     N_R   0.441150 0.127090 0.507880 -0.050804
C25   C     C_R   0.108083 0.696420 0.711979 0.100006
C26   C     C_R   0.906731 0.325057 0.272829 0.095712
C27   C     C_R   0.891889 0.695032 0.286419 0.021582
C28   C     C_R   0.095622 0.318382 0.724259 0.143449
C29   C     C_R   0.608121 0.194530 0.714424 0.009589
C30   C     C_R   0.402476 0.817894 0.274755 0.109527
C31   C     C_R   0.391240 0.198791 0.294662 0.045659
C32   C     C_R   0.607070 0.807391 0.718064 0.089400
N25   N     N_R   0.076340 0.631640 0.652210 -0.067413
N26   N     N_R   0.923660 0.368360 0.347790 -0.074991
N27   N     N_R   0.923660 0.631640 0.347790 -0.066591
N28   N     N_R   0.076340 0.368360 0.652210 -0.072691
N29   N     N_R   0.576340 0.131640 0.652210 -0.059932
N30   N     N_R   0.423660 0.868360 0.347790 -0.065806
N31   N     N_R   0.423660 0.131640 0.347790 -0.062486
N32   N     N_R   0.576340 0.868360 0.652210 -0.054699
C33   C     C_R   0.151203 0.352425 0.826396 0.017259
C34   C     C_R   0.822860 0.675674 0.194527 0.020130
C35   C     C_R   0.848317 0.359673 0.173786 0.098374
C36   C     C_R   0.179930 0.682781 0.798751 0.036877
C37   C     C_R   0.673406 0.831224 0.814598 0.013290
C38   C     C_R   0.319117 0.185148 0.205777 0.047251
C39   C     C_R   0.347427 0.852968 0.173154 0.030023
C40   C     C_R   0.676121 0.173254 0.808788 0.001032
C41   C     C_R   0.847293 0.681757 0.446433 0.056648
C42   C     C_R   0.145512 0.318827 0.538758 0.035587
C43   C     C_R   0.150045 0.680974 0.545026 0.065198
C44   C     C_R   0.855469 0.317976 0.462694 0.035251
C45   C     C_R   0.369434 0.168614 0.501556 0.140990
C46   C     C_R   0.619180 0.849898 0.466825 0.086137
C47   C     C_R   0.625315 0.161704 0.484809 0.129962
C48   C     C_R   0.389978 0.859950 0.551023 0.079608
Ni1   Ni    Ni4+2 0.119340 0.500000 0.625930 0.232193
Ni2   Ni    Ni4+2 0.880660 0.500000 0.374070 0.233537
Ni3   Ni    Ni4+2 0.619340 1.000000 0.625930 0.227234
Ni4   Ni    Ni4+2 0.380660 0.000000 0.374070 0.224534
Ni5   Ni    Ni4+2 0.000000 0.373980 0.500000 0.227346
Ni6   Ni    Ni4+2 0.000000 0.626020 0.500000 0.241682
Ni7   Ni    Ni4+2 0.500000 0.873980 0.500000 0.243823
Ni8   Ni    Ni4+2 0.500000 0.126020 0.500000 0.258345
C49   C     C_R   0.779765 0.253096 0.940191 -0.246298
C50   C     C_R   0.257883 0.859273 0.971796 -0.309275
C51   C     C_R   0.195375 0.214198 0.025150 -0.297913
C52   C     C_R   0.758556 0.736863 0.946921 -0.171990
C53   C     C_R   0.302640 0.712515 0.978692 -0.266290
C54   C     C_R   0.744570 0.285356 0.036823 -0.181562
C55   C     C_R   0.735859 0.769742 0.061205 -0.232771
C56   C     C_R   0.241075 0.358302 0.027737 -0.305965
H25   H     H_    0.791092 0.240803 0.899362 0.157748
H26   H     H_    0.241192 0.917067 0.968164 0.124202
H27   H     H_    0.176791 0.158499 0.022891 0.116555
H28   H     H_    0.765554 0.724900 0.900185 0.167843
H29   H     H_    0.321186 0.656232 0.982493 0.134145
H30   H     H_    0.733415 0.296502 0.078119 0.165755
H31   H     H_    0.728869 0.781683 0.107980 0.152359
H32   H     H_    0.257367 0.416067 0.030166 0.124871
C57   C     C_R   0.821542 0.304586 0.026680 -0.047319
C58   C     C_R   0.221646 0.820618 0.875962 -0.056717
C59   C     C_R   0.151355 0.259167 0.930833 -0.026608
C60   C     C_R   0.794359 0.693867 0.038476 -0.076746
C61   C     C_R   0.347028 0.759518 0.070482 -0.042705
C62   C     C_R   0.703866 0.233074 0.952361 -0.048317
C63   C     C_R   0.699417 0.812267 0.968977 -0.050323
C64   C     C_R   0.275681 0.322544 0.124398 -0.087334
C65   C     C_R   0.802764 0.319757 0.073967 0.065215
C66   C     C_R   0.235526 0.739842 0.882451 0.202593
C67   C     C_R   0.181367 0.322638 0.928499 0.159750
C68   C     C_R   0.782253 0.712046 0.094741 0.056227
C69   C     C_R   0.317511 0.824020 0.071479 0.163832
C70   C     C_R   0.721999 0.218518 0.904150 0.055586
C71   C     C_R   0.712440 0.794933 0.913592 0.073998
C72   C     C_R   0.262249 0.242309 0.121690 0.217952
C73   C     C_R   0.182074 0.265201 0.536988 0.012129
C74   C     C_R   0.796487 0.740132 0.412307 0.128090
C75   C     C_R   0.817769 0.262243 0.460302 -0.001224
C76   C     C_R   0.199830 0.739729 0.575590 0.148200
C77   C     C_R   0.639691 0.821287 0.421519 0.132170
C78   C     C_R   0.340174 0.211752 0.523786 0.114430
C79   C     C_R   0.371753 0.834453 0.600943 0.120991
C80   C     C_R   0.654452 0.203519 0.461550 0.110068
C81   C     C_R   0.779995 0.859733 0.458092 -0.213833
C82   C     C_R   0.169440 0.207022 0.409625 -0.235590
C83   C     C_R   0.215644 0.859423 0.528105 -0.223675
C84   C     C_R   0.827201 0.201408 0.583078 -0.233891
C85   C     C_R   0.357965 0.249745 0.663760 -0.126166
C86   C     C_R   0.642147 0.714971 0.341270 -0.226513
C87   C     C_R   0.639233 0.239903 0.323743 -0.136582
C88   C     C_R   0.369331 0.729341 0.682878 -0.205612
C89   C     C_R   0.820776 0.813714 0.462571 -0.174595
C90   C     C_R   0.140903 0.226693 0.438939 -0.106984
C91   C     C_R   0.173469 0.810578 0.518322 -0.116068
C92   C     C_R   0.857503 0.222272 0.556973 -0.093102
C93   C     C_R   0.385180 0.230271 0.631898 -0.178433
C94   C     C_R   0.618458 0.746318 0.375455 -0.092492
C95   C     C_R   0.610546 0.219313 0.353192 -0.191916
C96   C     C_R   0.397681 0.763029 0.656833 -0.158795
C97   C     C_R   0.726791 0.717992 0.345825 -0.133671
C98   C     C_R   0.255378 0.268796 0.617437 -0.120286
C99   C     C_R   0.271985 0.722066 0.651478 -0.136748
C100  C     C_R   0.744171 0.264109 0.376704 -0.133885
C101  C     C_R   0.267066 0.216217 0.444103 -0.150828
C102  C     C_R   0.683553 0.866454 0.428921 -0.135436
C103  C     C_R   0.727529 0.210503 0.543173 -0.136729
C104  C     C_R   0.321439 0.875914 0.581431 -0.127927
C105  C     C_R   0.694615 0.753727 0.365227 0.091162
C106  C     C_R   0.285132 0.247521 0.588407 0.148718
C107  C     C_R   0.308782 0.761600 0.641825 0.089413
C108  C     C_R   0.712476 0.240497 0.401965 0.157883
C109  C     C_R   0.239984 0.224096 0.479353 0.076380
C110  C     C_R   0.719096 0.827961 0.416680 0.098650
C111  C     C_R   0.756238 0.217845 0.510668 0.073317
C112  C     C_R   0.282184 0.833738 0.584736 0.093971
H33   H     H_    0.084613 0.220461 0.378819 0.132395
H34   H     H_    0.872647 0.834379 0.509992 0.129068
H35   H     H_    0.913878 0.216140 0.618710 0.153621
H36   H     H_    0.119286 0.827281 0.462457 0.123559
H37   H     H_    0.584231 0.710846 0.367054 0.117110
H38   H     H_    0.441682 0.225360 0.693092 0.154362
H39   H     H_    0.438213 0.731305 0.677290 0.126898
H40   H     H_    0.554099 0.212356 0.290699 0.141468
H41   H     H_    0.394958 0.261616 0.748735 0.192141
H42   H     H_    0.624830 0.656555 0.307370 0.120028
H43   H     H_    0.603372 0.250563 0.238842 0.186649
H44   H     H_    0.390242 0.673343 0.723719 0.125515
H45   H     H_    0.801557 0.915431 0.499510 0.117629
H46   H     H_    0.135044 0.180120 0.331240 0.112516
H47   H     H_    0.192014 0.912417 0.480169 0.116052
H48   H     H_    0.860433 0.174300 0.661104 0.113184
C113  C     C_1   0.071102 0.761025 0.699307 0.010889
N33   N     N_1   0.042484 0.813238 0.691366 -0.107984
C114  C     C_1   0.928076 0.245042 0.287159 -0.012084
N34   N     N_1   0.944061 0.180419 0.296933 -0.091931
C115  C     C_1   0.920717 0.772976 0.320607 0.024882
N35   N     N_1   0.943281 0.835988 0.347494 -0.082828
C116  C     C_1   0.081713 0.235570 0.702166 -0.036887
N36   N     N_1   0.070937 0.169013 0.684554 -0.099864
C117  C     C_1   0.582831 0.273638 0.677441 0.067039
N37   N     N_1   0.562849 0.337381 0.648070 -0.058126
C118  C     C_1   0.413257 0.734581 0.295189 -0.042248
N38   N     N_1   0.421814 0.667784 0.311702 -0.085357
C119  C     C_1   0.427277 0.272491 0.343339 0.037704
N39   N     N_1   0.457485 0.331171 0.384116 -0.077398
C120  C     C_1   0.582721 0.727577 0.685061 -0.005446
N40   N     N_1   0.563229 0.663433 0.658578 -0.063963
C121  C     C_2   0.882880 0.340737 0.063642 0.533934
H49   H     H_    0.897518 0.321008 0.029294 0.013920
O1    O     O_2   0.916923 0.393382 0.130608 -0.565413
C122  C     C_2   0.178079 0.867679 0.776040 0.541646
H50   H     H_    0.161975 0.926527 0.771254 0.003794
O2    O     O_2   0.162001 0.842429 0.699749 -0.584464
C123  C     C_2   0.074910 0.244111 0.845093 0.504346
H51   H     H_    0.055838 0.186531 0.837570 -0.010262
O3    O     O_2   0.032624 0.296975 0.786076 -0.590798
C124  C     C_2   0.844004 0.631421 0.074256 0.527264
H52   H     H_    0.872747 0.596346 0.145658 0.041725
O4    O     O_2   0.853476 0.618117 0.023750 -0.557198
C125  C     C_2   0.423357 0.746839 0.154080 0.511758
H53   H     H_    0.443882 0.688748 0.167668 -0.003107
O5    O     O_2   0.463605 0.802481 0.203505 -0.580200
C126  C     C_2   0.644410 0.192686 0.917762 0.494675
H54   H     H_    0.616998 0.144490 0.860552 0.045909
O6    O     O_2   0.625512 0.212507 0.953487 -0.571073
C127  C     C_2   0.648898 0.872317 0.935113 0.505099
H55   H     H_    0.642730 0.880653 0.983473 0.029497
O7    O     O_2   0.613687 0.912896 0.854476 -0.575209
C128  C     C_2   0.307985 0.374524 0.215067 0.565754
H56   H     H_    0.324255 0.433396 0.219978 -0.004508
O8    O     O_2   0.313999 0.353407 0.282668 -0.530928
C129  C     C_2   0.297409 0.297556 0.727383 0.459887
H57   H     H_    0.281373 0.281868 0.760821 0.030863
O9    O     O_2   0.346328 0.343059 0.777586 -0.577945
C130  C     C_2   0.685059 0.666949 0.249027 0.472476
H58   H     H_    0.637624 0.637933 0.210365 0.033158
O10   O     O_2   0.701291 0.660473 0.207025 -0.592122
C131  C     C_2   0.703949 0.293667 0.267922 0.483392
H59   H     H_    0.722942 0.281140 0.238332 0.040454
O11   O     O_2   0.652962 0.336334 0.214333 -0.573951
C132  C     C_2   0.310691 0.671502 0.747603 0.494061
H60   H     H_    0.356873 0.638777 0.787161 0.019026
O12   O     O_2   0.292726 0.668836 0.787296 -0.584926
C133  C     C_2   0.686458 0.953487 0.437364 0.504052
H61   H     H_    0.735128 0.985405 0.487972 -0.022358
O13   O     O_2   0.632819 0.990922 0.384252 -0.558959
C134  C     C_2   0.220454 0.217551 0.325884 0.506571
H62   H     H_    0.164052 0.211880 0.263035 0.004295
O14   O     O_2   0.244588 0.229343 0.296475 -0.544422
C135  C     C_2   0.315809 0.963031 0.570733 0.483656
H63   H     H_    0.267865 0.993481 0.527403 -0.002224
O15   O     O_2   0.366969 0.002618 0.615743 -0.565986
C136  C     C_2   0.772410 0.215600 0.660399 0.473759
H64   H     H_    0.828929 0.210062 0.725070 0.017947
O16   O     O_2   0.746637 0.230540 0.686544 -0.590025

loop_
_geom_bond_atom_site_label_1
_geom_bond_atom_site_label_2
_geom_bond_distance
_ccdc_geom_bond_type
C43   C76   1.481912 S    
N24   Ni8   1.864358 S    
C64   C128  1.477498 S    
C2    N2    1.330217 A    
C127  O7    1.219636 D    
C113  N33   1.157966 T    
C45   C78   1.431763 S    
C98   C129  1.490415 S    
C123  H51   1.085611 S    
C8    C40   1.373108 A    
N16   N21   1.340341 A    
C114  N34   1.157534 T    
N29   Ni8   1.880005 S    
C36   C66   1.478429 S    
C30   N30   1.325275 A    
C28   N28   1.324242 A    
C19   N19   1.329241 A    
C31   N31   1.331499 A    
C108  C111  1.427622 A    
C88   C107  1.406948 A    
C51   C59   1.395360 A    
C119  N39   1.158248 T    
C49   C70   1.393051 A    
C88   C96   1.389364 A    
C87   H43   1.079077 S    
C95   H40   1.084073 S    
C99   C132  1.489669 S    
C11   C43   1.378946 A    
C18   C43   1.390846 A    
C86   H42   1.081026 S    
C96   H39   1.081439 S    
C49   C57   1.382910 A    
C98   C106  1.406871 A    
C85   H41   1.078926 S    
C55   C68   1.385686 A    
C48   C79   1.481438 S    
C23   H23   1.070047 S    
C86   C105  1.403163 A    
C24   C45   1.363609 A    
C129  H57   1.085575 S    
C60   C124  1.491984 S    
C75   C92   1.394685 A    
C103  C136  1.501942 S    
N11   Ni1   1.824172 S    
C133  H61   1.082509 S    
C82   H46   1.079154 S    
C7    N7    1.347579 A    
C99   C107  1.409756 A    
C6    H6    1.080015 S    
C26   C114  1.440200 S    
C44   C75   1.439897 S    
C132  O12   1.221160 D    
C79   C96   1.400301 A    
C6    N6    1.349550 A    
C82   C109  1.398943 A    
C20   C41   1.387096 A    
C24   H24   1.075146 S    
C76   C99   1.418219 A    
C17   H17   1.076847 S    
C130  H58   1.082499 S    
C14   H14   1.076653 S    
C3    C35   1.376346 A    
C77   C102  1.420859 A    
C41   C74   1.476488 S    
C97   C105  1.403837 A    
C2    C34   1.370363 A    
N3    Ni2   1.817895 S    
N21   Ni7   1.864281 S    
C54   H30   1.085942 S    
C57   C121  1.486532 S    
C20   H20   1.075601 S    
C27   C34   1.368780 A    
C53   C61   1.388385 A    
C35   C65   1.412670 S    
N32   Ni7   1.879842 S    
C21   H21   1.071727 S    
N19   Ni5   1.864355 S    
C53   C66   1.397776 A    
C130  O10   1.221674 D    
C84   C92   1.369614 A    
C24   N24   1.329812 A    
N7    N30   1.450081 A    
C134  O14   1.221421 D    
C127  H55   1.085853 S    
C16   C48   1.379338 A    
C3    N3    1.328017 A    
C62   C126  1.491644 S    
C4    H4    1.080205 S    
C54   C65   1.393162 A    
N8    N29   1.450082 A    
C87   C108  1.403645 A    
C5    H5    1.079135 S    
C54   C62   1.372515 A    
N13   Ni4   1.827896 S    
C29   C117  1.439146 S    
C28   C33   1.394861 A    
C88   H44   1.079690 S    
C12   C44   1.381167 A    
N9    N20   1.339142 A    
C7    H7    1.078701 S    
N5    N32   1.448783 A    
C21   N21   1.350542 A    
C8    H8    1.079585 S    
C15   N15   1.326900 A    
N4    N25   1.450082 A    
N14   Ni3   1.827897 S    
N13   N24   1.339142 A    
C16   N16   1.331012 A    
C102  C110  1.407798 A    
N12   N17   1.340341 A    
C84   H48   1.079775 S    
C26   N26   1.329230 A    
C25   N25   1.330176 A    
C122  H50   1.085564 S    
C84   C111  1.397649 A    
C10   H10   1.080817 S    
N2    N27   1.448782 A    
C32   C120  1.440327 S    
C131  O11   1.220580 D    
C40   C70   1.408312 S    
C74   C89   1.400600 A    
C128  O8    1.221666 D    
C51   H27   1.081550 S    
N9    Ni2   1.827896 S    
C116  N36   1.157550 T    
C18   H18   1.076538 S    
N26   Ni5   1.880007 S    
C22   C47   1.364004 A    
C1    H1    1.078678 S    
C20   N20   1.347230 A    
C31   C38   1.393949 A    
C117  N37   1.157195 T    
C128  H56   1.085746 S    
C85   C93   1.377373 A    
N8    Ni3   1.817895 S    
C59   C67   1.422574 A    
C83   C112  1.406592 A    
C136  O16   1.221639 D    
N31   Ni8   1.879844 S    
C22   H22   1.071546 S    
C100  C131  1.490262 S    
C33   C67   1.487995 S    
C132  H60   1.081662 S    
C115  N35   1.157249 T    
C78   C93   1.394939 A    
C25   C113  1.439118 S    
C12   N12   1.332861 A    
C55   C63   1.376780 A    
C13   N13   1.329765 A    
C91   H36   1.081988 S    
C56   C64   1.396359 A    
C5    N5    1.327070 A    
C4    N4    1.345057 A    
C26   C35   1.383748 A    
C15   C47   1.375092 A    
C120  N40   1.157134 T    
C50   C69   1.400822 A    
N15   N22   1.340340 A    
C89   H34   1.081836 S    
C22   N22   1.333663 A    
N1    Ni1   1.814208 S    
C62   C70   1.405527 A    
C52   C71   1.386162 A    
C11   H11   1.078412 S    
C102  C133  1.488920 S    
C5    C37   1.372848 A    
C118  N38   1.157382 T    
C52   C60   1.376032 A    
C30   C39   1.394872 A    
C134  H62   1.080473 S    
C14   C46   1.377212 A    
C123  O3    1.221077 D    
C93   H38   1.084329 S    
N27   Ni6   1.879844 S    
C13   C45   1.378453 A    
C23   C46   1.391362 A    
C56   C67   1.401371 A    
N20   Ni6   1.864358 S    
N6    N31   1.448782 A    
N18   Ni6   1.864279 S    
C58   C122  1.481102 S    
C18   N18   1.347150 A    
N17   Ni5   1.864281 S    
N14   N23   1.339141 A    
N5    Ni3   1.814208 S    
C17   N17   1.326973 A    
C21   C48   1.394581 A    
C10   C42   1.377984 A    
C47   C80   1.429752 S    
C9    C41   1.374525 A    
C73   C98   1.401878 A    
C92   H35   1.082512 S    
N15   Ni3   1.824172 S    
N10   N19   1.339141 A    
C64   C72   1.414538 A    
C63   C127  1.491904 S    
C28   C116  1.441331 S    
C19   H19   1.075547 S    
C97   C130  1.490535 S    
C9    N9    1.327599 A    
C135  H63   1.081820 S    
C58   C66   1.416493 A    
C82   C90   1.371089 A    
C27   N27   1.320021 A    
C16   H16   1.075710 S    
C83   H47   1.079744 S    
C75   C100  1.402934 A    
C10   N10   1.331565 A    
C133  O13   1.221224 D    
N4    Ni1   1.817895 S    
C107  C112  1.418102 A    
C104  C112  1.409651 A    
C6    C38   1.405789 A    
C51   C72   1.400673 A    
C1    C33   1.416181 A    
C79   C104  1.418709 A    
C52   H28   1.085601 S    
N3    N26   1.450081 A    
C126  O6    1.221506 D    
C76   C91   1.400554 A    
C1    N1    1.350306 A    
C14   N14   1.330238 A    
C77   C94   1.400760 A    
C25   C36   1.387775 A    
C135  O15   1.221396 D    
C37   C71   1.400997 S    
C90   H33   1.083855 S    
C34   C68   1.403097 S    
C131  H59   1.085761 S    
C80   C103  1.399135 A    
C104  C135  1.491828 S    
C39   C69   1.480736 S    
C136  H64   1.080882 S    
C42   C73   1.440433 S    
N12   Ni2   1.824173 S    
C60   C68   1.411384 A    
C49   H25   1.085347 S    
C7    C39   1.409320 A    
C103  C111  1.395075 A    
C50   C58   1.395820 A    
C29   C40   1.370563 A    
C124  O4    1.221549 D    
N28   Ni5   1.879842 S    
C125  H53   1.085491 S    
C122  O2    1.221581 D    
C94   H37   1.081333 S    
C83   C91   1.389255 A    
N1    N28   1.448783 A    
N30   Ni7   1.880007 S    
C121  H49   1.085712 S    
C38   C72   1.492145 S    
C125  O5    1.219904 D    
C81   C110  1.408067 A    
C17   C44   1.361407 A    
C27   C115  1.438039 S    
C100  C108  1.406889 A    
C56   H32   1.081799 S    
N16   Ni4   1.824173 S    
N2    Ni2   1.814205 S    
C19   C42   1.361635 A    
N11   N18   1.340340 A    
N6    Ni4   1.814205 S    
N7    Ni4   1.817895 S    
C63   C71   1.414993 A    
C126  H54   1.084376 S    
C8    N8    1.331291 A    
C87   C95   1.379985 A    
C85   C106  1.402444 A    
C101  C109  1.399246 A    
C121  O1    1.220813 D    
N22   Ni8   1.864279 S    
N10   Ni1   1.827897 S    
C61   C125  1.474804 S    
C55   H31   1.086035 S    
C106  C109  1.429075 A    
C3    H3    1.077602 S    
C46   C77   1.477208 S    
C29   N29   1.319719 A    
C50   H26   1.081936 S    
C86   C94   1.386548 A    
C11   N11   1.330320 A    
C31   C119  1.436645 S    
N23   Ni7   1.864355 S    
C57   C65   1.407553 A    
N25   Ni6   1.880005 S    
C12   H12   1.080961 S    
C32   N32   1.320277 A    
C124  H52   1.082640 S    
C78   C101  1.399937 A    
C74   C97   1.412841 A    
C13   H13   1.079527 S    
C15   H15   1.078807 S    
C80   C95   1.394546 A    
C59   C123  1.480200 S    
C61   C69   1.416772 A    
C101  C134  1.502024 S    
C129  O9    1.220664 D    
C32   C37   1.370965 A    
C73   C90   1.395059 A    
C53   H29   1.081624 S    
C30   C118  1.443268 S    
C81   C89   1.389490 A    
C23   N23   1.346048 A    
C105  C110  1.417343 A    
C81   H45   1.079459 S    
C9    H9    1.078063 S    
C4    C36   1.400076 A    
C2    H2    1.080277 S    
