data_mof_unit_44531.cif
_audit_creation_date              2012-12-11T14:03:55-0500
_audit_creation_method            fapswitch 2.2
_symmetry_space_group_name_H-M    P1
_symmetry_Int_Tables_number       1
_space_group_crystal_system       triclinic
_cell_length_a                    19.041304
_cell_length_b                    11.033095
_cell_length_c                    18.767195
_cell_angle_alpha                 89.419442
_cell_angle_beta                  89.587664
_cell_angle_gamma                 89.898464
_cell_volume                      3942.38689416

loop_
_atom_site_label
_atom_site_type_symbol
_atom_type_description
_atom_site_fract_x
_atom_site_fract_y
_atom_site_fract_z
_atom_type_partial_charge
C1    C     C_R   0.240156 0.466834 0.647114 0.565009
C2    C     C_R   0.759814 0.466496 0.352883 0.561163
C3    C     C_R   0.740156 0.966834 0.647114 0.565009
C4    C     C_R   0.259814 0.966496 0.352883 0.561163
C5    C     C_2   0.276818 0.819857 0.533172 -0.147227
C6    C     C_2   0.721462 0.821635 0.467300 -0.149872
C7    C     C_2   0.776818 0.319857 0.533172 -0.147227
C8    C     C_2   0.221462 0.321635 0.467300 -0.149872
C9    C     C_R   0.004542 0.658629 0.426608 -0.010851
C10   C     C_R   0.990124 0.669594 0.576641 -0.012835
C11   C     C_R   0.504542 0.158629 0.426608 -0.010851
C12   C     C_R   0.490125 0.169594 0.576641 -0.012835
C13   C     C_R   0.035317 0.876033 0.423898 0.118725
C14   C     C_R   0.991332 0.894585 0.566711 0.127449
C15   C     C_R   0.535317 0.376033 0.423898 0.118725
C16   C     C_R   0.491332 0.394585 0.566711 0.127449
C17   C     C_R   0.036397 0.987510 0.458261 -0.116977
C18   C     C_R   0.011239 0.997519 0.527619 -0.109134
C19   C     C_R   0.536397 0.487510 0.458261 -0.116978
C20   C     C_R   0.511239 0.497519 0.527619 -0.109134
C21   C     C_R   0.998028 0.778360 0.535867 0.020973
C22   C     C_R   0.011850 0.771163 0.461195 0.019108
C23   C     C_R   0.498028 0.278360 0.535867 0.020973
C24   C     C_R   0.511850 0.271163 0.461195 0.019108
C25   C     C_R   0.978298 0.560801 0.540453 -0.000936
C26   C     C_R   0.999744 0.551978 0.469053 0.002527
C27   C     C_R   0.478298 0.060801 0.540453 -0.000936
C28   C     C_R   0.499744 0.051978 0.469053 0.002527
C29   C     C_R   0.952337 0.456636 0.576045 -0.054560
C30   C     C_R   0.014102 0.435580 0.441976 -0.045574
C31   C     C_R   0.452337 0.956636 0.576045 -0.054560
C32   C     C_R   0.514102 0.935580 0.441976 -0.045573
C33   C     C_R   0.960217 0.342953 0.545729 -0.072153
C34   C     C_R   0.994841 0.332318 0.480505 -0.070010
C35   C     C_R   0.460217 0.842953 0.545729 -0.072153
C36   C     C_R   0.494841 0.832318 0.480505 -0.070011
C37   C     C_2   0.257017 0.933300 0.914437 0.109236
C38   C     C_2   0.760851 0.908022 0.074079 0.108133
C39   C     C_2   0.757018 0.433301 0.914437 0.109235
C40   C     C_2   0.260851 0.408023 0.074079 0.108132
C41   C     C_2   0.253950 0.934336 0.075346 -0.074548
C42   C     C_2   0.751009 0.888876 0.911749 -0.097973
C43   C     C_2   0.753951 0.434336 0.075346 -0.074548
C44   C     C_2   0.251010 0.388876 0.911749 -0.097975
C45   C     C_R   0.227299 0.873443 0.647234 0.559002
C46   C     C_R   0.772699 0.872834 0.352759 0.566790
C47   C     C_R   0.727299 0.373443 0.647234 0.559002
C48   C     C_R   0.272699 0.372834 0.352759 0.566790
C49   C     C_2   0.236692 0.024227 0.029923 -0.132453
C50   C     C_2   0.806153 0.907662 0.952629 -0.129263
C51   C     C_2   0.736693 0.524228 0.029923 -0.132453
C52   C     C_2   0.306152 0.407663 0.952629 -0.129262
C53   C     C_2   0.215831 0.000164 0.957528 0.062695
C54   C     C_2   0.804453 0.859685 0.024696 0.062609
C55   C     C_2   0.715832 0.500165 0.957528 0.062695
C56   C     C_2   0.304452 0.359684 0.024696 0.062609
C57   C     C_2   0.008399 0.655473 0.925485 -0.074886
C58   C     C_2   0.009723 0.661366 0.083114 -0.085410
C59   C     C_2   0.508398 0.155474 0.925485 -0.074889
C60   C     C_2   0.509721 0.161365 0.083113 -0.085408
C61   C     C_2   0.015495 0.561346 0.043971 -0.114309
C62   C     C_2   0.029909 0.565009 0.968487 -0.105898
C63   C     C_2   0.515490 0.061344 0.043970 -0.114308
C64   C     C_2   0.529901 0.065004 0.968485 -0.105900
C65   C     C_R   0.026611 0.656526 0.646585 0.561065
C66   C     C_R   0.972322 0.653936 0.354316 0.571131
C67   C     C_R   0.526611 0.156526 0.646585 0.561065
C68   C     C_R   0.472322 0.153935 0.354316 0.571131
C69   C     C_R   0.239087 0.462816 0.849201 0.570811
C70   C     C_R   0.761459 0.467727 0.148836 0.566120
C71   C     C_R   0.739087 0.962815 0.849201 0.570812
C72   C     C_R   0.261459 0.967727 0.148836 0.566121
C73   C     C_R   0.228324 0.875551 0.851645 0.600945
C74   C     C_R   0.772957 0.874475 0.147360 0.611979
C75   C     C_R   0.728324 0.375552 0.851645 0.600944
C76   C     C_R   0.272957 0.374475 0.147360 0.611979
C77   C     C_R   0.031096 0.651417 0.851985 0.562302
C78   C     C_R   0.972428 0.652619 0.150423 0.572394
C79   C     C_R   0.531096 0.151417 0.851985 0.562304
C80   C     C_R   0.472428 0.152618 0.150423 0.572394
C81   C     C_2   0.248765 0.906745 0.575338 -0.121849
C82   C     C_2   0.750984 0.906594 0.424308 -0.117202
C83   C     C_2   0.748765 0.406745 0.575338 -0.121849
C84   C     C_2   0.250984 0.406594 0.424308 -0.117202
C85   C     C_2   0.243293 0.911819 0.421305 -0.089053
C86   C     C_2   0.756582 0.910394 0.579356 -0.081081
C87   C     C_2   0.743293 0.411818 0.421305 -0.089053
C88   C     C_2   0.256582 0.410394 0.579356 -0.081081
C89   C     C_2   0.285297 0.834780 0.455841 0.061387
C90   C     C_2   0.712306 0.838432 0.544280 0.061203
C91   C     C_2   0.785296 0.334780 0.455841 0.061387
C92   C     C_2   0.212307 0.338432 0.544280 0.061203
Cr1   Cr    Cr6+3 0.113970 0.508630 0.747920 1.071254
Cr2   Cr    Cr6+3 0.886030 0.508630 0.252080 1.074150
Cr3   Cr    Cr6+3 0.613970 0.008630 0.747920 1.071254
Cr4   Cr    Cr6+3 0.386030 0.008630 0.252080 1.074150
Cr5   Cr    Cr6+3 0.269200 0.666740 0.749850 1.042602
Cr6   Cr    Cr6+3 0.730800 0.666740 0.250150 1.025615
Cr7   Cr    Cr6+3 0.769200 0.166740 0.749850 1.042602
Cr8   Cr    Cr6+3 0.230800 0.166740 0.250150 1.025614
Cr9   Cr    Cr6+3 0.112300 0.820070 0.749800 1.059573
Cr10  Cr    Cr6+3 0.887700 0.820070 0.250200 1.064319
Cr11  Cr    Cr6+3 0.612300 0.320070 0.749800 1.059573
Cr12  Cr    Cr6+3 0.387700 0.320070 0.250200 1.064319
H1    H     H_    0.262032 0.841488 0.058561 0.154044
H2    H     H_    0.708904 0.829585 0.930192 0.108729
H3    H     H_    0.762031 0.341488 0.058561 0.154042
H4    H     H_    0.208904 0.329583 0.930191 0.108726
H5    H     H_    0.006197 0.471713 0.066606 0.180887
H6    H     H_    0.056643 0.485676 0.947549 0.178240
H7    H     H_    0.506192 0.971713 0.066606 0.180888
H8    H     H_    0.556626 0.985664 0.947546 0.178243
H9    H     H_    0.022517 0.750221 0.061252 0.102385
H10   H     H_    0.982223 0.735708 0.945449 0.082305
H11   H     H_    0.522517 0.250219 0.061251 0.102384
H12   H     H_    0.482230 0.235716 0.945450 0.082307
H13   H     H_    0.291709 0.732203 0.555304 0.164912
H14   H     H_    0.705100 0.734923 0.446098 0.165118
H15   H     H_    0.791709 0.232203 0.555304 0.164912
H16   H     H_    0.205100 0.234923 0.446098 0.165118
H17   H     H_    0.198260 0.950987 0.448546 0.090496
H18   H     H_    0.803468 0.944378 0.552587 0.090251
H19   H     H_    0.698260 0.450987 0.448546 0.090496
H20   H     H_    0.303468 0.444378 0.552587 0.090251
H21   H     H_    0.233849 0.995326 0.554929 0.124740
H22   H     H_    0.767035 0.993756 0.444472 0.131828
H23   H     H_    0.733849 0.495326 0.554929 0.124740
H24   H     H_    0.267035 0.493756 0.444472 0.131828
H25   H     H_    0.055634 0.066826 0.430077 0.120632
H26   H     H_    0.007484 0.085582 0.551721 0.135325
H27   H     H_    0.555634 0.566826 0.430077 0.120632
H28   H     H_    0.507484 0.585582 0.551721 0.135325
H29   H     H_    0.040059 0.423976 0.390969 0.139162
H30   H     H_    0.928775 0.462898 0.628617 0.130518
H31   H     H_    0.540059 0.923976 0.390969 0.139162
H32   H     H_    0.428775 0.962898 0.628617 0.130517
H33   H     H_    0.941853 0.263178 0.574122 0.117752
H34   H     H_    0.004361 0.244322 0.458201 0.127903
H35   H     H_    0.441853 0.763178 0.574122 0.117752
H36   H     H_    0.504361 0.744322 0.458201 0.127903
H37   H     H_    0.227434 0.115769 0.048890 0.161169
H38   H     H_    0.849308 0.966239 0.936358 0.168374
H39   H     H_    0.727435 0.615770 0.048890 0.161169
H40   H     H_    0.349307 0.466242 0.936359 0.168376
O1    O     O_R   0.043230 0.549300 0.667990 -0.504443
O2    O     O_R   0.956770 0.549300 0.332010 -0.522154
O3    O     O_R   0.543230 0.049300 0.667990 -0.504443
O4    O     O_R   0.456770 0.049300 0.332010 -0.522154
O5    O     O_R   0.262920 0.788600 0.824420 -0.478823
O6    O     O_R   0.737080 0.788600 0.175580 -0.499844
O7    O     O_R   0.762920 0.288600 0.824420 -0.478823
O8    O     O_R   0.237080 0.288600 0.175580 -0.499844
O9    O     O_R   0.167530 0.905110 0.830340 -0.473295
O10   O     O_R   0.832470 0.905110 0.169660 -0.481919
O11   O     O_R   0.667530 0.405110 0.830340 -0.473296
O12   O     O_R   0.332470 0.405110 0.169660 -0.481918
O13   O     O_R   0.054010 0.748440 0.822860 -0.495816
O14   O     O_R   0.945990 0.748440 0.177140 -0.488354
O15   O     O_R   0.554010 0.248440 0.822860 -0.495816
O16   O     O_R   0.445990 0.248440 0.177140 -0.488354
O17   O     O_3   0.165160 0.665150 0.749190 -0.271489
O18   O     O_3   0.834840 0.665150 0.250810 -0.265535
O19   O     O_3   0.665160 0.165150 0.749190 -0.271488
O20   O     O_3   0.334840 0.165150 0.250810 -0.265535
O21   O     O_R   0.178620 0.457600 0.674100 -0.450736
O22   O     O_R   0.821380 0.457600 0.325900 -0.450869
O23   O     O_R   0.678620 0.957600 0.674100 -0.450736
O24   O     O_R   0.321380 0.957600 0.325900 -0.450869
O25   O     O_R   0.284680 0.542100 0.669460 -0.544528
O26   O     O_R   0.715320 0.542100 0.330540 -0.547973
O27   O     O_R   0.784680 0.042100 0.669460 -0.544528
O28   O     O_R   0.215320 0.042100 0.330540 -0.547973
O29   O     O_R   0.262860 0.790390 0.676650 -0.510890
O30   O     O_R   0.737140 0.790390 0.323350 -0.508467
O31   O     O_R   0.762860 0.290390 0.676650 -0.510890
O32   O     O_R   0.237140 0.290390 0.323350 -0.508467
O33   O     O_R   0.167460 0.907030 0.670940 -0.486804
O34   O     O_R   0.832540 0.907030 0.329060 -0.481104
O35   O     O_R   0.667460 0.407030 0.670940 -0.486804
O36   O     O_R   0.332540 0.407030 0.329060 -0.481104
O37   O     O_R   0.053950 0.750220 0.675100 -0.477153
O38   O     O_R   0.946050 0.750220 0.324900 -0.474401
O39   O     O_R   0.553950 0.250220 0.675100 -0.477153
O40   O     O_R   0.446050 0.250220 0.324900 -0.474402
O41   O     O_R   0.043300 0.547370 0.827390 -0.503836
O42   O     O_R   0.956700 0.547370 0.172610 -0.507561
O43   O     O_R   0.543300 0.047370 0.827390 -0.503838
O44   O     O_R   0.456700 0.047370 0.172610 -0.507562
O45   O     O_R   0.178690 0.455820 0.821860 -0.497512
O46   O     O_R   0.821310 0.455820 0.178140 -0.474107
O47   O     O_R   0.678690 0.955820 0.821860 -0.497510
O48   O     O_R   0.321310 0.955820 0.178140 -0.474106
O49   O     O_R   0.284750 0.540170 0.828860 -0.495625
O50   O     O_R   0.715250 0.540170 0.171140 -0.516287
O51   O     O_R   0.784750 0.040170 0.828860 -0.495626
O52   O     O_R   0.215250 0.040170 0.171140 -0.516287
I1    I     I_    0.352142 0.712246 0.400592 -0.419949
I2    I     I_    0.635859 0.728776 0.596692 -0.426434
I3    I     I_    0.852142 0.212245 0.400592 -0.419949
I4    I     I_    0.135859 0.228776 0.596692 -0.426433
N1    N     N_3   0.147835 0.043030 0.935945 -0.581202
H41   H     H_    0.146636 0.137128 0.941617 0.223049
H42   H     H_    0.110344 0.006075 0.970847 0.239734
N2    N     N_3   0.853911 0.766826 0.043313 -0.601324
H43   H     H_    0.848191 0.695528 0.007587 0.238602
H44   H     H_    0.903662 0.803898 0.034913 0.227000
N3    N     N_3   0.647835 0.543030 0.935946 -0.581202
H45   H     H_    0.646636 0.637127 0.941617 0.223049
H46   H     H_    0.610345 0.506075 0.970848 0.239733
N4    N     N_3   0.353909 0.266823 0.043312 -0.601324
H47   H     H_    0.348188 0.195526 0.007586 0.238603
H48   H     H_    0.403660 0.303893 0.034912 0.227001
I5    I     I_    0.364959 0.895750 0.937600 -0.409256
I6    I     I_    0.699857 0.066089 0.055664 -0.455899
I7    I     I_    0.864960 0.395754 0.937599 -0.409250
I8    I     I_    0.199861 0.566093 0.055664 -0.455904
N5    N     N_3   0.062787 0.868258 0.352755 -0.606005
H49   H     H_    0.037170 0.932786 0.321007 0.243515
H50   H     H_    0.115823 0.890732 0.353683 0.239442
N6    N     N_3   0.958727 0.909727 0.635152 -0.604034
H51   H     H_    0.992602 0.960239 0.666860 0.249784
H52   H     H_    0.913272 0.961450 0.628004 0.231520
N7    N     N_3   0.562787 0.368258 0.352755 -0.606005
H53   H     H_    0.537170 0.432786 0.321007 0.243515
H54   H     H_    0.615823 0.390732 0.353683 0.239442
N8    N     N_3   0.458727 0.409727 0.635152 -0.604034
H55   H     H_    0.492602 0.460239 0.666860 0.249784
H56   H     H_    0.413272 0.461450 0.628004 0.231520

loop_
_geom_bond_atom_site_label_1
_geom_bond_atom_site_label_2
_ccdc_geom_bond_type
C84   H24   S    
C7    C83   D    
Cr2   O2    S    
C6    C82   D    
C87   C91   D    
Cr8   O28   S    
C77   O41   A    
N1    H41   S    
C46   O34   A    
C35   C36   A    
C42   C50   D    
C88   H20   S    
C61   H5    S    
Cr10  O14   S    
N6    H52   S    
C3    O23   A    
C57   C62   D    
C65   O37   A    
Cr8   O8    S    
C15   C19   A    
C87   H19   S    
C12   C23   A    
C74   O10   A    
C59   C64   D    
C50   C54   S    
C79   O43   A    
C60   C63   D    
Cr11  O39   S    
C32   C36   A    
C14   C21   A    
C16   C20   A    
C38   I6    S    
Cr3   O19   S    
N4    H47   S    
C79   O15   A    
Cr6   O30   S    
Cr4   O20   S    
C9    C22   A    
C64   H8    S    
Cr7   O27   S    
C76   O8    A    
C29   C33   A    
C11   C24   A    
C67   O39   A    
Cr5   O25   S    
Cr6   O50   S    
C17   H25   S    
Cr5   O49   S    
C14   C18   A    
C9    C66   S    
C82   H22   S    
C47   O35   A    
C35   H35   S    
C69   O49   A    
C46   C82   S    
C78   O14   A    
C39   C55   D    
C88   C92   D    
C75   O7    A    
C59   H12   S    
C40   C56   D    
C49   H37   S    
Cr8   O32   S    
C58   H9    S    
C23   C24   A    
C46   O30   A    
Cr1   O1    S    
C8    C92   S    
C39   C75   S    
C2    O22   A    
C34   H34   S    
C68   O4    A    
C45   O33   A    
C37   C53   D    
C44   C52   D    
C1    C88   S    
Cr8   O52   S    
C29   H30   S    
C66   O38   A    
Cr1   O21   S    
C37   C73   S    
C21   C22   A    
C3    C86   S    
C25   C29   A    
N1    H42   S    
Cr5   O5    S    
C14   N6    S    
C61   C62   S    
C20   H28   S    
C41   C49   D    
N6    H51   S    
Cr6   O18   S    
C3    O27   A    
C9    C26   A    
C17   C18   A    
C44   H4    S    
C10   C21   A    
C19   H27   S    
Cr4   O4    S    
C12   C67   S    
Cr5   O29   S    
C30   C34   A    
C12   C27   A    
C27   C31   A    
N3    H45   S    
Cr10  O38   S    
C7    H15   S    
C28   C32   A    
Cr3   O3    S    
N7    H53   S    
C86   C90   D    
C69   O45   A    
C54   N2    S    
C63   H7    S    
C85   C89   D    
C11   C68   S    
C4    C85   S    
C51   C55   S    
N5    H49   S    
C6    C90   S    
Cr7   O7    S    
C76   O12   A    
C53   N1    S    
C47   C83   S    
C4    O24   A    
C5    H13   S    
Cr6   O26   S    
Cr2   O46   S    
C56   N4    S    
C45   O29   A    
C5    C81   D    
C71   O51   A    
C38   C54   D    
Cr1   O17   S    
C70   O50   A    
C30   H29   S    
C16   N8    S    
C40   I8    S    
Cr4   O24   S    
C33   C34   A    
C80   O44   A    
C2    C87   S    
Cr8   O20   S    
C43   H3    S    
Cr12  O12   S    
C85   H17   S    
C36   H36   S    
C77   O13   A    
C41   H1    S    
C2    O26   A    
C41   C72   S    
C78   O42   A    
C10   C25   A    
Cr11  O11   S    
C15   C24   A    
Cr12  O40   S    
N2    H44   S    
Cr3   O43   S    
C16   C23   A    
N8    H56   S    
C52   H40   S    
C67   O3    A    
Cr10  O34   S    
Cr7   O19   S    
C18   H26   S    
N5    H50   S    
Cr9   O9    S    
C59   C79   S    
C7    C91   S    
C48   O36   A    
Cr9   O37   S    
Cr10  O18   S    
C70   O46   A    
C33   H33   S    
Cr6   O6    S    
C10   C65   S    
C13   N5    S    
C8    H16   S    
Cr10  O10   S    
C60   C80   S    
Cr11  O15   S    
Cr3   O47   S    
C4    O28   A    
Cr4   O48   S    
C81   H21   S    
C1    O21   A    
C8    C84   D    
Cr11  O19   S    
C45   C81   S    
C37   I5    S    
C83   H23   S    
C31   H32   S    
Cr3   O23   S    
C72   O52   A    
C32   H31   S    
N7    H54   S    
C75   O11   A    
C26   C30   A    
C57   H10   S    
C90   I2    S    
Cr1   O45   S    
C43   C70   S    
C89   I1    S    
C19   C20   A    
Cr12  O16   S    
Cr5   O17   S    
Cr2   O42   S    
C13   C17   A    
C39   I7    S    
N4    H48   S    
C57   C77   S    
Cr9   O17   S    
C25   C26   A    
C68   O40   A    
C91   I3    S    
C55   N3    S    
Cr7   O51   S    
C43   C51   D    
Cr12  O20   S    
Cr12  O36   S    
C52   C56   S    
C11   C28   A    
C58   C61   D    
C49   C53   S    
C31   C35   A    
C1    O25   A    
C42   C71   S    
C62   H6    S    
C38   C74   S    
C13   C22   A    
Cr11  O35   S    
C51   H39   S    
C15   N7    S    
C86   H18   S    
C47   O31   A    
Cr2   O22   S    
C66   O2    A    
C80   O16   A    
C58   C78   S    
Cr9   O13   S    
C63   C64   S    
C42   H2    S    
C48   C84   S    
Cr7   O31   S    
N2    H43   S    
N8    H55   S    
C73   O5    A    
C40   C76   S    
C73   O9    A    
C27   C28   A    
N3    H46   S    
C44   C69   S    
C74   O6    A    
C60   H11   S    
C71   O47   A    
C92   I4    S    
C65   O1    A    
Cr4   O44   S    
C72   O48   A    
Cr9   O33   S    
C5    C89   S    
Cr2   O18   S    
C50   H38   S    
C6    H14   S    
C48   O32   A    
Cr1   O41   S    
