data_mof_unit_49918.cif
_audit_creation_date              2012-12-11T15:23:54-0500
_audit_creation_method            fapswitch 2.2
_symmetry_space_group_name_H-M    P1
_symmetry_Int_Tables_number       1
_space_group_crystal_system       triclinic
_cell_length_a                    17.512206
_cell_length_b                    24.746101
_cell_length_c                    15.049083
_cell_angle_alpha                 90.000952
_cell_angle_beta                  126.431319
_cell_angle_gamma                 89.998889
_cell_volume                      5247.12166632

loop_
_atom_site_label
_atom_site_type_symbol
_atom_type_description
_atom_site_fract_x
_atom_site_fract_y
_atom_site_fract_z
_atom_type_partial_charge
C1    C     C_R   0.344411 0.351224 0.909711 0.459598
C2    C     C_R   0.538983 0.500879 0.713531 -0.019636
C3    C     C_R   0.960996 0.000880 0.286447 -0.019703
C4    C     C_R   0.929305 0.999935 0.630470 -0.119005
C5    C     C_R   0.177807 0.499907 0.733367 0.091949
C6    C     C_R   0.811403 0.500623 0.358367 0.097150
C7    C     C_R   0.688593 0.000622 0.641635 0.097180
C8    C     C_R   0.322187 0.999900 0.266605 0.091809
C9    C     C_2   0.924604 0.461564 0.542114 -0.095119
C10   C     C_2   0.022690 0.457704 0.641891 -0.045240
C11   C     C_2   0.477306 0.957695 0.358110 -0.045099
C12   C     C_R   0.671190 0.358536 0.091966 0.505758
C13   C     C_2   0.575391 0.961557 0.457892 -0.095141
C14   C     C_2   0.897812 0.502445 0.470403 -0.182749
C15   C     C_2   0.077288 0.501769 0.686237 -0.203691
C16   C     C_2   0.422709 0.001759 0.313745 -0.203700
C17   C     C_2   0.602182 0.002442 0.529597 -0.182807
C18   C     C_R   0.216401 0.711545 0.921496 -0.231666
C19   C     C_R   0.770904 0.722248 0.084051 -0.235314
C20   C     C_R   0.729143 0.222288 0.915930 -0.235260
C21   C     C_R   0.283490 0.211623 0.078551 -0.231707
C22   C     C_R   0.673932 0.259064 0.920360 -0.083992
C23   C     C_R   0.828849 0.858512 0.908034 0.505714
C24   C     C_R   0.342546 0.245970 0.075021 -0.092116
C25   C     C_R   0.157322 0.745870 0.925040 -0.092143
C26   C     C_R   0.826124 0.759013 0.079615 -0.083974
C27   C     C_R   0.717649 0.300247 0.997428 0.125473
C28   C     C_R   0.302695 0.288184 0.000335 0.101091
C29   C     C_R   0.197145 0.788089 0.999717 0.100914
C30   C     C_R   0.782416 0.800201 0.002559 0.125508
C31   C     C_R   0.815915 0.306890 0.067200 -0.216912
C32   C     C_R   0.205158 0.298455 0.932590 -0.224180
C33   C     C_R   0.294678 0.798382 0.067447 -0.224125
C34   C     C_R   0.155472 0.851182 0.090298 0.459428
C35   C     C_R   0.684152 0.806859 0.932804 -0.216982
C36   C     C_R   0.355328 0.764086 0.065191 0.563812
C37   C     C_R   0.626981 0.769784 0.936008 0.546073
C38   C     C_R   0.873077 0.269803 0.064004 0.546149
C39   C     C_R   0.144527 0.264135 0.934828 0.563821
C40   C     C_R   0.434511 0.647376 0.090921 -0.072383
C41   C     C_R   0.560478 0.649896 0.910932 -0.095680
C42   C     C_R   0.939534 0.149900 0.089070 -0.095785
C43   C     C_R   0.065448 0.147393 0.909084 -0.072551
C44   C     C_R   0.314896 0.719809 0.992755 -0.082863
C45   C     C_R   0.370534 0.676953 0.997944 0.185194
C46   C     C_R   0.671859 0.726346 0.010492 -0.073294
C47   C     C_R   0.828188 0.226368 0.989510 -0.073175
C48   C     C_R   0.184989 0.219860 0.007266 -0.082752
C49   C     C_R   0.585736 0.551410 0.610449 -0.159930
C50   C     C_R   0.596810 0.550852 0.526867 -0.126700
C51   C     C_R   0.903207 0.050855 0.473145 -0.126740
C52   C     C_R   0.914267 0.051413 0.389552 -0.159982
C53   C     C_R   0.598877 0.501347 0.482782 0.144104
C54   C     C_R   0.579785 0.502468 0.652763 0.143225
C55   C     C_R   0.920197 0.002471 0.347218 0.143272
C56   C     C_R   0.622252 0.679731 0.004456 0.184489
C57   C     C_R   0.901131 0.001350 0.517220 0.144149
C58   C     C_R   0.610139 0.453364 0.539379 -0.190375
C59   C     C_R   0.603820 0.454333 0.626484 -0.092176
C60   C     C_R   0.896155 0.954339 0.373490 -0.092239
C61   C     C_R   0.889846 0.953368 0.460604 -0.190350
C62   C     C_R   0.554624 0.454592 0.305582 0.520645
C63   C     C_R   0.505085 0.455434 0.734850 0.475738
C64   C     C_R   0.994896 0.955433 0.265129 0.475850
C65   C     C_R   0.945391 0.954592 0.694422 0.520718
C66   C     C_R   0.232916 0.544913 0.755167 -0.121967
C67   C     C_R   0.877773 0.179740 0.995548 0.184506
C68   C     C_R   0.760808 0.545397 0.297081 -0.136093
C69   C     C_R   0.739190 0.045397 0.702918 -0.136074
C70   C     C_R   0.267082 0.044909 0.244817 -0.122031
C71   C     C_R   0.549629 0.544751 0.303080 -0.191057
C72   C     C_R   0.516533 0.545586 0.749228 -0.210841
C73   C     C_R   0.983455 0.045587 0.250759 -0.210884
C74   C     C_R   0.950375 0.044750 0.696923 -0.191102
C75   C     C_R   0.233176 0.454511 0.756509 -0.054332
C76   C     C_R   0.759378 0.455199 0.300298 -0.077835
C77   C     C_R   0.740619 0.955198 0.699706 -0.077903
C78   C     C_R   0.129391 0.176977 0.002063 0.185268
C79   C     C_R   0.266814 0.954504 0.243456 -0.053845
C80   C     C_R   0.347711 0.648927 0.906874 -0.112929
C81   C     C_R   0.649765 0.649377 0.094690 -0.107646
C82   C     C_R   0.850249 0.149381 0.905314 -0.107623
C83   C     C_R   0.152245 0.148938 0.093128 -0.112960
C84   C     C_R   0.431560 0.354102 0.093953 -0.116278
C85   C     C_R   0.580428 0.360424 0.907291 -0.170399
C86   C     C_R   0.919616 0.860393 0.092708 -0.170255
C87   C     C_R   0.068340 0.854042 0.906067 -0.116244
C88   C     C_R   0.363115 0.326015 0.001665 -0.082864
C89   C     C_R   0.570707 0.499935 0.369534 -0.118985
C90   C     C_R   0.659714 0.338682 0.999675 -0.097683
C91   C     C_R   0.840353 0.838636 0.000324 -0.097546
C92   C     C_R   0.136703 0.825922 0.998357 -0.082523
H1    H     H_    0.942763 0.537348 0.490286 0.141524
H2    H     H_    0.418618 0.239391 0.128918 0.153150
H3    H     H_    0.081254 0.739276 0.871147 0.153154
H4    H     H_    0.902629 0.754354 0.133744 0.151316
H5    H     H_    0.847423 0.340894 0.123509 0.191525
H6    H     H_    0.176762 0.333581 0.879073 0.172597
H7    H     H_    0.323057 0.833510 0.120962 0.172494
H8    H     H_    0.652651 0.840868 0.876506 0.191506
H9    H     H_    0.573833 0.589949 0.634016 0.134543
H10   H     H_    0.593299 0.589144 0.490225 0.130986
H11   H     H_    0.906736 0.089147 0.509801 0.130973
H12   H     H_    0.045394 0.541592 0.669451 0.138145
H13   H     H_    0.926178 0.089951 0.365994 0.134516
H14   H     H_    0.615130 0.414104 0.512759 0.170716
H15   H     H_    0.609448 0.416511 0.665918 0.174159
H16   H     H_    0.890510 0.916517 0.334042 0.174150
H17   H     H_    0.884842 0.914109 0.487212 0.170712
H18   H     H_    0.469569 0.658236 0.176451 0.151220
H19   H     H_    0.521329 0.662967 0.826081 0.156041
H20   H     H_    0.978688 0.162971 0.173921 0.156053
H21   H     H_    0.030375 0.158260 0.823555 0.151249
H22   H     H_    0.210707 0.586470 0.745705 0.099647
H23   H     H_    0.454604 0.041582 0.330529 0.138161
H24   H     H_    0.775285 0.586948 0.324827 0.108762
H25   H     H_    0.724712 0.086947 0.675171 0.108770
H26   H     H_    0.289289 0.086466 0.254273 0.099688
H27   H     H_    0.564649 0.586561 0.328337 0.136132
H28   H     H_    0.528783 0.587509 0.742431 0.133638
H29   H     H_    0.971201 0.087510 0.257553 0.133638
H30   H     H_    0.935352 0.086561 0.671667 0.136135
H31   H     H_    0.211191 0.413334 0.749734 0.146877
H32   H     H_    0.772732 0.415232 0.333664 0.195075
H33   H     H_    0.727260 0.915229 0.666346 0.195077
H34   H     H_    0.557229 0.037345 0.509705 0.141539
H35   H     H_    0.288781 0.913321 0.250190 0.146580
H36   H     H_    0.304816 0.662618 0.822007 0.133204
H37   H     H_    0.692681 0.661841 0.180354 0.122760
H38   H     H_    0.807344 0.161847 0.819651 0.122805
H39   H     H_    0.195127 0.162626 0.177997 0.133248
H40   H     H_    0.465169 0.343972 0.179564 0.197932
H41   H     H_    0.547016 0.347641 0.823694 0.184058
H42   H     H_    0.953047 0.847600 0.176304 0.183961
H43   H     H_    0.034716 0.843897 0.820459 0.198000
H44   H     H_    0.879588 0.426394 0.519696 0.147259
H45   H     H_    0.185242 0.676989 0.866613 0.143572
H46   H     H_    0.053398 0.417525 0.664234 0.162057
H47   H     H_    0.446598 0.917516 0.335776 0.161987
H48   H     H_    0.620408 0.926386 0.480315 0.147310
H49   H     H_    0.342330 0.243921 0.744142 0.381054
H50   H     H_    0.740718 0.235192 0.253331 0.381137
H51   H     H_    0.759468 0.735181 0.746647 0.381132
H52   H     H_    0.156180 0.744388 0.255780 0.380846
H53   H     H_    0.563071 0.851252 0.220524 0.376565
H54   H     H_    0.409926 0.849514 0.785234 0.387246
H55   H     H_    0.090169 0.349497 0.214826 0.387242
H56   H     H_    0.806151 0.688523 0.140439 0.149407
H57   H     H_    0.936778 0.351253 0.779073 0.376498
H58   H     H_    0.662592 0.411413 0.408641 0.309442
H59   H     H_    0.428006 0.391866 0.677986 0.358484
H60   H     H_    0.071962 0.891860 0.321991 0.358447
H61   H     H_    0.837433 0.911405 0.591382 0.309461
H62   H     H_    0.693883 0.188568 0.859531 0.149409
H63   H     H_    0.314676 0.177069 0.133434 0.143576
H64   H     H_    0.597427 0.254413 0.866221 0.151418
N1    N     N_R   0.395440 0.396300 0.944370 -0.116367
N2    N     N_R   0.474910 0.470990 0.794360 -0.094388
N3    N     N_R   0.025090 0.970990 0.205640 -0.094358
N4    N     N_R   0.974910 0.970990 0.794360 -0.075070
N5    N     N_R   0.320240 0.527820 0.794510 -0.049553
N6    N     N_R   0.679760 0.527820 0.205490 -0.054465
N7    N     N_R   0.820240 0.027820 0.794510 -0.054463
N8    N     N_R   0.179760 0.027820 0.205490 -0.049570
N9    N     N_R   0.524580 0.527810 0.205160 -0.071698
N10   N     N_R   0.475420 0.527810 0.794840 -0.063569
N11   N     N_R   0.024580 0.027810 0.205160 -0.063567
N12   N     N_R   0.604560 0.396300 0.055630 -0.106082
N13   N     N_R   0.975420 0.027810 0.794840 -0.071690
N14   N     N_R   0.320750 0.470990 0.794990 -0.045480
N15   N     N_R   0.679250 0.470990 0.205010 -0.063549
N16   N     N_R   0.820750 0.970990 0.794990 -0.063534
N17   N     N_R   0.179250 0.970990 0.205010 -0.045402
N18   N     N_R   0.393580 0.602500 0.942610 -0.058803
N19   N     N_R   0.606420 0.602500 0.057390 -0.055603
N20   N     N_R   0.893580 0.102500 0.942610 -0.055609
N21   N     N_R   0.106420 0.102500 0.057390 -0.058810
N22   N     N_R   0.451750 0.396300 0.057540 -0.071082
N23   N     N_R   0.895440 0.896300 0.944370 -0.106110
N24   N     N_R   0.548250 0.396300 0.942460 -0.074923
N25   N     N_R   0.951750 0.896300 0.057540 -0.074948
N26   N     N_R   0.048250 0.896300 0.942460 -0.071125
N27   N     N_R   0.104560 0.896300 0.055630 -0.116409
N28   N     N_R   0.449890 0.602500 0.055780 -0.058761
N29   N     N_R   0.550110 0.602500 0.944220 -0.057220
N30   N     N_R   0.949890 0.102500 0.055780 -0.057210
N31   N     N_R   0.050110 0.102500 0.944220 -0.058745
N32   N     N_R   0.525090 0.470990 0.205640 -0.075073
Ni1   Ni    Ni4+2 0.435420 0.434250 0.870220 0.292085
Ni2   Ni    Ni4+2 0.564580 0.434250 0.129780 0.297510
Ni3   Ni    Ni4+2 0.935420 0.934250 0.870220 0.297484
Ni4   Ni    Ni4+2 0.064580 0.934250 0.129780 0.292080
Ni5   Ni    Ni4+2 0.563400 0.564580 0.128670 0.217148
Ni6   Ni    Ni4+2 0.436600 0.564580 0.871330 0.236370
Ni7   Ni    Ni4+2 0.063400 0.064580 0.128670 0.236352
Ni8   Ni    Ni4+2 0.936600 0.064580 0.871330 0.217146
O1    O     O_2   0.200296 0.304049 0.723787 -0.273808
O2    O     O_2   0.299258 0.803661 0.275965 -0.272967
O3    O     O_2   0.182565 0.852730 0.285366 -0.334682
O4    O     O_3   0.133233 0.760260 0.183449 -0.516302
O5    O     O_2   0.518768 0.756520 0.266690 -0.296589
O6    O     O_2   0.530043 0.753805 0.111952 -0.274457
O7    O     O_3   0.494250 0.845881 0.162810 -0.525957
O8    O     O_2   0.465649 0.759827 0.733198 -0.279552
O9    O     O_2   0.453103 0.750762 0.886409 -0.283417
O10   O     O_3   0.479791 0.846460 0.838883 -0.505516
O11   O     O_2   0.034392 0.259815 0.266820 -0.279623
O12   O     O_2   0.317697 0.352550 0.714856 -0.334215
O13   O     O_2   0.046953 0.250757 0.113620 -0.283514
O14   O     O_3   0.020301 0.346455 0.161188 -0.505436
O15   O     O_2   0.981131 0.256535 0.733307 -0.296811
O16   O     O_2   0.969795 0.253789 0.887997 -0.274358
O17   O     O_3   0.005528 0.345890 0.837163 -0.525824
O18   O     O_3   0.595924 0.404797 0.344376 -0.747720
O19   O     O_3   0.477538 0.408502 0.674496 -0.777076
O20   O     O_3   0.022416 0.908496 0.325458 -0.777138
O21   O     O_3   0.904111 0.904793 0.655628 -0.747707
O22   O     O_3   0.365886 0.260024 0.816497 -0.516142
O23   O     O_2   0.825300 0.332378 0.292833 -0.302191
O24   O     O_2   0.672056 0.333147 0.265846 -0.292811
O25   O     O_3   0.707026 0.254239 0.181509 -0.519706
O26   O     O_2   0.674750 0.832347 0.707164 -0.302134
O27   O     O_2   0.827987 0.833163 0.734141 -0.292942
O28   O     O_3   0.793074 0.754224 0.818466 -0.519675
S1    S     S_3+6 0.303761 0.317561 0.785624 -0.044965
S2    S     S_3+6 0.721015 0.320348 0.213587 -0.051096
S3    S     S_3+6 0.779043 0.820336 0.786403 -0.051109
S4    S     S_3+6 0.195961 0.817554 0.214362 -0.044915
S5    S     S_3+6 0.478562 0.778504 0.153761 -0.027482
S6    S     S_3+6 0.502575 0.779939 0.846374 -0.015555
S7    S     S_3+6 0.997487 0.279938 0.153659 -0.015528
S8    S     S_3+6 0.021282 0.278517 0.846223 -0.027427

loop_
_geom_bond_atom_site_label_1
_geom_bond_atom_site_label_2
_ccdc_geom_bond_type
C16   H23   S    
C53   C58   A    
N31   Ni8   S    
O10   S6    S    
C79   N17   A    
C6    C76   A    
N29   Ni6   S    
H54   O10   S    
C61   H17   S    
N27   Ni4   S    
C87   N26   A    
N8    Ni7   S    
C56   C81   A    
C22   H64   S    
C3    C64   A    
C44   C45   S    
C43   C78   A    
H60   O20   S    
N14   Ni1   S    
C20   H62   S    
C30   C35   A    
C14   H1    S    
C75   H31   S    
C81   N19   A    
C12   C90   A    
O5    S5    D    
C35   C37   A    
C18   C44   A    
C86   C91   A    
C77   N16   A    
C49   H9    S    
C4    C65   A    
O16   S8    D    
N25   Ni4   S    
O27   S3    D    
C17   H34   S    
C6    C14   S    
C51   H11   S    
N28   Ni5   S    
N20   N30   A    
C62   C89   A    
C29   C33   A    
C33   C36   A    
N12   Ni2   S    
N6    Ni5   S    
C27   C90   S    
N32   Ni2   S    
O4    S4    S    
C32   C39   A    
C48   C78   S    
C19   C26   A    
C11   H47   S    
N26   N27   A    
C74   N13   A    
C42   H20   S    
N21   Ni7   S    
C3    C55   S    
C78   C83   A    
C86   H42   S    
N6    N15   A    
C32   H6    S    
C36   S5    S    
C7    C17   S    
C71   C89   A    
C4    C57   S    
C28   C88   S    
C86   N25   A    
N4    N13   A    
C51   C57   A    
C15   H12   S    
C82   H38   S    
H55   O14   S    
C24   C28   A    
C9    C10   S    
H50   O25   S    
C4    C74   A    
C60   H16   S    
C52   C55   A    
C73   N11   A    
C7    C77   A    
C21   C48   A    
C42   N30   A    
C1    C88   A    
C6    C68   A    
C8    C16   S    
H59   O19   S    
C87   C92   A    
C25   C29   A    
C62   O18   S    
O9    S6    D    
C40   C45   A    
C18   C25   A    
N11   Ni7   S    
C65   N4    A    
C2    C72   A    
C47   C67   S    
O2    S4    D    
N13   Ni8   S    
N1    Ni1   S    
C54   C59   A    
N16   Ni3   S    
C26   H4    S    
C37   S6    S    
C19   C46   A    
C50   C53   A    
O15   S8    D    
C83   N21   A    
C27   C31   A    
C51   C52   A    
C76   H32   S    
C13   H48   S    
C87   H43   S    
N30   Ni7   S    
C28   C32   A    
H57   O17   S    
C2    C54   S    
N2    Ni1   S    
N18   N28   A    
H51   O28   S    
H53   O7    S    
O13   S7    D    
C5    C66   A    
C40   H18   S    
C80   H36   S    
C58   C59   A    
N12   N24   A    
O25   S2    S    
C84   H40   S    
C59   H15   S    
N15   Ni2   S    
C70   N8    A    
C60   C61   A    
C33   H7    S    
C5    C75   A    
C18   H45   S    
C34   S4    S    
C9    C14   D    
C41   C56   A    
C83   H39   S    
C24   H2    S    
O12   S1    D    
N19   N29   A    
C11   C16   D    
H61   O21   S    
C12   S2    S    
H52   O4    S    
C43   N31   A    
O14   S7    S    
C72   H28   S    
C75   N14   A    
C21   H63   S    
C41   N29   A    
C34   N27   A    
N20   Ni8   S    
C57   C61   A    
N7    N16   A    
C38   C47   A    
O17   S8    S    
C68   H24   S    
H49   O22   S    
N5    N14   A    
C76   N15   A    
C74   H30   S    
C82   N20   A    
C52   H13   S    
C25   H3    S    
C73   H29   S    
C22   C27   A    
O6    S5    D    
C53   C89   S    
C81   H37   S    
C84   N22   A    
C23   C91   A    
C36   C44   A    
N10   Ni6   S    
N26   Ni3   S    
O7    S5    S    
C35   H8    S    
O28   S3    S    
C77   H33   S    
C2    C63   A    
N2    N10   A    
C62   N32   A    
O3    S4    D    
C1    S1    S    
C79   H35   S    
N7    Ni8   S    
C72   N10   A    
C66   H22   S    
N18   Ni6   S    
C69   N7    A    
C10   C15   D    
C23   N23   A    
N3    Ni4   S    
C64   O20   S    
C84   C88   A    
N4    Ni3   S    
C20   C22   A    
C30   C91   S    
N9    Ni5   S    
C12   N12   A    
C23   S3    S    
C85   C90   A    
C50   H10   S    
C38   S7    S    
C31   H5    S    
C68   N6    A    
N17   Ni4   S    
C8    C70   A    
C19   H56   S    
N21   N31   A    
C31   C38   A    
C71   H27   S    
N24   Ni1   S    
C63   O19   S    
O22   S1    S    
C1    N1    A    
C7    C69   A    
C80   N18   A    
C39   S8    S    
C8    C79   A    
C43   H21   S    
C65   O21   S    
C11   C13   S    
O11   S7    D    
C42   C67   A    
O26   S3    D    
C70   H26   S    
C85   N24   A    
N22   Ni2   S    
O24   S2    D    
C64   N3    A    
C69   H25   S    
N3    N11   A    
N5    Ni6   S    
C45   C80   A    
C71   N9    A    
N1    N22   A    
H58   O18   S    
O23   S2    D    
O8    S6    D    
C3    C73   A    
N8    N17   A    
C34   C92   A    
C5    C15   S    
C20   C47   A    
C13   C17   D    
C9    H44   S    
N23   Ni3   S    
C66   N5    A    
C67   C82   A    
N9    N32   A    
C49   C50   A    
C41   H19   S    
C21   C24   A    
C46   C56   S    
N23   N25   A    
C10   H46   S    
C63   N2    A    
C58   H14   S    
C37   C46   A    
C55   C60   A    
N19   Ni5   S    
C29   C92   S    
C49   C54   A    
C85   H41   S    
C39   C48   A    
C40   N28   A    
C26   C30   A    
O1    S1    D    
