data_mof_unit_26264.cif
_audit_creation_date              2012-12-10T18:33:30-0500
_audit_creation_method            fapswitch 2.2
_symmetry_space_group_name_H-M    P1
_symmetry_Int_Tables_number       1
_space_group_crystal_system       triclinic
_cell_length_a                    8.804876
_cell_length_b                    15.096649
_cell_length_c                    13.806376
_cell_angle_alpha                 89.709147
_cell_angle_beta                  98.045064
_cell_angle_gamma                 89.805204
_cell_volume                      1817.09985388

loop_
_atom_site_label
_atom_site_type_symbol
_atom_type_description
_atom_site_fract_x
_atom_site_fract_y
_atom_site_fract_z
_atom_type_partial_charge
C1    C     C_R   0.502783 0.330125 0.500498 0.838021
C2    C     C_R   0.494683 0.670177 0.499238 0.850796
C3    C     C_R   0.608151 0.555089 0.117685 -0.088141
C4    C     C_R   0.614214 0.448676 0.902149 -0.087434
C5    C     C_R   0.602699 0.552021 0.219734 0.055200
C6    C     C_R   0.608217 0.451317 0.799074 0.080300
C7    C     C_R   0.398238 0.449867 0.199212 0.129353
C8    C     C_R   0.393977 0.547521 0.782348 0.119967
C9    C     C_R   0.397939 0.450285 0.097397 -0.237650
C10   C     C_R   0.393253 0.546795 0.884035 -0.251823
C11   C     C_R   0.503552 0.502195 0.054842 0.071941
C12   C     C_R   0.503741 0.497904 0.945849 0.084443
C13   C     C_R   0.204422 0.493084 0.475323 0.845710
C14   C     C_R   0.795797 0.493821 0.524863 0.877980
C15   C     C_2   0.040223 0.477734 0.461579 -0.288660
C16   C     C_2   0.960291 0.479463 0.539520 -0.237724
C17   C     C_R   0.356905 0.099636 0.464661 0.007937
C18   C     C_R   0.572383 0.904064 0.430413 0.003926
C19   C     C_R   0.364263 0.191670 0.468306 -0.220639
C20   C     C_R   0.571157 0.811942 0.433582 -0.214995
C21   C     C_R   0.502915 0.234010 0.501113 -0.090320
C22   C     C_R   0.486287 0.766920 0.496976 -0.111241
C23   C     C_R   0.638134 0.184126 0.530262 -0.032994
C24   C     C_R   0.397242 0.815127 0.556705 -0.012994
C25   C     C_R   0.629724 0.091801 0.525488 -0.167585
C26   C     C_R   0.402726 0.907610 0.555046 -0.178395
C27   C     C_R   0.490755 0.049417 0.493351 0.019359
C28   C     C_R   0.488552 0.952193 0.492148 0.020257
Cu1   Cu    Cu3+1 0.500000 0.499990 0.596430 1.040462
Cu2   Cu    Cu3+1 0.500000 0.500010 0.403570 1.003130
H1    H     H_    0.261647 0.230767 0.445513 0.147751
H2    H     H_    0.638114 0.775010 0.387088 0.162123
H3    H     H_    0.731387 0.052043 0.548283 0.184990
H4    H     H_    0.336876 0.945602 0.601213 0.181374
H5    H     H_    0.680386 0.592049 0.268850 0.176886
H6    H     H_    0.690183 0.413751 0.764276 0.193475
H7    H     H_    0.316813 0.409063 0.230721 0.136072
H8    H     H_    0.309330 0.586449 0.736189 0.165459
H9    H     H_    0.316486 0.409273 0.051888 0.156890
H10   H     H_    0.307839 0.585465 0.914625 0.157373
N1    N     N_R   0.500000 0.500020 0.258690 -0.195979
N2    N     N_R   0.500000 0.499980 0.741310 -0.192520
O1    O     O_R   0.500010 0.371450 0.581430 -0.559368
O2    O     O_R   0.499990 0.628550 0.418570 -0.592098
O3    O     O_R   0.500010 0.371460 0.418560 -0.583665
O4    O     O_R   0.499990 0.628540 0.581440 -0.565250
O5    O     O_R   0.274840 0.499990 0.562640 -0.563894
O6    O     O_R   0.725160 0.500010 0.437360 -0.583328
O7    O     O_R   0.274840 0.500000 0.399770 -0.569344
O8    O     O_R   0.725160 0.500000 0.600230 -0.552782
C29   C     C_2   0.968311 0.457953 0.359547 0.883569
O9    O     O_2   0.991867 0.506200 0.291834 -0.553511
O10   O     O_R   0.876875 0.382613 0.341350 -0.732606
H11   H     H_    0.834207 0.376260 0.269624 0.356177
C30   C     C_2   0.031253 0.465786 0.643287 0.945025
O11   O     O_2   0.110119 0.400032 0.666016 -0.568547
O12   O     O_R   0.001443 0.525886 0.715119 -0.743757
H12   H     H_    0.051505 0.507802 0.782989 0.333002
C31   C     C_1   0.212024 0.058301 0.429615 0.276450
N3    N     N_1   0.095930 0.025171 0.401640 -0.217889
C32   C     C_1   0.658640 0.947769 0.362515 0.266903
N4    N     N_1   0.727634 0.982824 0.308111 -0.215256
C33   C     C_2   0.789499 0.225079 0.564464 0.862662
O13   O     O_2   0.797274 0.297776 0.603178 -0.603078
O14   O     O_R   0.924473 0.179049 0.554208 -0.746903
H13   H     H_    0.020237 0.213487 0.579927 0.352983
C34   C     C_2   0.291048 0.772284 0.617095 0.843166
O15   O     O_2   0.219662 0.706078 0.587722 -0.603143
O16   O     O_R   0.267695 0.810072 0.706114 -0.747143
H14   H     H_    0.191966 0.775411 0.740241 0.343720
C35   C     C_2   0.722921 0.614240 0.080773 0.852221
O17   O     O_2   0.715381 0.631367 0.993594 -0.577574
O18   O     O_R   0.839813 0.651843 0.146726 -0.733402
H15   H     H_    0.910582 0.690851 0.113314 0.350820
C36   C     C_2   0.736673 0.394466 0.960241 0.843181
O19   O     O_2   0.728397 0.374308 0.045209 -0.591126
O20   O     O_R   0.862131 0.365302 0.916833 -0.754398
H16   H     H_    0.937891 0.329154 0.963273 0.346103

loop_
_geom_bond_atom_site_label_1
_geom_bond_atom_site_label_2
_ccdc_geom_bond_type
C30   O11   D    
C33   O14   S    
C1    C21   S    
Cu1   N2    S    
O18   H15   S    
Cu2   O3    S    
C19   H1    S    
O20   H16   S    
C2    O4    A    
Cu1   O5    S    
Cu2   O6    S    
C19   C21   A    
C24   C26   A    
C15   C16   D    
C9    H9    S    
C10   H10   S    
C4    C36   S    
C24   C34   S    
C1    O1    A    
C2    O2    A    
C2    C22   S    
Cu2   N1    S    
C15   C29   S    
C4    C12   A    
C18   C20   A    
C23   C33   S    
C31   N3    T    
Cu1   O1    S    
Cu2   O2    S    
C32   N4    T    
C8    H8    S    
C26   H4    S    
Cu1   O8    S    
C21   C23   A    
C29   O9    D    
C17   C27   A    
C18   C28   A    
C4    C6    A    
C35   O18   S    
C14   O6    A    
O10   H11   S    
C34   O15   D    
C29   O10   S    
C3    C35   S    
C36   O19   D    
Cu1   Cu2   S    
C9    C11   A    
C7    H7    S    
C36   O20   S    
C10   C12   A    
C17   C31   S    
C13   O7    A    
Cu2   O7    S    
C20   C22   A    
C13   C15   S    
C22   C24   A    
C13   O5    A    
C20   H2    S    
C7    C9    A    
C5    N1    A    
C8    N2    A    
C3    C5    A    
C11   C12   S    
C18   C32   S    
C25   C27   A    
C26   C28   A    
Cu1   O4    S    
C30   O12   S    
C16   C30   S    
C35   O17   D    
C1    O3    A    
O12   H12   S    
C14   O8    A    
C5    H5    S    
C17   C19   A    
C6    H6    S    
C14   C16   S    
C7    N1    A    
O16   H14   S    
C3    C11   A    
C33   O13   D    
C23   C25   A    
C8    C10   A    
O14   H13   S    
C6    N2    A    
C27   C28   S    
C34   O16   S    
C25   H3    S    
