data_mof_unit_38297.cif
_audit_creation_date              2013-03-05T16:25:57-0500
_audit_creation_method            fapswitch 2.2
_symmetry_space_group_name_H-M    P1
_symmetry_Int_Tables_number       1
_space_group_crystal_system       triclinic
_cell_length_a                    18.335429
_cell_length_b                    18.302468
_cell_length_c                    18.316464
_cell_angle_alpha                 119.879823
_cell_angle_beta                  90.467171
_cell_angle_gamma                 119.619513
_cell_volume                      4361.39566737

loop_
_atom_site_label
_atom_site_type_symbol
_atom_site_description
_atom_site_fract_x
_atom_site_fract_y
_atom_site_fract_z
_atom_type_partial_charge
Zn1   Zn    Zn3+2 0.956630 0.413250 0.869870 0.977824
Zn2   Zn    Zn3+2 0.130130 0.586750 0.043370 1.113412
Zn3   Zn    Zn3+2 0.956630 0.413250 0.043380 1.085613
Zn4   Zn    Zn3+2 0.956610 0.586750 0.043370 1.071577
O1    O     O_3   1.000000 0.500000 0.000000 -0.547220
O2    O     O_R   0.055050 0.731580 0.115780 -0.604580
O3    O     O_R   0.884220 0.268410 0.823490 -0.665702
O4    O     O_R   0.176520 0.560720 0.944920 -0.614075
O5    O     O_R   0.884200 0.439290 0.115800 -0.583331
O6    O     O_R   0.176530 0.560720 0.115800 -0.588986
O7    O     O_R   0.884180 0.560710 0.944910 -0.621884
O8    O     O_R   0.055100 0.439290 0.115810 -0.612213
O9    O     O_R   0.884190 0.439280 0.823480 -0.643207
O10   O     O_R   0.055090 0.439280 0.823480 -0.623519
O11   O     O_R   0.884180 0.560710 0.115790 -0.616404
O12   O     O_R   0.176500 0.731590 0.115790 -0.584009
O13   O     O_R   0.884220 0.268420 0.944930 -0.601603
C1    C     C_R   0.139822 0.779906 0.141601 0.877136
C2    C     C_R   0.858600 0.220082 0.859885 0.882705
C3    C     C_R   0.139731 0.497832 0.859885 0.899272
C4    C     C_R   0.858251 0.498145 0.138204 0.891989
C5    C     C_R   0.139876 0.501379 0.141254 0.859442
C6    C     C_R   0.857478 0.497379 0.859988 0.808770
C7    C     C_R   0.657559 0.350389 0.802434 -0.033017
C8    C     C_R   0.564476 0.286306 0.776487 0.246487
C9    C     C_R   0.510340 0.289637 0.725871 0.237706
C10   C     C_R   0.548166 0.356629 0.699708 -0.043816
C11   C     C_R   0.643311 0.422399 0.723608 -0.007485
C12   C     C_R   0.699219 0.420829 0.777443 -0.046630
C13   C     C_R   0.794221 0.489887 0.803647 0.007317
C14   C     C_R   0.831962 0.555750 0.776459 0.073981
H1    H     H_    0.808114 0.605764 0.701975 0.156383
C15   C     C_R   0.777608 0.554694 0.722950 -0.216345
C16   C     C_R   0.685459 0.490097 0.696429 -0.011540
C17   C     C_R   0.784002 0.053147 0.713186 0.006691
C18   C     C_R   0.794231 0.109021 0.803527 -0.226181
C19   C     C_R   0.737286 0.055539 0.836444 0.206471
C20   C     C_R   0.685280 0.946951 0.782910 0.224429
C21   C     C_R   0.687476 0.892167 0.695620 -0.239206
C22   C     C_R   0.730994 0.947177 0.660106 0.012653
C23   C     C_3   0.789543 0.939719 0.604128 -0.094779
C24   C     C_3   0.849553 0.058464 0.663910 0.148395
H2    H     H_    0.819930 0.902311 0.609802 0.197779
C25   C     C_R   0.780045 0.566531 0.226825 -0.087702
C26   C     C_R   0.794240 0.489477 0.185303 -0.027530
C27   C     C_R   0.742865 0.402719 0.188059 0.059970
C28   C     C_R   0.688635 0.403233 0.242906 0.040487
C29   C     C_R   0.687688 0.491366 0.296016 0.008841
C30   C     C_R   0.730305 0.568778 0.282261 -0.106120
C31   C     C_3   0.782074 0.684817 0.338580 0.183396
C32   C     C_3   0.839188 0.681795 0.276394 0.415312
C33   C     C_R   0.163199 0.947324 0.208288 0.024254
C34   C     C_R   0.194645 0.891108 0.206052 -0.228414
C35   C     C_R   0.278285 0.944564 0.269403 0.325633
C36   C     C_R   0.333781 0.053447 0.322595 0.003541
C37   C     C_R   0.304523 0.108262 0.313188 -0.165368
C38   C     C_R   0.216552 0.053187 0.260999 0.060813
C39   C     C_3   0.174033 0.060377 0.196396 0.117620
C40   C     C_3   0.113861 0.940360 0.136272 0.073243
C41   C     C_R   0.281859 0.538243 0.203059 -0.046160
C42   C     C_R   0.196296 0.509427 0.204301 -0.204777
C43   C     C_R   0.168815 0.493735 0.270283 0.218811
C44   C     C_R   0.223451 0.492929 0.324405 0.202906
C45   C     C_R   0.304714 0.507995 0.311960 -0.173485
C46   C     C_R   0.333969 0.535749 0.254291 -0.057721
C47   C     C_3   0.380058 0.509103 0.187197 0.415530
C48   C     C_3   0.320666 0.511728 0.129189 0.180257
C49   C     C_R   0.281097 0.577622 0.835227 -0.050086
C50   C     C_R   0.195554 0.491097 0.804414 -0.047493
C51   C     C_R   0.167658 0.398119 0.721977 -0.008750
C52   C     C_R   0.222768 0.398038 0.667803 0.273097
C53   C     C_R   0.304961 0.491654 0.696755 -0.184018
C54   C     C_R   0.334881 0.577664 0.783527 -0.012565
C55   C     C_3   0.379663 0.690041 0.823441 0.024759
C56   C     C_3   0.319272 0.690277 0.882300 0.378618
Zn5   Zn    Zn3+2 0.543330 0.586660 0.630080 1.053131
Zn6   Zn    Zn3+2 0.543320 0.586660 0.456570 1.056804
Zn7   Zn    Zn3+2 0.369830 0.413160 0.456580 1.114081
Zn8   Zn    Zn3+2 0.543350 0.413170 0.456590 0.993127
O14   O     O_3   0.499960 0.499910 0.499960 -0.539791
O15   O     O_R   0.615770 0.439200 0.384160 -0.615890
O16   O     O_R   0.444870 0.560630 0.676470 -0.615895
O17   O     O_R   0.615730 0.731500 0.555020 -0.621012
O18   O     O_R   0.323450 0.268330 0.384170 -0.582056
O19   O     O_R   0.444860 0.560620 0.384150 -0.614459
O20   O     O_R   0.615780 0.439200 0.555040 -0.638904
O21   O     O_R   0.323420 0.439190 0.384160 -0.592134
O22   O     O_R   0.615760 0.560630 0.676470 -0.636266
O23   O     O_R   0.615740 0.731500 0.676460 -0.588695
O24   O     O_R   0.444900 0.268330 0.384170 -0.676361
O25   O     O_R   0.615750 0.560630 0.384150 -0.649513
O26   O     O_R   0.323430 0.439200 0.555040 -0.584069
C57   C     C_R   0.638922 0.498702 0.358813 0.906043
C58   C     C_R   0.360000 0.498852 0.640188 0.901822
C59   C     C_R   0.639293 0.780231 0.640133 0.888538
C60   C     C_R   0.360214 0.219858 0.361469 0.860134
C61   C     C_R   0.360082 0.501105 0.361268 0.937341
C62   C     C_R   0.637586 0.497651 0.640026 0.773199
N1    N     N_3   0.926977 0.624529 0.803532 -0.436446
H3    H     H_    0.944335 0.699798 0.838399 0.209023
H4    H     H_    0.944692 0.608123 0.745979 0.232692
N2    N     N_3   0.743855 0.892474 0.511074 -0.375928
H5    H     H_    0.703486 0.916421 0.507342 0.231869
H6    H     H_    0.792065 0.916126 0.482686 0.264014
N3    N     N_3   0.937745 0.102387 0.718672 -0.441835
H7    H     H_    0.972639 0.084785 0.675635 0.238170
H8    H     H_    0.931044 0.067041 0.751213 0.186401
N4    N     N_3   0.855218 0.107394 0.618435 -0.410373
H9    H     H_    0.793539 0.093206 0.597777 0.199623
H10   H     H_    0.899141 0.187112 0.664816 0.241716
N5    N     N_3   0.746811 0.315466 0.136738 -0.346387
H11   H     H_    0.770915 0.305327 0.180384 0.231156
H12   H     H_    0.682501 0.250008 0.094213 0.245317
N6    N     N_3   0.635705 0.315378 0.245435 -0.411127
H13   H     H_    0.677595 0.301399 0.266491 0.215979
H14   H     H_    0.591035 0.251320 0.181130 0.211032
N7    N     N_3   0.727480 0.719929 0.331240 -0.384537
H15   H     H_    0.684050 0.707219 0.366834 0.253006
H16   H     H_    0.687193 0.674883 0.264672 0.259796
N8    N     N_R   0.832967 0.739058 0.432191 0.248832
O27   O     O_R   0.822511 0.689967 0.467987 -0.381507
O28   O     O_R   0.891289 0.838395 0.480132 -0.333915
N9    N     N_R   0.830823 0.717934 0.222925 0.213229
O29   O     O_R   0.864812 0.815119 0.261927 -0.309801
O30   O     O_R   0.789034 0.654046 0.136928 -0.337266
N10   N     N_R   0.932653 0.726324 0.318951 0.220561
O31   O     O_R   0.951813 0.692835 0.359071 -0.305053
O32   O     O_R   0.997281 0.794760 0.311623 -0.291220
N11   N     N_R   0.307141 0.889491 0.280490 0.252263
O33   O     O_R   0.386660 0.911944 0.281735 -0.271724
O34   O     O_R   0.255683 0.820587 0.294408 -0.313657
N12   N     N_3   0.706043 0.336703 0.850580 -0.387294
H17   H     H_    0.745443 0.403326 0.915272 0.207892
H18   H     H_    0.741372 0.310541 0.814226 0.201436
N13   N     N_3   0.417625 0.105778 0.386883 -0.356029
H19   H     H_    0.421955 0.159825 0.449559 0.213653
H20   H     H_    0.469257 0.142944 0.367642 0.238429
N14   N     N_3   0.129364 0.111365 0.235463 -0.351054
H21   H     H_    0.083474 0.092298 0.183828 0.204663
H22   H     H_    0.095164 0.087554 0.273053 0.223824
N15   N     N_3   0.236458 0.109073 0.159716 -0.380529
H23   H     H_    0.278234 0.084174 0.144787 0.192079
H24   H     H_    0.199613 0.087255 0.100158 0.241330
N16   N     N_3   0.018537 0.891139 0.124525 -0.373374
H25   H     H_    0.992709 0.911285 0.092349 0.205039
H26   H     H_    0.008236 0.915273 0.186117 0.239690
N17   N     N_3   0.127959 0.892680 0.050413 -0.423763
H27   H     H_    0.191824 0.908751 0.060845 0.202178
H28   H     H_    0.083417 0.812683 0.014708 0.221318
N18   N     N_R   0.088374 0.483179 0.285021 0.243950
O35   O     O_R   0.076140 0.553339 0.301227 -0.312027
O36   O     O_R   0.025717 0.401789 0.278897 -0.290018
N19   N     N_R   0.198005 0.480815 0.393496 0.246216
O37   O     O_R   0.246946 0.555525 0.476912 -0.358617
O38   O     O_R   0.133794 0.390991 0.372835 -0.277931
N20   N     N_R   0.475665 0.590749 0.220845 0.216780
O39   O     O_R   0.521737 0.583999 0.167129 -0.293022
O40   O     O_R   0.515284 0.671073 0.303681 -0.355749
N21   N     N_R   0.362832 0.406969 0.145854 0.181143
O41   O     O_R   0.314387 0.346614 0.169043 -0.431483
O42   O     O_R   0.391060 0.372678 0.080024 -0.265313
N22   N     N_R   0.370255 0.594434 0.116764 0.267049
O43   O     O_R   0.405910 0.580795 0.054165 -0.261166
O44   O     O_R   0.378228 0.681063 0.166655 -0.236810
N23   N     N_R   0.524347 0.214256 0.799830 0.258555
O45   O     O_R   0.462377 0.117589 0.738664 -0.278640
O46   O     O_R   0.550058 0.244758 0.882082 -0.290242
N24   N     N_3   0.255748 0.411948 0.044311 -0.379659
H29   H     H_    0.212674 0.358258 0.056569 0.194237
H30   H     H_    0.216455 0.421156 0.012704 0.178424
N25   N     N_3   0.084901 0.304465 0.694854 -0.422642
H31   H     H_    0.042266 0.277382 0.635961 0.251377
H32   H     H_    0.097136 0.249865 0.682046 0.229786
N26   N     N_R   0.196326 0.303288 0.585675 0.221168
O47   O     O_R   0.120384 0.247668 0.523416 -0.339072
O48   O     O_R   0.249040 0.273186 0.572376 -0.350447
N27   N     N_3   0.474968 0.750882 0.871880 -0.287880
H33   H     H_    0.498495 0.828413 0.913381 0.273931
H34   H     H_    0.485339 0.730112 0.912794 0.234286
N28   N     N_3   0.363545 0.708054 0.757235 -0.340084
H35   H     H_    0.296331 0.656127 0.717021 0.233945
H36   H     H_    0.378282 0.782133 0.791316 0.271452
N29   N     N_R   0.366906 0.752002 0.978619 0.198364
O49   O     O_R   0.412475 0.851957 0.026154 -0.325210
O50   O     O_R   0.364947 0.708288 0.017627 -0.276616
N30   N     N_R   0.256086 0.711644 0.864223 0.175605
O51   O     O_R   0.177231 0.638051 0.803706 -0.414549
O52   O     O_R   0.282325 0.806489 0.902475 -0.330790
N31   N     N_R   0.415142 0.226616 0.703225 0.260178
O53   O     O_R   0.362857 0.170166 0.621220 -0.293914
O54   O     O_R   0.380348 0.226717 0.764890 -0.268330
N32   N     N_3   0.486519 0.358537 0.653174 -0.385188
H37   H     H_    0.498001 0.430981 0.690478 0.215705
H38   H     H_    0.487758 0.333804 0.588433 0.181759
N33   N     N_R   0.727275 0.110165 0.920572 0.241220
O55   O     O_R   0.739632 0.097697 0.982428 -0.311934
O56   O     O_R   0.703953 0.171393 0.934651 -0.367730
N34   N     N_R   0.625266 0.893092 0.814652 0.247034
O57   O     O_R   0.540093 0.840038 0.775423 -0.376814
O58   O     O_R   0.654876 0.884537 0.872737 -0.320058

loop_
_geom_bond_atom_site_label_1
_geom_bond_atom_site_label_2
_geom_bond_distance
_ccdc_geom_bond_type
Zn7   O21   1.929405 S    
C48   N24   1.470084 S    
C28   N6    1.435936 S    
O11   C4    1.280347 A    
C36   C37   1.423636 A    
N23   O45   1.301386 A    
O16   C58   1.279399 A    
C31   N7    1.467244 S    
C32   N9    1.470870 S    
C23   C24   1.542237 S    
C35   C36   1.414525 A    
N17   H27   1.046015 S    
C48   N22   1.468326 S    
C51   N25   1.433764 S    
C56   N29   1.471490 S    
N6    H13   1.044927 S    
N14   H21   1.045066 S    
N13   H19   1.045053 S    
C34   C35   1.418533 A    
N4    H9    1.046145 S    
C49   C56   1.508939 S    
N11   O34   1.301424 A    
N3    H8    1.046759 S    
C9    C10   1.401541 A    
O4    C3    1.278648 A    
Zn1   O1    1.945471 S    
C19   N33   1.434839 S    
C18   C19   1.414169 A    
N17   H28   1.045777 S    
N11   O33   1.301178 A    
C2    C18   1.452041 S    
N15   H24   1.045554 S    
N21   O41   1.301297 A    
O18   C60   1.281597 A    
C20   C21   1.416664 A    
Zn7   O14   1.952596 S    
N9    O30   1.301935 A    
Zn6   O17   1.939304 S    
O8    C5    1.280309 A    
C23   N2    1.465191 S    
O9    C6    1.276480 A    
C37   C60   1.456187 S    
C54   C55   1.503886 S    
O7    C6    1.277870 A    
N31   O54   1.301384 A    
C17   C24   1.502753 S    
N26   O47   1.300725 A    
Zn8   O24   1.942336 S    
Zn3   O8    1.930633 S    
C1    C34   1.452857 S    
O13   C2    1.278292 A    
C7    C12   1.440605 A    
Zn6   O25   1.942850 S    
N19   O37   1.300991 A    
N5    H11   1.044986 S    
C41   C48   1.508409 S    
N28   H36   1.045358 S    
N12   H17   1.043316 S    
N27   H34   1.046532 S    
N21   O42   1.301129 A    
N34   O57   1.298322 A    
C14   N1    1.435884 S    
N19   O38   1.300651 A    
C12   C13   1.437972 A    
Zn2   O12   1.939057 S    
Zn5   O22   1.929502 S    
C4    C26   1.454550 S    
C42   C43   1.417653 A    
Zn5   O23   1.941802 S    
C53   C58   1.459770 S    
C39   N14   1.467459 S    
N24   H30   1.045480 S    
C47   C48   1.549456 S    
Zn6   O19   1.930384 S    
N23   O46   1.301494 A    
C27   N5    1.434820 S    
C23   H2    1.112198 S    
C20   N34   1.424723 S    
C50   C51   1.415737 A    
C36   N13   1.434778 S    
C47   N21   1.472957 S    
C9    N31   1.438947 S    
N8    O28   1.300898 A    
C15   C16   1.388646 A    
N22   O44   1.302074 A    
O2    C1    1.278367 A    
C29   C57   1.456747 S    
C49   C54   1.372747 A    
C28   C29   1.418835 A    
N24   H29   1.046606 S    
N9    O29   1.301347 A    
C7    C8    1.402513 A    
C44   N19   1.433616 S    
Zn4   O2    1.942188 S    
C55   C56   1.551747 S    
Zn5   O16   1.945837 S    
C21   C22   1.392981 A    
Zn8   O15   1.945083 S    
C49   C50   1.387909 A    
N33   O55   1.300607 A    
Zn7   O26   1.942363 S    
C8    C9    1.396298 A    
C26   C27   1.418948 A    
C25   C30   1.369317 A    
O6    C5    1.279349 A    
C44   C45   1.417769 A    
C41   C42   1.390894 A    
C17   C18   1.392267 A    
N32   H38   1.042778 S    
O23   C59   1.280609 A    
N29   O49   1.301211 A    
C6    C13   1.453033 S    
C19   C20   1.410812 A    
Zn3   O5    1.942896 S    
C33   C40   1.507852 S    
O10   C3    1.276222 A    
O25   C57   1.278936 A    
N29   O50   1.301343 A    
O15   C57   1.277401 A    
C7    N12   1.434624 S    
N1    H3    1.045789 S    
C45   C61   1.444734 S    
O17   C59   1.278769 A    
C43   C44   1.414040 A    
O26   C58   1.279341 A    
C31   C32   1.552745 S    
C55   N28   1.468118 S    
N5    H12   1.044621 S    
O12   C1    1.278376 A    
C33   C34   1.391960 A    
Zn4   O7    1.929280 S    
N2    H6    1.045293 S    
N25   H31   1.044459 S    
C21   C59   1.460244 S    
C51   C52   1.421976 A    
N14   H22   1.045494 S    
N27   H33   1.045154 S    
C25   C32   1.504979 S    
N16   H26   1.045432 S    
C22   C23   1.498570 S    
N1    H4    1.045733 S    
C41   C46   1.366290 A    
C46   C47   1.513059 S    
O3    C2    1.276450 A    
C31   N8    1.469182 S    
C3    C50   1.453282 S    
Zn2   O1    1.952596 S    
Zn1   O9    1.929650 S    
C37   C38   1.392558 A    
N30   O52   1.301105 A    
Zn2   O6    1.929452 S    
N8    O27   1.301007 A    
N22   O43   1.301058 A    
Zn6   O14   1.950496 S    
N31   O53   1.301470 A    
N13   H20   1.044463 S    
C35   N11   1.437529 S    
C27   C28   1.419201 A    
C11   C12   1.436966 A    
C14   C15   1.378530 A    
N10   O32   1.301543 A    
C43   N18   1.436082 S    
Zn1   O3    1.941802 S    
C32   N10   1.474211 S    
Zn2   O4    1.942107 S    
C25   C26   1.390113 A    
Zn5   O14   1.945322 S    
C53   C54   1.394410 A    
Zn3   O1    1.950349 S    
C40   N16   1.468679 S    
N6    H14   1.044931 S    
O24   C60   1.277198 A    
N25   H32   1.045397 S    
N3    H7    1.045677 S    
C52   N26   1.436351 S    
N16   H25   1.045045 S    
C8    N23   1.439085 S    
N32   H37   1.043220 S    
Zn4   O11   1.945083 S    
N7    H16   1.045827 S    
C17   C22   1.376237 A    
C39   C40   1.558675 S    
C52   C53   1.420347 A    
N7    H15   1.043895 S    
H1    C15   1.085662 S    
C5    C42   1.444249 S    
C47   N20   1.470125 S    
C39   N15   1.468541 S    
O5    C4    1.274536 A    
C38   C39   1.505584 S    
C13   C14   1.399699 A    
C55   N27   1.465496 S    
N10   O31   1.302524 A    
C29   C30   1.394968 A    
C45   C46   1.391424 A    
N20   O40   1.301914 A    
C16   C62   1.450651 S    
N4    H10   1.044724 S    
Zn3   O13   1.939202 S    
N18   O36   1.300467 A    
N2    H5    1.046097 S    
O20   C62   1.278777 A    
C24   N3    1.467095 S    
N26   O48   1.301363 A    
O19   C61   1.280333 A    
C33   C38   1.374917 A    
C11   C16   1.433387 A    
Zn8   O14   1.945904 S    
C56   N30   1.474916 S    
Zn7   O18   1.938866 S    
Zn4   O1    1.946053 S    
N20   O39   1.300954 A    
N12   H18   1.043189 S    
C30   C31   1.511337 S    
C10   N32   1.434659 S    
C10   C11   1.439007 A    
N18   O35   1.301309 A    
N34   O58   1.300672 A    
Zn1   O10   1.945836 S    
O21   C61   1.279407 A    
N30   O51   1.301781 A    
N15   H23   1.045689 S    
C24   N4    1.469439 S    
Zn8   O20   1.929236 S    
O22   C62   1.275967 A    
N28   H35   1.046205 S    
N33   O56   1.301034 A    
C40   N17   1.470973 S    
