data_mof_unit_33726.cif
_audit_creation_date              2012-12-10T18:15:20-0500
_audit_creation_method            fapswitch 2.2
_symmetry_space_group_name_H-M    P1
_symmetry_Int_Tables_number       1
_space_group_crystal_system       triclinic
_cell_length_a                    12.628982
_cell_length_b                    13.073292
_cell_length_c                    23.437949
_cell_angle_alpha                 92.361864
_cell_angle_beta                  103.886757
_cell_angle_gamma                 81.144824
_cell_volume                      3711.74576275

loop_
_atom_site_label
_atom_site_type_symbol
_atom_type_description
_atom_site_fract_x
_atom_site_fract_y
_atom_site_fract_z
_atom_type_partial_charge
C1    C     C_R   0.438996 0.692139 0.496902 0.899270
C2    C     C_R   0.287234 0.610355 0.006778 0.428787
C3    C     C_R   0.288311 0.614002 0.947796 -0.172087
C4    C     C_R   0.381491 0.571209 0.927973 -0.064956
C5    C     C_R   0.476349 0.522358 0.967777 -0.060479
C6    C     C_R   0.571390 0.480578 0.947655 -0.197558
C7    C     C_R   0.665692 0.431032 0.988180 0.329044
C8    C     C_R   0.662307 0.418150 0.046724 0.425077
C9    C     C_R   0.381186 0.575316 0.868571 0.607214
C10   C     C_R   0.566835 0.488659 0.887269 0.678920
C11   C     C_R   0.428634 0.453094 0.753416 0.283042
C12   C     C_R   0.500549 0.502710 0.610752 0.995920
C13   C     C_R   0.446617 0.438488 0.696638 0.351928
C14   C     C_R   0.496631 0.511306 0.673209 -0.377284
C15   C     C_R   0.531292 0.596142 0.708203 0.218157
C16   C     C_R   0.518950 0.606565 0.765939 0.415083
C17   C     C_R   0.469599 0.533826 0.788550 -0.010910
C18   C     C_R   0.551716 0.561764 0.245676 -0.134276
C19   C     C_R   0.558365 0.559155 0.305512 -0.191722
C20   C     C_R   0.492081 0.500733 0.326786 -0.093989
C21   C     C_R   0.420289 0.443654 0.287895 -0.230118
C22   C     C_R   0.415277 0.444262 0.227957 0.456639
C23   C     C_R   0.561768 0.308358 0.505164 0.931910
C24   C     C_R   0.480608 0.504416 0.206784 0.187515
C25   C     C_R   0.727653 0.062547 0.570691 0.359620
C26   C     C_R   0.601421 0.198707 0.513227 -0.117502
C27   C     C_R   0.292759 0.844420 0.474100 -0.384039
C28   C     C_R   0.257861 0.951325 0.473412 0.501204
C29   C     C_R   0.335939 0.018806 0.491884 0.295318
C30   C     C_R   0.449821 0.978080 0.512962 -0.054804
C31   C     C_R   0.477769 0.871943 0.526131 0.029926
C32   C     C_R   0.537582 0.037628 0.522471 0.062943
C33   C     C_R   0.643251 0.999706 0.558432 0.040378
C34   C     C_R   0.497748 0.499851 0.389450 0.928853
C35   C     C_R   0.661422 0.900441 0.581192 -0.154201
C36   C     C_R   0.581099 0.837241 0.564306 -0.111606
C37   C     C_R   0.524769 0.131705 0.494558 -0.195383
C38   C     C_R   0.705007 0.163237 0.549231 -0.227898
C39   C     C_R   0.401921 0.803892 0.500623 -0.161273
C40   C     C_R   0.077082 0.400782 0.392232 0.331070
C41   C     C_R   0.816665 0.600758 0.582618 0.485550
C42   C     C_R   0.914231 0.643975 0.592224 0.278681
C43   C     C_R   0.983705 0.619142 0.554500 -0.303483
C44   C     C_R   0.956576 0.550694 0.507403 -0.061534
C45   C     C_R   0.567576 0.460498 0.126860 0.584626
C46   C     C_R   0.848115 0.522929 0.493133 0.035584
C47   C     C_R   0.035904 0.503446 0.476361 -0.016060
C48   C     C_R   0.999990 0.452033 0.422437 -0.005446
C49   C     C_R   0.888975 0.443932 0.402738 -0.209759
C50   C     C_R   0.821731 0.459044 0.442162 0.401925
C51   C     C_R   0.150524 0.499159 0.498705 -0.010470
C52   C     C_R   0.188550 0.397281 0.417634 0.039443
C53   C     C_R   0.386213 0.557194 0.108222 0.618816
C54   C     C_R   0.381543 0.561707 0.047780 -0.096094
C55   C     C_R   0.475798 0.516015 0.027678 -0.111652
C56   C     C_R   0.569376 0.464071 0.067322 -0.180476
H1    H     H_    0.614001 0.603907 0.335003 0.170074
H2    H     H_    0.369823 0.397231 0.304151 0.193101
H3    H     H_    0.765738 0.214975 0.563211 0.204892
H4    H     H_    0.739010 0.869031 0.610205 0.244613
H5    H     H_    0.452326 0.156655 0.460271 0.212294
H6    H     H_    0.234102 0.793241 0.454348 0.193311
H7    H     H_    0.215124 0.651150 0.917282 0.229310
H8    H     H_    0.602030 0.761056 0.582504 0.243340
H9    H     H_    0.249207 0.361039 0.394528 0.165442
H10   H     H_    0.861172 0.401813 0.362483 0.242061
H11   H     H_    0.184666 0.538080 0.538841 0.149388
H12   H     H_    0.060552 0.650263 0.564173 0.190962
H13   H     H_    0.602285 0.607882 0.229337 0.173087
N1    N     N_R   0.477343 0.506357 0.145528 -0.356351
N2    N     N_R   0.472877 0.534689 0.849820 -0.312908
N3    N     N_R   0.222200 0.444670 0.469780 -0.123989
N4    N     N_R   0.776960 0.554790 0.529910 -0.183218
O1    O     O_R   0.366740 0.627150 0.485570 -0.624712
O2    O     O_2   0.301941 0.604030 0.130402 -0.441395
O3    O     O_2   0.289811 0.618504 0.829512 -0.518930
O4    O     O_2   0.653751 0.449254 0.865122 -0.473109
O5    O     O_R   0.544830 0.662520 0.504870 -0.622629
O6    O     O_R   0.410930 0.482340 0.574190 -0.572769
O7    O     O_R   0.589010 0.517710 0.593490 -0.562614
O8    O     O_R   0.455170 0.337480 0.495130 -0.588048
O9    O     O_R   0.633260 0.372850 0.514430 -0.574822
O10   O     O_R   0.410990 0.482290 0.406510 -0.637460
O11   O     O_R   0.589070 0.517660 0.425810 -0.587280
O12   O     O_2   0.655392 0.412725 0.166455 -0.490070
Zn1   Zn    Zn3+2 0.381090 0.476380 0.487110 0.997583
Zn2   Zn    Zn3+2 0.618910 0.523620 0.512890 1.006553
Cl1   Cl    Cl    0.162948 0.666852 0.024719 -0.430760
Cl2   Cl    Cl    0.329338 0.367086 0.180560 -0.497833
Cl3   Cl    Cl    0.859581 0.021641 0.615924 -0.576986
Cl4   Cl    Cl    0.282552 0.150737 0.499699 -0.583355
O13   O     O_3   0.148695 0.991690 0.449848 -0.557359
C57   C     C_3   0.082273 0.965721 0.486150 0.116592
H14   H     H_    0.116712 0.984304 0.533215 0.175717
H15   H     H_    0.074076 0.882059 0.481748 0.132219
C58   C     C_3   0.967633 0.028086 0.467210 -0.637386
H16   H     H_    0.930664 0.011669 0.420394 0.253026
H17   H     H_    0.913784 0.006806 0.494543 0.222833
H18   H     H_    0.972542 0.112182 0.472657 0.283343
Cl5   Cl    Cl    0.039241 0.337848 0.323917 -0.531331
O14   O     O_3   0.773560 0.587927 0.630109 -0.533896
C59   C     C_3   0.832461 0.495399 0.658847 0.137149
H19   H     H_    0.923505 0.494756 0.668646 0.158731
H20   H     H_    0.811923 0.426610 0.631085 0.133849
C60   C     C_3   0.803404 0.484555 0.717419 -0.593297
H21   H     H_    0.720127 0.462434 0.710144 0.221521
H22   H     H_    0.862871 0.422391 0.743612 0.212781
H23   H     H_    0.807064 0.558206 0.742676 0.305619
Cl6   Cl    Cl    0.957569 0.716587 0.656122 -0.487633
Cl7   Cl    Cl    0.755145 0.350300 0.437538 -0.606372
Cl8   Cl    Cl    0.792524 0.384711 0.969399 -0.424034
O15   O     O_3   0.754045 0.365345 0.084570 -0.514621
C61   C     C_3   0.743955 0.258951 0.082354 0.135737
H24   H     H_    0.743408 0.226296 0.037665 0.158878
H25   H     H_    0.667097 0.245872 0.094596 0.149279
C62   C     C_3   0.841871 0.200672 0.125704 -0.592753
H26   H     H_    0.843760 0.230494 0.170952 0.284482
H27   H     H_    0.834940 0.116911 0.124384 0.193253
H28   H     H_    0.919874 0.210757 0.114085 0.275543
Cl9   Cl    Cl    0.356657 0.368911 0.781467 -0.542007
O16   O     O_3   0.412196 0.354987 0.662755 -0.550080
C63   C     C_3   0.475345 0.260910 0.687144 0.184080
H29   H     H_    0.418327 0.210290 0.696240 0.212965
H30   H     H_    0.538377 0.269249 0.728965 0.144186
C64   C     C_3   0.534643 0.206731 0.642948 -0.819988
H31   H     H_    0.593894 0.255239 0.634346 0.230609
H32   H     H_    0.580201 0.130584 0.660356 0.235959
H33   H     H_    0.473429 0.194566 0.601602 0.300895
Cl10  Cl    Cl    0.588170 0.692970 0.681659 -0.572463
O17   O     O_3   0.564251 0.682790 0.802188 -0.548530
C65   C     C_3   0.483386 0.771269 0.799192 0.132643
H34   H     H_    0.415879 0.755515 0.818886 0.165754
H35   H     H_    0.447610 0.797639 0.753023 0.178091
C66   C     C_3   0.536150 0.858881 0.833747 -0.699372
H36   H     H_    0.473298 0.928903 0.831952 0.212331
H37   H     H_    0.570878 0.835823 0.880373 0.258302
H38   H     H_    0.603276 0.877564 0.814641 0.280593

loop_
_geom_bond_atom_site_label_1
_geom_bond_atom_site_label_2
_ccdc_geom_bond_type
O5    Zn2   S    
C55   C56   A    
C12   O6    A    
C57   H14   S    
C23   O9    A    
C41   C42   A    
C35   C36   A    
O11   Zn2   S    
C65   C66   S    
C8    C56   A    
C66   H38   S    
C24   N1    S    
C7    C8    A    
C53   C54   A    
C19   H1    S    
C60   H22   S    
C25   Cl3   S    
O14   C59   S    
C18   C24   A    
C1    O1    A    
C28   C29   A    
C42   Cl6   S    
O7    Zn2   S    
C8    O15   S    
C5    C6    A    
C53   N1    A    
O9    Zn2   S    
C58   H18   S    
C50   Cl7   S    
C62   H26   S    
C59   C60   S    
C18   C19   A    
C23   C26   S    
N4    Zn2   S    
C19   C20   A    
C45   C56   A    
C27   C39   A    
C16   C17   A    
C58   H17   S    
C64   H33   S    
C2    Cl1   S    
C9    O3    S    
C16   O17   S    
C42   C43   A    
O8    Zn1   S    
C44   C47   A    
C61   C62   S    
C20   C34   S    
C10   N2    A    
C18   H13   S    
C57   H15   S    
C21   C22   A    
C1    O5    A    
C53   O2    S    
C34   O11   A    
C11   Cl9   S    
O15   C61   S    
C10   O4    S    
C44   C46   A    
C60   H23   S    
C49   H10   S    
C7    Cl8   S    
C2    C54   A    
C26   C38   A    
C66   H37   S    
C40   C52   A    
C3    C4    A    
C35   H4    S    
C45   O12   S    
C43   C44   A    
C40   Cl5   S    
C29   C30   A    
C52   N3    A    
C27   H6    S    
C25   C38   A    
C13   O16   S    
N3    Zn1   S    
C47   C48   A    
C15   Cl10  S    
C58   H16   S    
C28   O13   S    
C51   H11   S    
C32   C37   A    
O1    Zn1   S    
C59   H20   S    
O16   C63   S    
C6    C7    A    
C62   H27   S    
C48   C49   A    
C12   C14   S    
C17   N2    S    
C57   C58   S    
C64   H31   S    
C22   C24   A    
C34   O10   A    
C63   H30   S    
C65   H34   S    
C29   Cl4   S    
C37   H5    S    
C61   H24   S    
C40   C48   A    
C54   C55   A    
C11   C17   A    
C23   O8    A    
C45   N1    A    
C31   C36   A    
C5    C55   A    
C9    N2    A    
C4    C5    A    
C65   H35   S    
C6    C10   A    
C47   C51   A    
C26   C37   A    
C66   H36   S    
C3    H7    S    
C60   H21   S    
C46   C50   A    
C62   H28   S    
C32   C33   A    
C63   C64   S    
O17   C65   S    
C63   H29   S    
C21   H2    S    
C36   H8    S    
C30   C32   A    
C11   C13   A    
C30   C31   A    
C31   C39   A    
C12   O7    A    
O13   C57   S    
C33   C35   A    
C22   Cl2   S    
C41   O14   S    
C2    C3    A    
C46   N4    A    
C59   H19   S    
C1    C39   S    
C41   N4    A    
C38   H3    S    
O10   Zn1   S    
C20   C21   A    
C49   C50   A    
C51   N3    A    
C27   C28   A    
C64   H32   S    
C14   C15   A    
C4    C9    A    
C13   C14   A    
O6    Zn1   S    
C52   H9    S    
C15   C16   A    
C25   C33   A    
C61   H25   S    
C43   H12   S    
