data_mof_unit_30775.cif
_audit_creation_date              2012-12-11T14:15:03-0500
_audit_creation_method            fapswitch 2.2
_symmetry_space_group_name_H-M    P1
_symmetry_Int_Tables_number       1
_space_group_crystal_system       triclinic
_cell_length_a                    24.590128
_cell_length_b                    17.224228
_cell_length_c                    15.626611
_cell_angle_alpha                 89.562654
_cell_angle_beta                  128.978369
_cell_angle_gamma                 89.789885
_cell_volume                      5144.72596828

loop_
_atom_site_label
_atom_site_type_symbol
_atom_type_description
_atom_site_fract_x
_atom_site_fract_y
_atom_site_fract_z
_atom_type_partial_charge
C1    C     C_R   0.345790 0.365451 0.238866 -0.204508
C2    C     C_R   0.635764 0.687401 0.492794 0.018180
C3    C     C_3   0.862261 0.913060 0.717770 -0.272978
C4    C     C_3   0.525493 0.326884 0.800895 -0.332794
C5    C     C_3   0.537161 0.373341 0.893594 -0.827735
C6    C     C_3   0.472917 0.331246 0.194582 -0.340033
C7    C     C_3   0.460661 0.382131 0.103641 -0.816642
C8    C     C_3   0.029812 0.833072 0.811332 -0.351440
C9    C     C_3   0.043283 0.886717 0.899668 -0.849770
C10   C     C_3   0.975191 0.833661 0.196008 -0.331809
C11   C     C_3   0.961307 0.885822 0.104880 -0.828057
C12   C     C_3   0.247411 0.723175 0.267897 -0.145032
C13   C     C_R   0.862710 0.187354 0.503438 0.000447
C14   C     C_3   0.778930 0.650222 0.713465 -0.189011
C15   C     C_3   0.747547 0.223022 0.267213 -0.143544
C16   C     C_3   0.251750 0.220338 0.729922 -0.142427
C17   C     C_3   0.451853 0.595709 0.140054 -0.356312
C18   C     C_3   0.456394 0.667595 0.086929 -0.877081
C19   C     C_3   0.540984 0.587300 0.853570 -0.352087
C20   C     C_3   0.534216 0.661254 0.900213 -0.845159
C21   C     C_3   0.954005 0.099507 0.142282 -0.358725
C22   C     C_3   0.961437 0.174267 0.096909 -0.843507
C23   C     C_3   0.046314 0.099886 0.857899 -0.353968
C24   C     C_R   0.137045 0.186442 0.493973 0.009045
C25   C     C_3   0.038741 0.174792 0.901861 -0.836613
C26   C     C_3   0.755414 0.516802 0.856599 -0.244681
C27   C     C_3   0.246820 0.527087 0.151408 -0.165621
C28   C     C_3   0.252952 0.023874 0.849121 -0.163806
C29   C     C_3   0.747092 0.026715 0.153690 -0.159831
C30   C     C_3   0.642754 0.733223 0.271296 -0.313869
C31   C     C_3   0.331267 0.709342 0.699894 -0.288237
C32   C     C_3   0.169901 0.211447 0.296929 -0.290801
C33   C     C_3   0.831798 0.210171 0.700810 -0.254501
C34   C     C_R   0.355517 0.640878 0.145261 -0.084149
C35   C     C_R   0.646089 0.617916 0.866137 -0.111081
C36   C     C_R   0.855338 0.140081 0.144328 -0.082256
C37   C     C_R   0.144158 0.139977 0.853681 -0.079907
C38   C     C_2   0.647942 0.798191 0.403124 0.651936
C39   C     C_2   0.348154 0.788093 0.600037 0.664612
C40   C     C_2   0.152631 0.287529 0.397573 0.664568
C41   C     C_R   0.653587 0.363427 0.759439 -0.201747
C42   C     C_2   0.847954 0.288377 0.599545 0.657836
C43   C     C_2   0.658048 0.765863 0.491090 -0.380614
C44   C     C_2   0.343557 0.765824 0.513133 -0.395478
C45   C     C_2   0.156380 0.264442 0.483724 -0.396655
C46   C     C_2   0.843152 0.265599 0.512647 -0.401389
C47   C     C_2   0.191845 0.356829 0.410044 0.101684
C48   C     C_2   0.807914 0.357393 0.586526 0.115247
C49   C     C_2   0.694179 0.861952 0.422207 0.112958
C50   C     C_2   0.308626 0.857479 0.587973 0.102923
C51   C     C_2   0.260580 0.355553 0.496805 -0.337324
C52   C     C_R   0.847666 0.864496 0.241420 -0.199564
C53   C     C_2   0.738972 0.355662 0.501518 -0.339998
C54   C     C_2   0.763227 0.846914 0.496266 -0.364544
C55   C     C_2   0.239737 0.856958 0.502390 -0.339499
C56   C     C_2   0.663639 0.250217 0.869193 -0.238484
C57   C     C_2   0.334279 0.255220 0.126044 -0.237187
C58   C     C_2   0.164958 0.751773 0.871861 -0.241298
C59   C     C_2   0.835401 0.765183 0.117347 -0.190489
C60   C     C_2   0.701624 0.203542 0.855511 -0.196391
C61   C     C_2   0.295851 0.208983 0.139280 -0.199477
C62   C     C_2   0.201762 0.704392 0.856461 -0.199065
C63   C     C_R   0.153722 0.863670 0.759842 -0.205581
C64   C     C_2   0.780734 0.733685 0.101994 -0.179254
C65   C     C_2   0.309452 0.683691 0.040637 -0.198056
C66   C     C_2   0.691181 0.647410 0.975840 -0.213153
C67   C     C_2   0.809621 0.182103 0.038856 -0.206106
C68   C     C_2   0.189104 0.184593 0.955627 -0.203959
C69   C     C_R   0.618428 0.408719 0.411860 0.577631
C70   C     C_R   0.380865 0.409148 0.587261 0.574833
C71   C     C_R   0.119077 0.910242 0.412512 0.571963
C72   C     C_R   0.883204 0.906570 0.590616 0.566798
C73   C     C_2   0.255951 0.651469 0.945020 0.294988
C74   C     C_R   0.416288 0.644518 0.592088 -0.182917
C75   C     C_2   0.719473 0.716651 0.991223 0.282903
C76   C     C_2   0.754729 0.150061 0.944394 0.294963
C77   C     C_2   0.244511 0.154368 0.053040 0.295033
C78   C     C_R   0.688120 0.397815 0.592569 -0.279205
C79   C     C_R   0.312088 0.398285 0.407149 -0.263801
C80   C     C_R   0.188342 0.898386 0.592931 -0.262962
C81   C     C_R   0.812772 0.897019 0.408597 -0.257685
C82   C     C_R   0.566864 0.357834 0.767076 0.193273
C83   C     C_R   0.432354 0.359902 0.230753 0.190415
C84   C     C_R   0.067719 0.859075 0.769318 0.201276
C85   C     C_R   0.585051 0.643280 0.404954 -0.221855
C86   C     C_R   0.934921 0.859971 0.233921 0.187886
C87   C     C_R   0.371473 0.322470 0.198543 0.090253
C88   C     C_R   0.627322 0.319398 0.798189 0.085814
C89   C     C_R   0.875154 0.822444 0.202583 0.076368
C90   C     C_R   0.127840 0.820174 0.799694 0.086543
C91   C     C_R   0.685495 0.389047 0.503117 0.021243
C92   C     C_R   0.314112 0.389624 0.496024 0.022560
C93   C     C_R   0.186182 0.890518 0.503860 0.021396
C94   C     C_R   0.816234 0.886124 0.498806 0.040230
C95   C     C_R   0.336022 0.643064 0.409604 0.555358
C96   C     C_R   0.915406 0.144058 0.591941 -0.144839
C97   C     C_R   0.661538 0.643495 0.586147 0.560193
C98   C     C_R   0.835899 0.142972 0.409415 0.554819
C99   C     C_R   0.163826 0.142076 0.589117 0.552910
C100  C     C_R   0.423195 0.613380 0.199347 0.123707
C101  C     C_R   0.576940 0.601587 0.804804 0.108485
C102  C     C_R   0.923267 0.113453 0.199373 0.108455
C103  C     C_R   0.076591 0.113367 0.799882 0.098525
C104  C     C_R   0.667113 0.600577 0.805751 0.628581
C105  C     C_R   0.333945 0.612164 0.201184 0.546033
C106  C     C_R   0.165909 0.110986 0.798342 0.548414
C107  C     C_R   0.084567 0.143798 0.406338 -0.189907
C108  C     C_R   0.833773 0.111548 0.200494 0.546826
C109  C     C_3   0.156792 0.417843 0.319011 -0.313501
C110  C     C_3   0.091301 0.450811 0.297084 -0.917294
C111  C     C_3   0.842315 0.417575 0.676358 -0.321163
C112  C     C_3   0.906835 0.451067 0.696558 -0.940911
C113  C     C_3   0.663228 0.933855 0.348886 -0.305612
C114  C     C_3   0.612092 0.975140 0.358027 -0.912375
C115  C     C_3   0.343403 0.916735 0.679116 -0.315319
C116  C     C_3   0.408727 0.949373 0.701075 -0.908794
C117  C     C_3   0.250447 0.565000 0.924358 -0.278999
C118  C     C_R   0.363281 0.687702 0.503691 0.007559
C119  C     C_3   0.258286 0.546158 0.837248 -1.006450
C120  C     C_3   0.692143 0.776071 0.898176 -0.253387
C121  C     C_3   0.677227 0.854723 0.924390 -0.985929
C122  C     C_3   0.746154 0.063238 0.926006 -0.279965
C123  C     C_3   0.748469 0.039841 0.834319 -0.994595
C124  C     C_3   0.254126 0.068090 0.078872 -0.273072
C125  C     C_3   0.247707 0.048711 0.167708 -1.005944
C126  C     C_3   0.646837 0.486371 0.323549 -0.276737
C127  C     C_3   0.350665 0.484720 0.673975 -0.267188
C128  C     C_3   0.148555 0.988032 0.325468 -0.255387
H1    H     H_    0.297199 0.356215 0.224041 0.112269
H2    H     H_    0.718666 0.314618 0.435408 0.135837
H3    H     H_    0.904419 0.888181 0.033982 0.227357
H4    H     H_    0.979741 0.944982 0.135271 0.280593
H5    H     H_    0.989602 0.862620 0.076374 0.245450
H6    H     H_    0.030784 0.824299 0.264816 0.200019
H7    H     H_    0.958524 0.774512 0.161423 0.164275
H8    H     H_    0.290636 0.757733 0.282208 0.094222
H9    H     H_    0.222863 0.752014 0.299393 0.119110
H10   H     H_    0.205904 0.720010 0.177396 0.185818
H11   H     H_    0.784097 0.684766 0.658547 0.096051
H12   H     H_    0.785313 0.587247 0.706207 0.116896
H13   H     H_    0.781778 0.794925 0.547689 0.114684
H14   H     H_    0.822295 0.667046 0.799372 0.178693
H15   H     H_    0.790943 0.257510 0.281986 0.090591
H16   H     H_    0.722646 0.251989 0.298052 0.120365
H17   H     H_    0.706333 0.219749 0.176648 0.186147
H18   H     H_    0.208176 0.255481 0.714568 0.091119
H19   H     H_    0.276474 0.249100 0.698572 0.119448
H20   H     H_    0.293004 0.216168 0.820537 0.186805
H21   H     H_    0.404145 0.683518 0.009207 0.253175
H22   H     H_    0.477351 0.717872 0.142924 0.297064
H23   H     H_    0.490900 0.654589 0.065878 0.240941
H24   H     H_    0.219275 0.816614 0.435490 0.133931
H25   H     H_    0.504080 0.567591 0.197285 0.204913
H26   H     H_    0.416642 0.553718 0.073925 0.194890
H27   H     H_    0.584050 0.673064 0.983243 0.238228
H28   H     H_    0.520779 0.712660 0.846718 0.281853
H29   H     H_    0.492856 0.653452 0.908299 0.251843
H30   H     H_    0.488731 0.561913 0.791208 0.215963
H31   H     H_    0.572688 0.544670 0.922302 0.183198
H32   H     H_    0.910754 0.190573 0.016571 0.243637
H33   H     H_    0.978952 0.223338 0.154239 0.277063
H34   H     H_    0.000146 0.164779 0.083280 0.254194
H35   H     H_    0.698818 0.209820 0.783589 0.142151
H36   H     H_    0.005617 0.070047 0.199388 0.209411
H37   H     H_    0.918952 0.060025 0.072196 0.191790
H38   H     H_    0.089570 0.190453 0.981317 0.242340
H39   H     H_    0.020402 0.223982 0.842973 0.277837
H40   H     H_    0.000636 0.165917 0.916832 0.255000
H41   H     H_    0.994793 0.071266 0.801939 0.217467
H42   H     H_    0.081769 0.059805 0.928790 0.191522
H43   H     H_    0.731438 0.495757 0.773130 0.146658
H44   H     H_    0.741963 0.479714 0.899425 0.127884
H45   H     H_    0.812939 0.513007 0.904973 0.157552
H46   H     H_    0.298687 0.214561 0.211189 0.143245
H47   H     H_    0.269638 0.507173 0.235451 0.162225
H48   H     H_    0.262616 0.488912 0.113303 0.096831
H49   H     H_    0.189195 0.522993 0.100694 0.152129
H50   H     H_    0.230534 0.005101 0.765338 0.162517
H51   H     H_    0.236547 0.985624 0.886624 0.097020
H52   H     H_    0.310608 0.018190 0.900597 0.153714
H53   H     H_    0.769352 0.008623 0.238154 0.163457
H54   H     H_    0.763960 0.987338 0.118383 0.094620
H55   H     H_    0.689435 0.022113 0.101916 0.155308
H56   H     H_    0.684021 0.692632 0.336659 0.136285
H57   H     H_    0.196502 0.709149 0.782187 0.143743
H58   H     H_    0.666285 0.779052 0.253614 0.147193
H59   H     H_    0.607589 0.699107 0.195294 0.175189
H60   H     H_    0.290410 0.677841 0.623105 0.142169
H61   H     H_    0.306846 0.754063 0.717420 0.144109
H62   H     H_    0.357939 0.666430 0.768715 0.166281
H63   H     H_    0.211499 0.178787 0.373558 0.142998
H64   H     H_    0.193343 0.257074 0.278785 0.143133
H65   H     H_    0.143472 0.169792 0.228059 0.166914
H66   H     H_    0.790594 0.178861 0.624046 0.148707
H67   H     H_    0.807779 0.254833 0.719147 0.132964
H68   H     H_    0.776580 0.730672 0.167230 0.117360
H69   H     H_    0.858783 0.167033 0.769409 0.173066
H70   H     H_    0.313001 0.746581 0.046837 0.124425
H71   H     H_    0.709392 0.608202 0.044215 0.118388
H72   H     H_    0.815310 0.244840 0.043319 0.123295
H73   H     H_    0.701921 0.353038 0.773604 0.114141
H74   H     H_    0.182233 0.247287 0.945776 0.122260
H75   H     H_    0.664848 0.241447 0.939318 0.158246
H76   H     H_    0.333845 0.246848 0.056780 0.154863
H77   H     H_    0.168081 0.744382 0.943970 0.157583
H78   H     H_    0.840457 0.762866 0.053191 0.148213
H79   H     H_    0.734387 0.394665 0.677642 0.117361
H80   H     H_    0.266258 0.395464 0.321877 0.115351
H81   H     H_    0.234432 0.895297 0.678167 0.115739
H82   H     H_    0.766043 0.894407 0.323687 0.116668
H83   H     H_    0.451783 0.664413 0.674401 0.210000
H84   H     H_    0.798173 0.856341 0.224112 0.115067
H85   H     H_    0.552426 0.660869 0.320790 0.219659
H86   H     H_    0.949890 0.163739 0.674214 0.204604
H87   H     H_    0.050545 0.163550 0.323285 0.212228
H88   H     H_    0.051707 0.404753 0.267075 0.263580
H89   H     H_    0.104771 0.475982 0.373489 0.254972
H90   H     H_    0.068111 0.497280 0.233074 0.255111
H91   H     H_    0.192248 0.467317 0.341555 0.207675
H92   H     H_    0.141986 0.391788 0.242214 0.190549
H93   H     H_    0.947267 0.405121 0.727093 0.268855
H94   H     H_    0.892416 0.476991 0.619305 0.255566
H95   H     H_    0.202113 0.853407 0.774123 0.114966
H96   H     H_    0.929372 0.497069 0.759579 0.250331
H97   H     H_    0.805952 0.466794 0.652993 0.185279
H98   H     H_    0.858023 0.390765 0.753965 0.193460
H99   H     H_    0.567222 0.937076 0.329106 0.263977
H100  H     H_    0.638944 0.991560 0.444779 0.255548
H101  H     H_    0.591635 0.028685 0.306134 0.256358
H102  H     H_    0.704239 0.976189 0.371750 0.211154
H103  H     H_    0.635379 0.917100 0.261991 0.192375
H104  H     H_    0.448578 0.902801 0.731023 0.265398
H105  H     H_    0.395118 0.976001 0.624706 0.254641
H106  H     H_    0.693080 0.794169 0.570332 0.140270
H107  H     H_    0.431682 0.994638 0.765150 0.255611
H108  H     H_    0.307656 0.966564 0.656644 0.207972
H109  H     H_    0.358364 0.889160 0.755857 0.192372
H110  H     H_    0.214470 0.572129 0.756382 0.264178
H111  H     H_    0.308682 0.568608 0.862227 0.262828
H112  H     H_    0.257667 0.482235 0.827965 0.258620
H113  H     H_    0.291405 0.531719 0.000151 0.179425
H114  H     H_    0.198841 0.544642 0.896571 0.185591
H115  H     H_    0.640691 0.848035 0.943017 0.265819
H116  H     H_    0.726472 0.881138 0.995622 0.265862
H117  H     H_    0.320237 0.806047 0.444502 0.104291
H118  H     H_    0.652991 0.894605 0.852449 0.263695
H119  H     H_    0.730948 0.783391 0.884363 0.194033
H120  H     H_    0.642651 0.757709 0.818675 0.181620
H121  H     H_    0.703733 0.066108 0.754448 0.266718
H122  H     H_    0.798306 0.058818 0.853892 0.260970
H123  H     H_    0.745166 0.975681 0.826208 0.264715
H124  H     H_    0.788183 0.030162 0.001179 0.182700
H125  H     H_    0.695353 0.045775 0.904069 0.193443
H126  H     H_    0.290500 0.075973 0.246869 0.265659
H127  H     H_    0.196426 0.069412 0.141961 0.261174
H128  H     H_    0.178788 0.303997 0.551579 0.103555
H129  H     H_    0.251343 0.984828 0.180795 0.258706
H130  H     H_    0.214448 0.033589 0.005295 0.180920
H131  H     H_    0.306486 0.049494 0.107176 0.187444
H132  H     H_    0.690060 0.454462 0.334197 0.159564
H133  H     H_    0.667958 0.527361 0.392582 0.139252
H134  H     H_    0.619773 0.521809 0.247008 0.160945
H135  H     H_    0.307090 0.452422 0.660967 0.162282
H136  H     H_    0.330315 0.527745 0.606130 0.149211
H137  H     H_    0.376457 0.517857 0.751026 0.163259
H138  H     H_    0.191247 0.955289 0.335549 0.159558
H139  H     H_    0.819640 0.305564 0.443715 0.103860
H140  H     H_    0.170231 0.028672 0.395029 0.149502
H141  H     H_    0.122033 0.023843 0.249371 0.162079
H142  H     H_    0.863065 0.848602 0.722882 0.130248
H143  H     H_    0.808244 0.937453 0.662666 0.172896
H144  H     H_    0.886856 0.934615 0.801555 0.173261
H145  H     H_    0.593882 0.375883 0.964873 0.223915
H146  H     H_    0.516263 0.432721 0.865479 0.283254
H147  H     H_    0.509688 0.345163 0.920794 0.247888
H148  H     H_    0.470235 0.318906 0.730465 0.197996
H149  H     H_    0.543195 0.266675 0.833210 0.170242
H150  H     H_    0.281105 0.314131 0.563772 0.134961
H151  H     H_    0.403939 0.385450 0.032121 0.226554
H152  H     H_    0.480121 0.441143 0.133616 0.280071
H153  H     H_    0.488968 0.357069 0.076123 0.248421
H154  H     H_    0.528374 0.321594 0.264464 0.201142
H155  H     H_    0.454926 0.272258 0.159851 0.169939
H156  H     H_    0.100368 0.891241 0.968340 0.235557
H157  H     H_    0.021584 0.944953 0.864770 0.283457
H158  H     H_    0.017681 0.863370 0.932730 0.241553
H159  H     H_    0.974152 0.823334 0.744395 0.188324
H160  H     H_    0.049245 0.774673 0.850251 0.171699
N1    N     N_R   0.389060 0.424180 0.294540 -0.062970
N2    N     N_R   0.374530 0.423490 0.443400 -0.068049
N3    N     N_R   0.125470 0.923490 0.556600 -0.067942
N4    N     N_R   0.874530 0.923490 0.443400 -0.068892
N5    N     N_R   0.555250 0.423100 0.705420 -0.061341
N6    N     N_R   0.444750 0.423100 0.294580 -0.060359
N7    N     N_R   0.055250 0.923100 0.705420 -0.059640
N8    N     N_R   0.944750 0.923100 0.294580 -0.058671
N9    N     N_R   0.375210 0.577180 0.443400 -0.102497
N10   N     N_R   0.624790 0.577180 0.556600 -0.106959
N11   N     N_R   0.875210 0.077180 0.443400 -0.103631
N12   N     N_R   0.610940 0.424180 0.705460 -0.064156
N13   N     N_R   0.124790 0.077180 0.556600 -0.102642
N14   N     N_R   0.445430 0.577570 0.294580 -0.100357
N15   N     N_R   0.554570 0.577570 0.705420 -0.106449
N16   N     N_R   0.945430 0.077570 0.294580 -0.102026
N17   N     N_R   0.054570 0.077570 0.705420 -0.103965
N18   N     N_R   0.611620 0.576500 0.705460 -0.124476
N19   N     N_R   0.388380 0.576500 0.294540 -0.129997
N20   N     N_R   0.111620 0.076500 0.705460 -0.131164
N21   N     N_R   0.888380 0.076500 0.294540 -0.132002
N22   N     N_R   0.421010 0.576890 0.556640 -0.082490
N23   N     N_R   0.889060 0.924180 0.294540 -0.064207
N24   N     N_R   0.578990 0.576890 0.443360 -0.080770
N25   N     N_R   0.921010 0.076890 0.556640 -0.073798
N26   N     N_R   0.078990 0.076890 0.443360 -0.080199
N27   N     N_R   0.110940 0.924180 0.705460 -0.063798
N28   N     N_R   0.579670 0.423790 0.443360 -0.093838
N29   N     N_R   0.420330 0.423790 0.556640 -0.095557
N30   N     N_R   0.079670 0.923790 0.443360 -0.094653
N31   N     N_R   0.920330 0.923790 0.556640 -0.091543
N32   N     N_R   0.625470 0.423490 0.556600 -0.066473
Ni1   Ni    Ni4+2 0.383200 0.500680 0.370150 0.194956
Ni2   Ni    Ni4+2 0.616800 0.500680 0.629850 0.191076
Ni3   Ni    Ni4+2 0.883200 0.000680 0.370150 0.193283
Ni4   Ni    Ni4+2 0.116800 0.000680 0.629850 0.191350
Ni5   Ni    Ni4+2 0.512440 0.500680 0.370150 0.206185
Ni6   Ni    Ni4+2 0.487560 0.500680 0.629850 0.207467
Ni7   Ni    Ni4+2 0.012440 0.000680 0.370150 0.205602
Ni8   Ni    Ni4+2 0.987560 0.000680 0.629850 0.219131
O1    O     O_3   0.598306 0.433831 0.310938 -0.639601
O2    O     O_3   0.263687 0.604925 0.151372 -0.602740
O3    O     O_3   0.236207 0.102080 0.848561 -0.603706
O4    O     O_3   0.763526 0.104240 0.150800 -0.604470
O5    O     O_3   0.603138 0.765901 0.299430 -0.629428
O6    O     O_3   0.381504 0.742296 0.694431 -0.631092
O7    O     O_3   0.119609 0.243239 0.303368 -0.631864
O8    O     O_3   0.881665 0.243269 0.694591 -0.636291
O9    O     O_3   0.400340 0.432851 0.687682 -0.643512
O10   O     O_3   0.099160 0.936570 0.312098 -0.642594
O11   O     O_3   0.901530 0.940014 0.686416 -0.632753
O12   O     O_3   0.268364 0.646945 0.310779 -0.601453
O13   O     O_3   0.714957 0.665556 0.691970 -0.602330
O14   O     O_3   0.768353 0.146845 0.310360 -0.600278
O15   O     O_3   0.231361 0.144598 0.688117 -0.601068
O16   O     O_3   0.736877 0.594723 0.851985 -0.581355

loop_
_geom_bond_atom_site_label_1
_geom_bond_atom_site_label_2
_ccdc_geom_bond_type
N29   Ni6   S    
C1    C87   A    
C121  H116  S    
C49   C113  S    
C19   C20   S    
C55   C93   S    
C17   H25   S    
C40   O7    S    
C113  H102  S    
C3    H142  S    
C123  H121  S    
C1    H1    S    
C117  C119  S    
C71   N30   A    
C119  H112  S    
C37   C68   S    
C60   H35   S    
C96   H86   S    
N19   Ni1   S    
C125  H127  S    
C78   H79   S    
N14   Ni5   S    
N10   N24   A    
C114  H99   S    
C23   C103  S    
C46   H139  S    
C103  N17   A    
N17   Ni8   S    
C116  H105  S    
N7    Ni8   S    
C120  H119  S    
C99   N13   A    
C72   C94   A    
C26   H44   S    
C21   C22   S    
C112  H96   S    
C69   N28   A    
C52   C89   A    
C6    H154  S    
C7    H151  S    
C115  H108  S    
N13   N26   A    
C68   H74   S    
C111  H97   S    
C26   O16   S    
C35   C104  A    
C56   H75   S    
C22   H33   S    
N9    Ni1   S    
C35   C66   S    
C106  O3    S    
C60   C76   S    
C32   H63   S    
C110  H88   S    
N15   Ni6   S    
C42   O8    S    
C51   C92   S    
C1    N1    A    
C29   O4    S    
C28   H52   S    
C44   H117  S    
C105  N19   A    
C59   H78   S    
C106  N20   A    
C121  H118  S    
C33   H66   S    
C126  O1    S    
C5    H145  S    
N16   Ni7   S    
C68   C77   D    
C70   O9    S    
C6    C83   S    
C127  H137  S    
C30   O5    S    
C97   N10   A    
C4    C5    S    
C43   H106  S    
C27   H48   S    
N23   Ni3   S    
C119  H110  S    
C57   C61   D    
C6    C7    S    
C71   C93   A    
C25   H38   S    
C27   O2    S    
C9    H157  S    
C74   H83   S    
C76   C122  S    
C30   H59   S    
C24   C107  A    
C38   C43   D    
C109  H92   S    
C95   O12   S    
C116  H107  S    
C63   N27   A    
N26   Ni7   S    
C17   C100  S    
N9    N22   A    
C122  H124  S    
C8    H160  S    
C54   H13   S    
C107  H87   S    
C77   C124  S    
C80   C93   A    
C18   H22   S    
C127  O9    S    
C14   H14   S    
C86   N8    A    
N8    Ni7   S    
C36   C108  A    
N12   Ni2   S    
C111  C112  S    
C122  H125  S    
N4    Ni3   S    
N1    Ni1   S    
C84   N7    A    
C31   H62   S    
C15   O14   S    
C41   N12   A    
C56   C88   S    
C115  C116  S    
C3    H143  S    
C127  H136  S    
C57   H76   S    
C31   O6    S    
C59   C89   S    
C124  H131  S    
C61   C77   S    
C23   H41   S    
C53   C91   S    
C62   C73   S    
C5    H147  S    
C38   O5    S    
N4    N31   A    
C7    H153  S    
N6    Ni5   S    
C116  H104  S    
C32   O7    S    
C84   C90   A    
C98   N11   A    
N2    Ni1   S    
C81   N4    A    
C85   N24   A    
C25   H40   S    
C48   C53   D    
C74   C118  A    
C72   O11   S    
C29   H54   S    
C13   C96   A    
C63   H95   S    
N28   Ni5   S    
C10   H7    S    
C14   O13   S    
C115  H109  S    
C42   C48   S    
C47   C109  S    
C57   C87   S    
C126  H133  S    
N32   Ni2   S    
N27   Ni4   S    
N22   Ni6   S    
C44   C118  S    
N8    N23   A    
C17   C18   S    
C108  O4    S    
C97   O13   S    
N18   Ni2   S    
C99   O15   S    
C15   H15   S    
C21   C102  S    
C14   H12   S    
C12   H10   S    
C120  C121  S    
C52   H84   S    
C64   H68   S    
C121  H115  S    
C10   C86   S    
C19   H30   S    
C61   H46   S    
C32   H65   S    
C39   C44   D    
N5    N12   A    
C81   C94   A    
C119  H111  S    
C22   H32   S    
N3    Ni4   S    
C82   N5    A    
C82   C88   A    
C34   C105  A    
C64   C75   S    
N3    N30   A    
C125  H126  S    
C10   C11   S    
C79   N2    A    
C114  H100  S    
C65   H70   S    
C12   H8    S    
N10   Ni2   S    
C128  H138  S    
C120  H120  S    
C26   H45   S    
C58   C62   D    
C83   C87   A    
C20   H27   S    
C95   N9    A    
C112  H93   S    
C6    H155  S    
C11   H4    S    
C114  H101  S    
C98   O14   S    
C38   C49   S    
C16   H19   S    
C3    O11   S    
C22   H34   S    
C83   N6    A    
C21   H37   S    
C32   H64   S    
C2    C85   A    
C50   C115  S    
C42   C46   D    
C110  H89   S    
C2    C97   A    
C34   C100  A    
C33   O8    S    
C20   H28   S    
C117  H114  S    
C81   H82   S    
C124  H130  S    
C21   H36   S    
C4    H149  S    
C40   C45   D    
C112  H94   S    
C17   H26   S    
C113  H103  S    
N15   N18   A    
N16   N21   A    
C75   C120  S    
C123  H122  S    
C27   H47   S    
C37   C103  A    
C47   C51   D    
C28   O3    S    
N14   N19   A    
N2    N29   A    
C104  N18   A    
C56   C60   D    
C9    H156  S    
C11   H3    S    
C109  H91   S    
C54   C94   S    
N13   Ni4   S    
C128  H140  S    
C58   C90   S    
C26   H43   S    
C67   H72   S    
C20   H29   S    
C41   H73   S    
C7    H152  S    
C12   O12   S    
C113  C114  S    
C41   C88   A    
C8    C84   S    
C111  H98   S    
C70   C92   A    
C27   H49   S    
C35   C101  A    
C86   C89   A    
C16   O15   S    
C31   H61   S    
N1    N6    A    
C58   H77   S    
N28   N32   A    
C71   O10   S    
C19   H31   S    
C109  C110  S    
C66   C75   D    
C127  H135  S    
N30   Ni7   S    
C28   H51   S    
C45   H128  S    
C33   H67   S    
N24   Ni5   S    
C5    H146  S    
C128  O10   S    
C49   C54   D    
C80   H81   S    
C40   C47   S    
C24   C99   A    
C128  H141  S    
C36   C67   S    
C78   N32   A    
C55   H24   S    
C25   H39   S    
C105  O2    S    
C29   H53   S    
C9    H158  S    
C24   C45   S    
C30   H58   S    
C16   H18   S    
C11   H5    S    
C13   C46   S    
C79   H80   S    
C125  H129  S    
C65   C73   D    
C126  H134  S    
C36   C102  A    
C13   C98   A    
C8    H159  S    
C8    C9    S    
C31   H60   S    
C18   H21   S    
C66   H71   S    
N5    Ni6   S    
N21   Ni3   S    
C34   C65   S    
C95   C118  A    
C73   C117  S    
C4    H148  S    
C15   H17   S    
C3    H144  S    
C51   H150  S    
C123  H123  S    
C74   N22   A    
C85   H85   S    
C72   N31   A    
C33   H69   S    
C2    C43   S    
N17   N20   A    
N7    N27   A    
C39   C50   S    
N31   Ni8   S    
C79   C92   A    
C62   H57   S    
C104  O16   S    
C29   H55   S    
C30   H56   S    
C10   H6    S    
C70   N29   A    
N20   Ni4   S    
C80   N3    A    
C69   O1    S    
C67   C76   D    
C78   C91   A    
C50   C55   D    
C52   N23   A    
C126  H132  S    
C16   H20   S    
C37   C106  A    
C69   C91   A    
C19   C101  S    
C107  N26   A    
C23   H42   S    
C108  N21   A    
C63   C90   A    
C23   C25   S    
N25   Ni8   S    
C100  N14   A    
C110  H90   S    
C101  N15   A    
N11   N25   A    
C102  N16   A    
C15   H16   S    
C39   O6    S    
C59   C64   D    
C48   C111  S    
C4    C82   S    
C14   H11   S    
N11   Ni3   S    
C12   H9    S    
C53   H2    S    
C122  C123  S    
C28   H50   S    
C96   N25   A    
C18   H23   S    
C124  C125  S    
C117  H113  S    
