data_mof_unit_52617.cif
_audit_creation_date              2012-12-10T18:05:46-0500
_audit_creation_method            fapswitch 2.2
_symmetry_space_group_name_H-M    P1
_symmetry_Int_Tables_number       1
_space_group_crystal_system       triclinic
_cell_length_a                    10.920974
_cell_length_b                    10.823043
_cell_length_c                    9.634995
_cell_angle_alpha                 89.351789
_cell_angle_beta                  91.062642
_cell_angle_gamma                 91.711352
_cell_volume                      1138.06908973

loop_
_atom_site_label
_atom_site_type_symbol
_atom_type_description
_atom_site_fract_x
_atom_site_fract_y
_atom_site_fract_z
_atom_type_partial_charge
C1    C     C_R   0.499834 0.262433 0.500412 0.801283
C2    C     C_R   0.500166 0.737566 0.499588 0.801281
C3    C     C_R   0.871592 0.497767 0.504262 -0.108255
C4    C     C_R   0.128408 0.502236 0.495737 -0.108255
C5    C     C_R   0.941494 0.478617 0.626756 0.063239
C6    C     C_R   0.058506 0.521388 0.373244 0.063241
C7    C     C_R   0.489966 0.064957 0.374391 -0.137965
C8    C     C_R   0.510034 0.935043 0.625609 -0.137966
C9    C     C_R   0.490102 0.937136 0.373893 -0.125227
C10   C     C_R   0.509898 0.062864 0.626107 -0.125227
C11   C     C_R   0.500198 0.871617 0.499472 -0.059591
C12   C     C_R   0.499802 0.128383 0.500528 -0.059591
C13   C     C_R   0.453124 0.401688 0.075460 -0.065051
C14   C     C_R   0.546876 0.598312 0.924540 -0.065048
C15   C     C_R   0.451073 0.401637 0.928173 0.511827
C16   C     C_R   0.548927 0.598363 0.071827 0.511832
C17   C     C_R   0.262488 0.501206 0.498386 0.802489
C18   C     C_R   0.737511 0.498795 0.501614 0.802489
C19   C     C_R   0.211637 0.667050 0.061218 0.619596
C20   C     C_R   0.788367 0.332950 0.938783 0.619596
C21   C     C_R   0.163593 0.652804 0.194082 -0.131217
C22   C     C_R   0.836411 0.347198 0.805919 -0.131214
C23   C     C_R   0.112024 0.538304 0.235486 -0.028311
C24   C     C_R   0.887976 0.461701 0.764513 -0.028306
C25   C     C_R   0.107892 0.439030 0.143764 -0.209617
C26   C     C_R   0.892105 0.560976 0.856235 -0.209616
C27   C     C_R   0.155353 0.453375 0.011480 0.550299
C28   C     C_R   0.844644 0.546630 0.988520 0.550298
C29   C     C_R   0.207221 0.567547 0.969794 -0.362689
C30   C     C_R   0.792780 0.432455 0.030206 -0.362699
C31   C     C_R   0.931742 0.518567 0.379414 -0.198145
C32   C     C_R   0.068259 0.481438 0.620586 -0.198144
Cu1   Cu    Cu3+1 0.500000 0.500020 0.640660 0.966784
Cu2   Cu    Cu3+1 0.500000 0.499980 0.359340 0.966785
H1    H     H_    0.245397 0.579096 0.867679 0.187824
H2    H     H_    0.754604 0.420905 0.132321 0.187825
H3    H     H_    0.166748 0.730086 0.264605 0.159903
H4    H     H_    0.833260 0.269914 0.735397 0.159904
H5    H     H_    0.067562 0.350585 0.174932 0.184340
H6    H     H_    0.932431 0.649424 0.825066 0.184339
H7    H     H_    0.879776 0.533903 0.285421 0.218270
H8    H     H_    0.120224 0.466103 0.714580 0.218271
H9    H     H_    0.481810 0.113767 0.276014 0.181632
H10   H     H_    0.518190 0.886233 0.723985 0.181632
H11   H     H_    0.481824 0.889969 0.275447 0.215455
H12   H     H_    0.518176 0.110031 0.724553 0.215454
H13   H     H_    0.412787 0.323738 0.131073 0.182851
H14   H     H_    0.587213 0.676261 0.868927 0.182851
N1    N     N_R   0.500030 0.500030 0.852070 -0.277775
N2    N     N_R   0.499970 0.499970 0.147930 -0.277775
O1    O     O_R   0.499990 0.319660 0.618740 -0.574126
O2    O     O_R   0.500010 0.680340 0.381260 -0.574126
O3    O     O_R   0.499990 0.319630 0.381170 -0.590739
O4    O     O_R   0.500010 0.680370 0.618830 -0.590740
O5    O     O_R   0.319650 0.500020 0.618780 -0.610188
O6    O     O_R   0.680350 0.499980 0.381220 -0.610188
O7    O     O_R   0.319640 0.500000 0.381210 -0.574856
O8    O     O_R   0.680360 0.500000 0.618790 -0.574857
O9    O     O_3   0.393976 0.301949 0.865347 -0.670965
H15   H     H_    0.348304 0.334086 0.784089 0.383038
O10   O     O_3   0.606024 0.698051 0.134653 -0.670960
H16   H     H_    0.651695 0.665914 0.215911 0.383039
F1    F     F_    0.262792 0.777118 0.021143 -0.640243
F2    F     F_    0.737216 0.222879 0.978859 -0.640238
F3    F     F_    0.151141 0.355489 0.925106 -0.663880
F4    F     F_    0.848852 0.644517 0.074893 -0.663878

loop_
_geom_bond_atom_site_label_1
_geom_bond_atom_site_label_2
_ccdc_geom_bond_type
C17   O7    A    
C20   F2    S    
Cu2   O7    S    
C28   F4    S    
Cu1   O5    S    
Cu1   O8    S    
C27   F3    S    
C7    H9    S    
C27   C29   A    
C9    C11   A    
C29   H1    S    
C26   C28   A    
C15   O9    S    
C13   C15   A    
C30   H2    S    
C3    C31   A    
C5    C32   A    
C1    O3    A    
C28   C30   A    
C6    C31   A    
O9    H15   S    
C19   F1    S    
C20   C30   A    
C25   H5    S    
Cu2   O6    S    
C18   O6    A    
C1    O1    A    
C24   C26   A    
C26   H6    S    
C7    C12   A    
C5    C24   S    
C2    O2    A    
C3    C18   S    
C8    C11   A    
C2    C11   S    
C10   C12   A    
C4    C6    A    
C19   C21   A    
C20   C22   A    
C9    H11   S    
Cu1   Cu2   S    
C14   C16   A    
C15   N1    A    
C21   C23   A    
C32   H8    S    
O10   H16   S    
C22   C24   A    
Cu2   N2    S    
C14   N1    A    
C25   C27   A    
C16   O10   S    
C4    C17   S    
Cu1   N1    S    
C13   N2    A    
C19   C29   A    
C7    C9    A    
C10   H12   S    
C23   C25   A    
C21   H3    S    
Cu2   O3    S    
C8    C10   A    
C2    O4    A    
C4    C32   A    
Cu1   O4    S    
C13   H13   S    
C17   O5    A    
C14   H14   S    
C31   H7    S    
C6    C23   S    
Cu2   O2    S    
C18   O8    A    
C1    C12   S    
Cu1   O1    S    
C8    H10   S    
C16   N2    A    
C3    C5    A    
C22   H4    S    
