data_mof_unit_30098.cif
_audit_creation_date              2012-12-10T18:59:15-0500
_audit_creation_method            fapswitch 2.2
_symmetry_space_group_name_H-M    P1
_symmetry_Int_Tables_number       1
_space_group_crystal_system       triclinic
_cell_length_a                    10.810301
_cell_length_b                    10.869549
_cell_length_c                    9.577667
_cell_angle_alpha                 90.775516
_cell_angle_beta                  89.457405
_cell_angle_gamma                 88.885695
_cell_volume                      1125.03630929

loop_
_atom_site_label
_atom_site_type_symbol
_atom_type_description
_atom_site_fract_x
_atom_site_fract_y
_atom_site_fract_z
_atom_type_partial_charge
C1    C     C_R   0.500120 0.262631 0.499239 0.840046
C2    C     C_R   0.055651 0.629997 0.485599 0.050674
C3    C     C_R   0.127322 0.518227 0.501906 -0.078416
C4    C     C_R   0.068693 0.405720 0.517561 -0.118390
C5    C     C_R   0.941333 0.399498 0.515984 -0.150536
C6    C     C_R   0.869941 0.505604 0.497714 -0.056705
C7    C     C_R   0.497170 0.066262 0.623884 0.054048
C8    C     C_R   0.494674 0.129765 0.498329 -0.085409
C9    C     C_R   0.480189 0.063143 0.373034 -0.191121
C10   C     C_R   0.482134 0.934755 0.373897 -0.177985
C11   C     C_R   0.497275 0.871498 0.500234 -0.048745
C12   C     C_R   0.262357 0.510130 0.500664 0.783934
C13   C     C_R   0.495992 0.939361 0.625016 0.036083
C14   C     C_3   0.580881 0.932024 0.746517 -0.455023
C15   C     C_3   0.586551 0.071198 0.743090 0.393551
C16   C     C_R   0.602368 0.533731 0.073193 0.217119
C17   C     C_R   0.407153 0.448498 0.076100 -0.088364
C18   C     C_R   0.407493 0.445895 0.928176 0.308524
C19   C     C_R   0.603896 0.531283 0.926272 0.208912
C20   C     C_3   0.672290 0.648994 0.923078 0.058550
C21   C     C_3   0.666825 0.652878 0.081825 -0.489991
C22   C     C_R   0.504286 0.737650 0.500513 0.749588
C23   C     C_R   0.737151 0.495061 0.499262 0.807184
C24   C     C_R   0.105774 0.750554 0.475101 0.128810
C25   C     C_R   0.028711 0.854099 0.459527 -0.038273
C26   C     C_R   0.901751 0.842997 0.453911 -0.162658
C27   C     C_R   0.849994 0.728098 0.465007 -0.162204
C28   C     C_R   0.924696 0.621119 0.481914 0.102107
Cu1   Cu    Cu3+1 0.499990 0.499980 0.640670 1.010765
Cu2   Cu    Cu3+1 0.500010 0.500020 0.359330 0.953427
H1    H     H_    0.122421 0.321350 0.530238 0.159928
H2    H     H_    0.669926 0.883776 0.720209 0.221128
H3    H     H_    0.332324 0.406828 0.133027 0.183261
H4    H     H_    0.617713 0.721782 0.873226 0.135047
H5    H     H_    0.758263 0.643468 0.133110 0.235251
H6    H     H_    0.606372 0.728641 0.124223 0.180980
H7    H     H_    0.068215 0.944648 0.451828 0.160918
H8    H     H_    0.842978 0.923885 0.441728 0.175901
H9    H     H_    0.750565 0.724299 0.460947 0.130736
H10   H     H_    0.898142 0.311169 0.527821 0.179718
H11   H     H_    0.471952 0.109572 0.274102 0.176899
H12   H     H_    0.475241 0.885595 0.275289 0.161972
H13   H     H_    0.531158 0.898958 0.840376 0.180490
N1    N     N_R   0.500790 0.500930 0.147930 -0.211953
N2    N     N_R   0.500790 0.500890 0.852020 -0.241239
O1    O     O_R   0.500000 0.319640 0.618810 -0.553453
O2    O     O_R   0.500010 0.319680 0.381230 -0.585813
O3    O     O_R   0.319640 0.499980 0.618820 -0.520921
O4    O     O_R   0.319650 0.500020 0.381230 -0.594855
O5    O     O_R   0.499990 0.680320 0.618770 -0.585394
O6    O     O_R   0.500000 0.680360 0.381190 -0.598685
O7    O     O_R   0.680350 0.499980 0.618770 -0.530049
O8    O     O_R   0.680360 0.500020 0.381180 -0.586711
N3    N     N_3   0.535453 0.129349 0.870435 -0.550723
H14   H     H_    0.542235 0.224514 0.861048 0.265863
H15   H     H_    0.441470 0.109617 0.880921 0.229589
Br1   Br    Br    0.750441 0.130031 0.695060 -0.531859
Br2   Br    Br    0.279976 0.348500 0.847332 -0.496925
Br3   Br    Br    0.840627 0.627986 0.852954 -0.453442
N4    N     N_3   0.233966 0.773705 0.481478 -0.605983
H16   H     H_    0.275831 0.730548 0.394994 0.237305
H17   H     H_    0.266878 0.740367 0.576082 0.233517

loop_
_geom_bond_atom_site_label_1
_geom_bond_atom_site_label_2
_ccdc_geom_bond_type
C17   C18   A    
Cu2   O6    S    
C19   N2    A    
C16   C21   S    
C21   H5    S    
C26   H8    S    
C6    C28   A    
C10   H12   S    
C1    C8    S    
C15   Br1   S    
C9    C10   A    
C16   N1    A    
C11   C22   S    
C9    H11   S    
C19   C20   S    
C22   O5    A    
Cu1   O1    S    
C24   N4    S    
C20   H4    S    
C7    C15   S    
C12   O4    A    
C23   O7    A    
C17   N1    A    
C7    C8    A    
C21   H6    S    
C13   C14   S    
C20   C21   S    
C20   Br3   S    
C4    C5    A    
C11   C13   A    
Cu2   N1    S    
C26   C27   A    
Cu1   Cu2   S    
C17   H3    S    
N4    H16   S    
C16   C19   A    
C6    C23   S    
C12   O3    A    
C23   O8    A    
C2    C3    A    
Cu1   O5    S    
C2    C24   A    
C5    C6    A    
Cu2   O8    S    
N3    H15   S    
C1    O1    A    
C22   O6    A    
C4    H1    S    
Cu1   N2    S    
C10   C11   A    
Cu1   O3    S    
Cu2   O4    S    
C3    C4    A    
C18   N2    A    
Cu2   O2    S    
C7    C13   A    
C24   C25   A    
N4    H17   S    
C15   N3    S    
C5    H10   S    
C27   H9    S    
C27   C28   A    
N3    H14   S    
C14   H13   S    
C2    C28   A    
C3    C12   S    
C25   H7    S    
C25   C26   A    
C14   C15   S    
C18   Br2   S    
C1    O2    A    
C14   H2    S    
C8    C9    A    
Cu1   O7    S    
