data_mof_unit_12362.cif
_audit_creation_date              2013-03-05T16:19:41-0500
_audit_creation_method            fapswitch 2.2
_symmetry_space_group_name_H-M    P1
_symmetry_Int_Tables_number       1
_space_group_crystal_system       triclinic
_cell_length_a                    10.856927
_cell_length_b                    10.013099
_cell_length_c                    27.70461
_cell_angle_alpha                 89.92722
_cell_angle_beta                  92.219049
_cell_angle_gamma                 90.133783
_cell_volume                      3009.54042905

loop_
_atom_site_label
_atom_site_type_symbol
_atom_site_description
_atom_site_fract_x
_atom_site_fract_y
_atom_site_fract_z
_atom_type_partial_charge
O1    O     O_R   0.314910 0.616040 0.499990 -0.587776
O2    O     O_R   0.314910 0.383960 0.499990 -0.554505
C1    C     C_R   0.257587 0.500142 0.499049 0.962324
O3    O     O_R   0.500140 0.616020 0.428740 -0.603003
O4    O     O_R   0.500140 0.383980 0.428740 -0.550012
C2    C     C_R   0.498713 0.499948 0.406448 0.956473
Zn1   Zn    Zn3+2 0.500150 0.654960 0.499980 1.026581
Zn2   Zn    Zn3+2 0.500150 0.345040 0.499980 1.059606
O5    O     O_R   0.685320 0.616040 0.499970 -0.596203
O6    O     O_R   0.685320 0.383960 0.499970 -0.589408
O7    O     O_R   0.500090 0.616050 0.571230 -0.580126
O8    O     O_R   0.500090 0.383950 0.571230 -0.568504
C3    C     C_R   0.740830 0.500137 0.504194 0.961106
C4    C     C_R   0.494064 0.499217 0.594345 0.973147
C5    C     C_R   0.319332 0.479060 0.179033 0.614016
O9    O     O_2   0.230736 0.422433 0.205037 -0.436714
N1    N     N_R   0.425195 0.522833 0.202192 -0.347229
C6    C     C_R   0.519987 0.576309 0.177553 0.584259
C7    C     C_R   0.529842 0.423455 0.273750 0.077109
C8    C     C_R   0.553142 0.420783 0.324031 0.223485
C9    C     C_R   0.388338 0.581199 0.333504 -0.202417
C10   C     C_R   0.369154 0.589542 0.283827 0.321589
C11   C     C_R   0.439522 0.510191 0.253668 0.168296
C12   C     C_R   0.408931 0.525512 0.102132 -0.131718
C13   C     C_R   0.305041 0.489515 0.128453 -0.106786
C14   C     C_R   0.191481 0.468364 0.103133 0.325040
C15   C     C_R   0.516506 0.574168 0.126821 -0.013356
C16   C     C_R   0.481568 0.500469 0.353896 -0.164362
H1    H     H_    0.329496 0.637771 0.356323 0.252556
C17   C     C_R   0.467423 0.496333 0.647719 -0.190555
C18   C     C_R   0.291448 0.464291 0.974228 0.049768
C19   C     C_R   0.515590 0.509248 0.975997 0.066126
C20   C     C_R   0.402511 0.486359 0.949790 -0.000353
C21   C     C_R   0.185719 0.421795 0.945946 0.031334
C22   C     C_R   0.181975 0.437325 0.895181 0.090044
C23   C     C_R   0.290174 0.471154 0.871387 -0.058405
C24   C     C_R   0.401937 0.482804 0.898703 -0.100916
C25   C     C_R   0.513839 0.490713 0.874826 -0.031034
C26   C     C_R   0.512345 0.492078 0.824508 0.528841
N2    N     N_R   0.402846 0.495037 0.798494 -0.341254
C27   C     C_R   0.292673 0.486097 0.820632 0.584503
C28   C     C_R   0.372502 0.392327 0.718532 0.119515
C29   C     C_R   0.399260 0.390196 0.669034 0.171945
C30   C     C_R   0.504994 0.601893 0.678980 0.253341
C31   C     C_R   0.466735 0.608883 0.726131 -0.178365
C32   C     C_R   0.406286 0.502410 0.746792 0.208516
O10   O     O_2   0.186923 0.492505 0.793543 -0.496902
C33   C     C_R   0.293469 0.478261 0.025744 0.022508
C34   C     C_R   0.405152 0.513117 0.051053 0.057839
C35   C     C_R   0.513012 0.538508 0.025733 0.052131
C36   C     C_R   0.186194 0.470884 0.052866 -0.220843
H2    H     H_    0.095214 0.472836 0.036276 0.193978
O11   O     O_2   0.618003 0.628188 0.202505 -0.487334
C37   C     C_R   0.615852 0.620019 0.099971 0.127610
C38   C     C_R   0.627739 0.496708 0.951545 0.074139
C39   C     C_R   0.625493 0.491247 0.901414 -0.182076
O12   O     O_2   0.619876 0.490690 0.801543 -0.521337
C40   C     C_R   0.612411 0.602921 0.050145 -0.223573
H3    H     H_    0.712391 0.485807 0.883517 0.188971
H4    H     H_    0.498656 0.690176 0.749257 0.192899
H5    H     H_    0.687105 0.646243 0.030755 0.166791
C41   C     C_3   0.076167 0.618464 0.533573 -0.136714
C42   C     C_3   0.070204 0.364589 0.521104 -0.145977
H6    H     H_    0.103391 0.711818 0.516489 0.184992
H7    H     H_    0.083755 0.290037 0.492096 0.188888
C43   C     C_3   0.933164 0.625092 0.532643 0.111432
C44   C     C_3   0.929987 0.369951 0.528725 0.082186
H8    H     H_    0.905329 0.714174 0.510792 0.144253
H9    H     H_    0.890979 0.283503 0.508731 0.128353
H10   H     H_    0.862176 0.583568 0.432225 0.230569
H11   H     H_    0.884312 0.408679 0.434570 0.239997
C45   C     C_3   0.054573 0.523529 0.448827 0.396488
C46   C     C_3   0.119252 0.501202 0.500895 -0.068280
C47   C     C_3   0.876719 0.500281 0.505759 -0.092129
C48   C     C_3   0.913943 0.503792 0.452324 -0.553407
C49   C     C_3   0.373026 0.082166 0.486644 0.262215
C50   C     C_3   0.376249 0.919603 0.481265 0.281162
H12   H     H_    0.533346 0.094799 0.424760 0.205118
H13   H     H_    0.569260 0.881094 0.427956 0.189133
C51   C     C_3   0.579776 0.079017 0.460626 -0.018364
C52   C     C_3   0.591816 0.919551 0.464655 -0.043190
C53   C     C_3   0.542091 0.081289 0.546388 -0.077012
C54   C     C_3   0.528441 0.922581 0.547847 -0.074906
N3    N     N_3   0.499750 0.138610 0.498940 -0.082810
N4    N     N_3   0.499750 0.861390 0.498940 -0.087824
H14   H     H_    0.480678 0.118932 0.573377 0.205310
H15   H     H_    0.450356 0.902984 0.571198 0.145954
N5    N     N_3   0.598332 0.340477 0.242326 -0.407288
H16   H     H_    0.691765 0.364908 0.246668 0.269434
H17   H     H_    0.586437 0.240923 0.252598 0.240086
N6    N     N_3   0.721463 0.683415 0.122688 -0.343042
H18   H     H_    0.730893 0.778471 0.107559 0.194502
H19   H     H_    0.799435 0.627952 0.114589 0.234732
N7    N     N_3   0.743218 0.474822 0.977217 -0.461222
H20   H     H_    0.806315 0.546188 0.965776 0.173387
H21   H     H_    0.775776 0.380636 0.967693 0.196630
Br1   Br    Br    0.640013 0.714950 0.668914 -0.402321
N8    N     N_3   0.138603 0.619173 0.581779 -0.434644
H22   H     H_    0.087881 0.570136 0.607508 0.271182
H23   H     H_    0.147078 0.717917 0.593784 0.211520
N9    N     N_3   0.139633 0.315057 0.563749 -0.366180
H24   H     H_    0.126903 0.372561 0.594139 0.266867
H25   H     H_    0.106383 0.219965 0.572077 0.233227
Br2   Br    Br    0.866649 0.666099 0.595027 -0.438119
Br3   Br    Br    0.878430 0.337599 0.595044 -0.473822
Br4   Br    Br    0.249842 0.715136 0.258654 -0.295435
Br5   Br    Br    0.078462 0.700018 0.420969 -0.431194
Br6   Br    Br    0.111825 0.406278 0.398740 -0.350827
Br7   Br    Br    0.306684 0.167558 0.426862 -0.349573
Br8   Br    Br    0.340353 0.862692 0.413643 -0.387029
N10   N     N_3   0.286629 0.124394 0.523013 -0.383219
H26   H     H_    0.295819 0.070723 0.555047 0.165197
H27   H     H_    0.196722 0.107125 0.509830 0.184304
N11   N     N_3   0.273935 0.858615 0.506170 -0.393151
H28   H     H_    0.276819 0.864006 0.543626 0.140891
H29   H     H_    0.190374 0.897586 0.492600 0.207402
N12   N     N_3   0.663049 0.134916 0.562295 -0.364684
H30   H     H_    0.734834 0.069887 0.555591 0.169612
H31   H     H_    0.665170 0.148293 0.599797 0.237824
N13   N     N_3   0.629060 0.855800 0.574331 -0.317703
H32   H     H_    0.710197 0.854320 0.556382 0.240554
H33   H     H_    0.648082 0.910774 0.605741 0.222803
N14   N     N_3   0.695599 0.151060 0.454688 -0.361438
H34   H     H_    0.740640 0.109640 0.425571 0.214138
H35   H     H_    0.755286 0.141786 0.484298 0.192322
N15   N     N_3   0.717944 0.869133 0.473439 -0.412650
H36   H     H_    0.759764 0.852770 0.440526 0.204989
H37   H     H_    0.775430 0.935879 0.492075 0.154310
Br9   Br    Br    0.035461 0.451645 0.133495 -0.384864
Br10  Br    Br    0.344628 0.234496 0.635300 -0.615209
N16   N     N_3   0.316212 0.280203 0.741453 -0.411748
H38   H     H_    0.229531 0.262922 0.724864 0.256176
H39   H     H_    0.371632 0.196056 0.737333 0.227262
N17   N     N_3   0.069990 0.409669 0.867622 -0.363006
H40   H     H_    0.000496 0.472140 0.879609 0.191166
H41   H     H_    0.044341 0.310225 0.872852 0.188727
N18   N     N_3   0.088364 0.348310 0.967482 -0.463839
H42   H     H_    0.004488 0.395896 0.959536 0.167878
H43   H     H_    0.085191 0.251973 0.952993 0.201507
Br11  Br    Br    0.688137 0.316472 0.350511 -0.483180

loop_
_geom_bond_atom_site_label_1
_geom_bond_atom_site_label_2
_geom_bond_distance
_ccdc_geom_bond_type
C54   H15   1.103225 S    
C38   C39   1.389257 A    
C42   H7    1.111746 S    
C31   H4    1.084437 S    
N9    H24   1.034458 S    
C52   N15   1.471843 S    
C43   H8    1.113177 S    
C7    C8    1.406360 A    
C12   C15   1.416196 A    
C51   N3    1.520905 S    
C49   N3    1.512932 S    
N11   H28   1.038426 S    
C15   C37   1.409402 A    
N14   H34   1.046037 S    
Zn1   N4    2.067182 S    
C31   C32   1.385367 A    
N13   H32   1.028332 S    
Zn1   O7    2.011577 S    
N18   H43   1.045266 S    
N15   H36   1.047489 S    
C23   C24   1.409656 A    
N12   H31   1.047115 S    
O4    C2    1.314369 A    
C51   C52   1.605785 S    
O7    C4    1.335646 A    
H12   C51   1.107959 S    
N14   H35   1.029764 S    
C5    O9    1.347515 S    
C43   C47   1.567040 S    
C5    N1    1.366034 A    
C21   C22   1.413842 A    
C28   C32   1.393057 A    
O5    C3    1.311962 A    
C41   H6    1.092500 S    
C6    O11   1.349647 S    
C41   N8    1.474136 S    
C33   C36   1.412025 A    
C2    C16   1.460622 S    
C22   C23   1.409528 A    
C49   Br7   1.974804 S    
C18   C20   1.422249 A    
C41   C46   1.566890 S    
C28   N16   1.436051 S    
C19   C38   1.421982 A    
C42   N9    1.463318 S    
C40   H5    1.079775 S    
C50   N4    1.526259 S    
N9    H25   1.046169 S    
O1    Zn1   2.047664 S    
C9    C10   1.386407 A    
C17   C30   1.416551 A    
C23   C27   1.415197 A    
N7    H20   1.046113 S    
C4    C17   1.517896 S    
C38   N7    1.434431 S    
C22   N17   1.436970 S    
N13   H33   1.043873 S    
C42   C44   1.546036 S    
C47   C48   1.549925 S    
C41   C43   1.553359 S    
C36   H2    1.073416 S    
C35   C40   1.406892 A    
C43   Br2   1.943469 S    
C12   C13   1.412444 A    
O3    C2    1.316613 A    
C7    N5    1.433899 S    
C26   N2    1.366507 A    
H13   C52   1.106021 S    
C7    C11   1.409220 A    
C44   Br3   1.967574 S    
N17   H41   1.044753 S    
C8    C16   1.406920 A    
O3    Zn1   2.012304 S    
C13   C14   1.410379 A    
C53   H14   1.089134 S    
C9    H1    1.078201 S    
C53   C54   1.596317 S    
C20   C24   1.415616 A    
O1    C1    1.315367 A    
C54   N13   1.455661 S    
N2    C32   1.436114 S    
C24   C25   1.407658 A    
N6    H19   1.045281 S    
C30   Br1   1.879166 S    
C45   Br5   1.948294 S    
Zn2   O8    2.012549 S    
N1    C6    1.364818 A    
C27   O10   1.348713 S    
C18   C21   1.428841 A    
N10   H27   1.043005 S    
C44   C47   1.554103 S    
N1    C11   1.434042 S    
C49   C50   1.635337 S    
N7    H21   1.045660 S    
C19   C35   1.410438 A    
C14   Br9   1.927053 S    
N2    C27   1.367881 A    
C54   N4    1.508929 S    
C9    C16   1.398392 A    
N5    H17   1.045416 S    
N8    H22   1.039564 S    
N8    H23   1.046293 S    
C18   C33   1.433539 A    
C17   C29   1.433333 A    
C28   C29   1.412921 A    
C50   N11   1.462204 S    
N6    H18   1.045925 S    
C30   C31   1.387911 A    
C37   C40   1.390251 A    
C12   C34   1.419720 A    
Zn1   O5    2.048705 S    
C33   C34   1.420043 A    
N15   H37   1.037676 S    
N10   H26   1.038546 S    
Zn2   N3    2.067234 S    
C29   Br10  1.900616 S    
O2    Zn2   2.049451 S    
C6    C15   1.404739 A    
O8    C4    1.323625 A    
C45   C46   1.595419 S    
N16   H39   1.045426 S    
O6    C3    1.312158 A    
O4    Zn2   2.011332 S    
N11   H29   1.044757 S    
N17   H40   1.045435 S    
C42   C46   1.576711 S    
N18   H42   1.044499 S    
C21   N18   1.434809 S    
C53   N3    1.490391 S    
C39   H3    1.084183 S    
C19   C20   1.420208 A    
C8    Br11  1.923315 S    
O2    C1    1.320386 A    
C37   N6    1.433710 S    
C10   Br4   1.918661 S    
C14   C36   1.391770 A    
H11   C48   1.113533 S    
C45   C48   1.545832 S    
C25   C26   1.393563 A    
C49   N10   1.466281 S    
C45   Br6   1.940273 S    
C50   Br8   1.982822 S    
C1    C46   1.504803 S    
C5    C13   1.407674 A    
C25   C39   1.393892 A    
N5    H16   1.045354 S    
Zn2   O6    2.046918 S    
C34   C35   1.410602 A    
H10   C48   1.113895 S    
C10   C11   1.402523 A    
C53   N12   1.469566 S    
C44   H9    1.103087 S    
N12   H30   1.039120 S    
C52   N4    1.519833 S    
N16   H38   1.045362 S    
C3    C47   1.474292 S    
C51   N14   1.462940 S    
C26   O12   1.351123 S    
