data_mof_unit_44805.cif
_audit_creation_date              2012-10-26T18:43:45-0400
_audit_creation_method            fapswitch 2.2
_symmetry_space_group_name_H-M    P1
_symmetry_Int_Tables_number       1
_space_group_crystal_system       triclinic
_cell_length_a                    9.56043
_cell_length_b                    10.872125
_cell_length_c                    17.280638
_cell_angle_alpha                 90.678826
_cell_angle_beta                  84.493594
_cell_angle_gamma                 89.919172
_cell_volume                      1787.76747136

loop_
_atom_site_label
_atom_site_type_symbol
_atom_type_description
_atom_site_fract_x
_atom_site_fract_y
_atom_site_fract_z
_atom_type_partial_charge
Br1   Br    Br    0.161944 0.538808 0.742767 -0.248552
Br2   Br    Br    0.284509 0.362410 0.035509 -0.383969
Br3   Br    Br    0.734966 0.373934 0.907535 -0.295585
C1    C     C_R   0.500091 0.737397 0.500866 0.568429
C2    C     C_R   0.531172 0.504136 0.266544 0.048445
C3    C     C_R   0.386365 0.939631 0.529915 -0.002671
C4    C     C_R   0.479723 0.489221 0.650109 0.632062
C5    C     C_R   0.502105 0.870339 0.500793 0.023604
C6    C     C_R   0.622541 0.934821 0.470125 -0.133051
C7    C     C_R   0.622388 0.064117 0.469382 -0.085378
C8    C     C_R   0.500722 0.130498 0.497667 0.070364
C9    C     C_R   0.383716 0.063656 0.526280 0.005621
C10   C     C_3   0.237628 0.072946 0.565901 0.110474
C11   C     C_3   0.246160 0.930795 0.575111 0.141566
C12   C     C_R   0.337750 0.496011 0.781382 0.171391
C13   C     C_R   0.934578 0.410262 0.461655 0.126693
C14   C     C_R   0.918105 0.584659 0.541980 0.071180
C15   C     C_R   0.067103 0.585847 0.540979 0.064873
C16   C     C_R   0.500139 0.262888 0.499085 0.626629
C17   C     C_R   0.079654 0.403945 0.467438 0.105150
C18   C     C_3   0.109347 0.352590 0.387602 -0.214441
C19   C     C_3   0.956284 0.378398 0.376022 0.112771
C20   C     C_R   0.519555 0.500040 0.350491 0.589163
C21   C     C_R   0.464843 0.466222 0.735243 -0.006378
C22   C     C_R   0.577500 0.413016 0.772560 0.238971
C23   C     C_R   0.538397 0.404824 0.140791 -0.027769
C24   C     C_R   0.572907 0.418540 0.854477 0.177300
C25   C     C_R   0.448849 0.457548 0.898424 -0.034180
C26   C     C_R   0.331754 0.490588 0.861673 -0.080192
C27   C     C_R   0.535714 0.395421 0.221256 0.253055
C28   C     C_R   0.529847 0.619451 0.231381 -0.134063
C29   C     C_R   0.528908 0.627455 0.151196 -0.098792
C30   C     C_R   0.528353 0.520100 0.106102 0.014968
C31   C     C_2   0.435549 0.457396 0.983640 0.173034
C32   C     C_2   0.520889 0.528709 0.022194 -0.070165
Cu1   Cu    Cu3+1 0.359330 0.500020 0.500000 1.102220
Cu2   Cu    Cu3+1 0.640670 0.499980 0.500000 1.118442
H1    H     H_    0.524779 0.716951 0.124588 0.159700
H2    H     H_    0.898744 0.294547 0.360449 0.154792
H3    H     H_    0.526496 0.703056 0.266312 0.143252
H4    H     H_    0.590867 0.593321 0.990402 0.144145
H5    H     H_    0.234864 0.515432 0.896151 0.206646
H6    H     H_    0.545830 0.322424 0.104861 0.195070
H7    H     H_    0.841164 0.165613 0.736535 0.391107
H8    H     H_    0.052464 0.284467 0.616090 0.348272
H9    H     H_    0.375405 0.916094 0.770068 0.380848
H10   H     H_    0.444977 0.133265 0.178582 0.363011
H11   H     H_    0.842246 0.530732 0.204524 0.372066
H12   H     H_    0.716273 0.885866 0.446766 0.157222
H13   H     H_    0.716575 0.111599 0.446331 0.152353
H14   H     H_    0.161972 0.099469 0.523946 0.053223
H15   H     H_    0.169465 0.879254 0.542870 0.065127
H16   H     H_    0.856580 0.654242 0.575090 0.136769
H17   H     H_    0.116943 0.656728 0.572881 0.165116
H18   H     H_    0.188369 0.404139 0.350580 0.235706
H19   H     H_    0.133107 0.252539 0.389126 0.122067
N1    N     N_R   0.852130 0.499070 0.499500 -0.211579
N2    N     N_R   0.148040 0.499110 0.499500 -0.221397
O1    O     O_R   0.381190 0.680360 0.500000 -0.508834
O2    O     O_2   0.835428 0.410688 0.695961 -0.246532
O3    O     O_3   0.772014 0.211125 0.772479 -0.410804
O4    O     O_2   0.125328 0.117070 0.715382 -0.186149
O5    O     O_2   0.361678 0.197422 0.678968 -0.186476
O6    O     O_3   0.149856 0.305392 0.626263 -0.462682
O7    O     O_2   0.124235 0.861057 0.715274 -0.209360
O8    O     O_2   0.329428 0.744399 0.660064 -0.297661
O9    O     O_3   0.373693 0.956804 0.719189 -0.415985
O10   O     O_2   0.663930 0.235701 0.307411 -0.256704
O11   O     O_2   0.407651 0.232132 0.319109 -0.335659
O12   O     O_R   0.618770 0.680320 0.499990 -0.520092
O13   O     O_3   0.541504 0.136386 0.194825 -0.473178
O14   O     O_2   0.877107 0.617105 0.352756 -0.271318
O15   O     O_2   0.082067 0.542233 0.270930 -0.265016
O16   O     O_3   0.840031 0.461270 0.241207 -0.475735
O17   O     O_R   0.367430 0.500040 0.613600 -0.410651
O18   O     O_R   0.605020 0.500000 0.613590 -0.468728
O19   O     O_R   0.381230 0.319680 0.500010 -0.478004
O20   O     O_R   0.618810 0.319640 0.500000 -0.493089
O21   O     O_R   0.394980 0.500000 0.386410 -0.520849
O22   O     O_R   0.632570 0.499960 0.386400 -0.435631
O23   O     O_2   0.663156 0.268585 0.648228 -0.276703
S1    S     S_3+6 0.714873 0.326264 0.719401 0.094165
S2    S     S_3+6 0.220679 0.171867 0.650738 0.104810
S3    S     S_3+6 0.265955 0.870186 0.669919 0.071946
S4    S     S_3+6 0.536801 0.247831 0.263411 0.036470
S5    S     S_3+6 0.941307 0.506130 0.310418 0.053715

loop_
_geom_bond_atom_site_label_1
_geom_bond_atom_site_label_2
_ccdc_geom_bond_type
O4    S2    D    
C4    O17   A    
C26   H5    S    
C11   S3    S    
C1    C5    S    
Cu1   O1    S    
C1    O12   A    
O23   S1    D    
C8    C16   S    
Cu1   Cu2   S    
Cu1   N2    S    
O3    S1    S    
C3    C9    A    
C4    C21   S    
C28   H3    S    
C31   C32   D    
C16   O19   A    
C10   C11   S    
O13   S4    S    
O2    S1    D    
C15   N2    A    
C11   H15   S    
C5    C6    A    
Br1   C12   S    
C29   H1    S    
C20   O22   A    
C6    C7    A    
Br2   C31   S    
C25   C31   S    
O9    S3    S    
C10   H14   S    
Cu2   O12   S    
O10   S4    D    
C23   H6    S    
C12   C26   A    
Cu2   O22   S    
H11   O16   S    
C6    H12   S    
C21   C22   A    
C18   H18   S    
O7    S3    D    
C3    C5    A    
O5    S2    D    
C16   O20   A    
O6    S2    S    
Cu1   O17   S    
C3    C11   S    
C23   C30   A    
C28   C29   A    
C2    C20   S    
C13   C17   A    
C17   C18   S    
C14   C15   A    
O16   S5    S    
C27   S4    S    
H10   O13   S    
C12   C21   A    
Cu2   O18   S    
C23   C27   A    
C22   S1    S    
C17   N2    A    
C7    H13   S    
C14   H16   S    
O11   S4    D    
C2    C27   A    
C25   C26   A    
C13   C19   S    
Cu1   O21   S    
C18   H19   S    
O14   S5    D    
C8    C9    A    
C4    O18   A    
H7    O3    S    
C22   C24   A    
Cu2   O20   S    
C10   S2    S    
H8    O6    S    
Cu1   O19   S    
C29   C30   A    
Br3   C24   S    
H9    O9    S    
C19   H2    S    
C1    O1    A    
C30   C32   S    
C13   N1    A    
C19   S5    S    
C32   H4    S    
O15   S5    D    
C7    C8    A    
C15   H17   S    
O8    S3    D    
C9    C10   S    
C24   C25   A    
C20   O21   A    
C18   C19   S    
Cu2   N1    S    
C14   N1    A    
C2    C28   A    
