data_mof_unit_50158.cif
_audit_creation_date              2012-12-10T18:04:03-0500
_audit_creation_method            fapswitch 2.2
_symmetry_space_group_name_H-M    P1
_symmetry_Int_Tables_number       1
_space_group_crystal_system       triclinic
_cell_length_a                    10.833289
_cell_length_b                    9.543733
_cell_length_c                    10.889684
_cell_angle_alpha                 90.000014
_cell_angle_beta                  90.678332
_cell_angle_gamma                 89.999989
_cell_volume                      1125.80571797

loop_
_atom_site_label
_atom_site_type_symbol
_atom_type_description
_atom_site_fract_x
_atom_site_fract_y
_atom_site_fract_z
_atom_type_partial_charge
C1    C     C_R   0.262139 0.499941 0.499958 0.798071
C2    C     C_R   0.737861 0.499941 0.500042 0.798070
C3    C     C_R   0.404351 0.074703 0.448702 -0.139786
C4    C     C_R   0.595649 0.074702 0.551298 -0.139783
C5    C     C_R   0.403866 0.926492 0.449186 0.634721
C6    C     C_R   0.596134 0.926492 0.550814 0.634726
C7    C     C_R   0.498044 0.499877 0.262650 0.808752
C8    C     C_R   0.501956 0.499877 0.737350 0.808749
C9    C     C_R   0.495576 0.621102 0.061830 -0.075854
C10   C     C_R   0.504426 0.621102 0.938169 -0.075853
C11   C     C_R   0.496296 0.498223 0.129977 -0.074203
C12   C     C_R   0.503703 0.498223 0.870023 -0.074206
C13   C     C_R   0.498815 0.370531 0.064451 -0.185884
C14   C     C_R   0.501182 0.370531 0.935549 -0.185882
C15   C     C_3   0.506273 0.777283 0.929307 0.673396
C16   C     C_3   0.493736 0.777284 0.070694 0.673395
C17   C     C_R   0.063866 0.372515 0.499948 -0.170546
C18   C     C_R   0.936134 0.372515 0.500056 -0.170547
C19   C     C_R   0.871747 0.499862 0.499988 -0.033508
C20   C     C_R   0.128253 0.499862 0.500013 -0.033509
C21   C     C_R   0.936168 0.627134 0.499864 -0.143907
C22   C     C_R   0.063832 0.627134 0.500134 -0.143909
Cu1   Cu    Cu3+1 0.500000 0.640660 0.500000 1.088387
Cu2   Cu    Cu3+1 0.500000 0.359340 0.500000 0.955208
H1    H     H_    0.499038 0.270959 0.112043 0.159459
H2    H     H_    0.500957 0.270959 0.887957 0.159460
H3    H     H_    0.111879 0.272950 0.499874 0.161742
H4    H     H_    0.888121 0.272950 0.500132 0.161741
H5    H     H_    0.888302 0.726712 0.499512 0.210389
H6    H     H_    0.111698 0.726712 0.500482 0.210391
H7    H     H_    0.327861 0.130437 0.406753 0.161743
H8    H     H_    0.672139 0.130437 0.593247 0.161742
N1    N     N_R   0.500000 0.852070 0.500000 -0.235476
N2    N     N_R   0.500000 0.147940 0.500000 -0.217307
O1    O     O_R   0.319640 0.618740 0.499990 -0.522128
O2    O     O_R   0.680360 0.618740 0.500010 -0.522128
O3    O     O_R   0.319620 0.381170 0.499990 -0.601388
O4    O     O_R   0.680380 0.381170 0.500010 -0.601388
O5    O     O_R   0.499990 0.618810 0.319660 -0.539812
O6    O     O_R   0.500010 0.618810 0.680340 -0.539810
O7    O     O_R   0.499960 0.381240 0.319650 -0.591217
O8    O     O_R   0.500040 0.381240 0.680350 -0.591216
N3    N     N_2   0.624043 0.830657 0.887965 -0.411450
H9    H     H_    0.656875 0.781031 0.811053 0.294827
C23   C     C_3   0.633775 0.981702 0.882384 -0.540214
H10   H     H_    0.728440 0.011452 0.854412 0.227402
H11   H     H_    0.615953 0.028685 0.973728 0.234215
H12   H     H_    0.566744 0.024484 0.814194 0.222428
N4    N     N_2   0.375969 0.830665 0.112035 -0.411449
H13   H     H_    0.343133 0.781040 0.188946 0.294827
C24   C     C_3   0.366246 0.981710 0.117618 -0.540214
H14   H     H_    0.271580 0.011467 0.145586 0.227400
H15   H     H_    0.384076 0.028694 0.026275 0.234211
H16   H     H_    0.433276 0.024485 0.185812 0.222428
F1    F     F_    0.405693 0.829061 0.863575 -0.661049
F2    F     F_    0.594319 0.829054 0.136425 -0.661051
F3    F     F_    0.306105 0.859338 0.398210 -0.691600
F4    F     F_    0.693895 0.859338 0.601789 -0.691600

loop_
_geom_bond_atom_site_label_1
_geom_bond_atom_site_label_2
_ccdc_geom_bond_type
Cu2   O4    S    
N3    H9    S    
C16   F2    S    
C18   H4    S    
C1    O3    A    
C9    C11   A    
C9    C10   A    
C6    F4    S    
C6    N1    A    
C5    F3    S    
C8    C12   S    
C24   H16   S    
N4    C24   S    
C23   H11   S    
C17   C18   A    
C12   C14   A    
C15   N3    S    
C22   H6    S    
C13   C14   A    
C14   H2    S    
C3    H7    S    
C7    C11   S    
Cu2   O7    S    
N3    C23   S    
C13   H1    S    
C4    H8    S    
C10   C12   A    
Cu1   O5    S    
C21   C22   A    
C19   C21   A    
C9    C16   S    
C8    O8    A    
Cu2   O3    S    
C24   H15   S    
Cu1   O1    S    
C10   C15   S    
C7    O7    A    
C4    N2    A    
C15   C16   S    
Cu1   Cu2   S    
C24   H14   S    
C17   H3    S    
C5    N1    A    
C11   C13   A    
C17   C20   A    
Cu2   O8    S    
C16   N4    S    
C1    O1    A    
C4    C6    A    
Cu1   O2    S    
C23   H12   S    
C2    O2    A    
N4    H13   S    
C2    O4    A    
C18   C19   A    
C1    C20   S    
C7    O5    A    
C8    O6    A    
C3    N2    A    
Cu1   N1    S    
C2    C19   S    
C23   H10   S    
C21   H5    S    
Cu2   N2    S    
Cu1   O6    S    
C20   C22   A    
C3    C5    A    
C15   F1    S    
