data_mof_unit_36288.cif
_audit_creation_date              2012-12-10T16:50:19-0500
_audit_creation_method            fapswitch 2.2
_symmetry_space_group_name_H-M    P1
_symmetry_Int_Tables_number       1
_space_group_crystal_system       triclinic
_cell_length_a                    23.531946
_cell_length_b                    8.725487
_cell_length_c                    7.462773
_cell_angle_alpha                 103.100341
_cell_angle_beta                  94.807456
_cell_angle_gamma                 93.176649
_cell_volume                      1482.80715132

loop_
_atom_site_label
_atom_site_type_symbol
_atom_type_description
_atom_site_fract_x
_atom_site_fract_y
_atom_site_fract_z
_atom_type_partial_charge
C1    C     C_R   0.496528 0.199954 0.453820 0.783217
C2    C     C_R   0.503445 0.800047 0.546191 0.781579
C3    C     C_R   0.238861 0.560245 0.354326 0.472640
C4    C     C_R   0.752802 0.474762 0.309160 0.475419
C5    C     C_R   0.297850 0.553242 0.361419 -0.191654
C6    C     C_R   0.694190 0.474156 0.322799 -0.206869
C7    C     C_R   0.328316 0.498642 0.501148 -0.330864
C8    C     C_R   0.672082 0.512056 0.495075 -0.336648
C9    C     C_R   0.298437 0.448805 0.637546 0.386825
C10   C     C_R   0.710527 0.552901 0.658355 0.401023
C11   C     C_R   0.239556 0.463722 0.638804 0.456348
C12   C     C_R   0.769246 0.542040 0.647503 0.454232
C13   C     C_R   0.209249 0.516426 0.494574 0.010637
C14   C     C_R   0.790919 0.506671 0.472440 0.002919
C15   C     C_2   0.488655 0.031899 0.432117 0.191442
C16   C     C_2   0.511291 0.968104 0.567943 0.196504
C17   C     C_R   0.390951 0.497412 0.500886 0.821476
C18   C     C_R   0.609205 0.504974 0.499311 0.839989
C19   C     C_R   0.883657 0.649251 0.511391 0.605614
C20   C     C_R   0.115800 0.378376 0.416976 0.598954
C21   C     C_R   0.876009 0.368292 0.408266 0.575086
C22   C     C_R   0.124016 0.656633 0.544771 0.578933
C23   C     C_R   0.935778 0.366309 0.400878 -0.085303
C24   C     C_R   0.063892 0.660680 0.535901 -0.086769
C25   C     C_R   0.969616 0.511795 0.461882 -0.056986
C26   C     C_R   0.029937 0.515898 0.468643 -0.057519
C27   C     C_R   0.943267 0.653527 0.517328 -0.057751
C28   C     C_R   0.056179 0.374557 0.408878 -0.055829
C29   C     C_R   0.963257 0.226007 0.337537 0.289538
C30   C     C_R   0.036211 0.801957 0.591439 0.291502
C31   C     C_R   0.022635 0.232158 0.341931 -0.138953
C32   C     C_R   0.976716 0.796530 0.580068 -0.139048
Cu1   Cu    Cu3+1 0.506340 0.517380 0.684380 1.092480
Cu2   Cu    Cu3+1 0.493660 0.482620 0.315620 1.092874
H1    H     H_    0.042593 0.123479 0.293026 0.225192
H2    H     H_    0.956628 0.905871 0.623474 0.225376
H3    H     H_    0.320024 0.590849 0.255300 0.234300
H4    H     H_    0.665788 0.444959 0.195874 0.238824
N1    N     N_R   0.851629 0.508141 0.461613 -0.491435
N2    N     N_R   0.148129 0.517342 0.485401 -0.494263
N3    N     N_2   0.484110 0.456420 0.038520 0.162346
N4    N     N_2   0.515890 0.543580 0.961480 0.159633
O1    O     O_R   0.504120 0.286130 0.619770 -0.490893
O2    O     O_R   0.495880 0.713870 0.380230 -0.489519
O3    O     O_R   0.493410 0.256770 0.308360 -0.620830
O4    O     O_R   0.506590 0.743230 0.691640 -0.624539
O5    O     O_R   0.423230 0.514630 0.655730 -0.534368
O6    O     O_R   0.576770 0.485370 0.344270 -0.547427
O7    O     O_R   0.412530 0.485280 0.344320 -0.587090
O8    O     O_R   0.587470 0.514720 0.655680 -0.583362
O9    O     O_2   0.857689 0.784841 0.557862 -0.454401
O10   O     O_2   0.141554 0.244159 0.357746 -0.457286
O11   O     O_2   0.842135 0.232964 0.365586 -0.427905
O12   O     O_2   0.158606 0.789063 0.611729 -0.425392
Br1   Br    Br    0.924606 0.020244 0.235520 -0.364552
Br2   Br    Br    0.074517 0.009301 0.684982 -0.369031
O13   O     O_3   0.212106 0.609836 0.207704 -0.645500
H5    H     H_    0.170174 0.601060 0.211251 0.344568
O14   O     O_3   0.770724 0.443346 0.133823 -0.615304
H6    H     H_    0.812697 0.464114 0.141722 0.359100
O15   O     O_3   0.324832 0.380782 0.768748 -0.632157
H7    H     H_    0.354419 0.315831 0.710154 0.341019
O16   O     O_3   0.692473 0.604214 0.831281 -0.619836
H8    H     H_    0.665024 0.684858 0.822166 0.319959
O17   O     O_3   0.212909 0.419480 0.779561 -0.602599
H9    H     H_    0.172837 0.448277 0.775304 0.344277
O18   O     O_3   0.804276 0.572492 0.811747 -0.618957
H10   H     H_    0.842666 0.536543 0.788216 0.329364
O19   O     O_3   0.455406 0.939859 0.278831 -0.710155
H11   H     H_    0.438574 0.008401 0.202508 0.339630
O20   O     O_3   0.544526 0.060136 0.721268 -0.706728
H12   H     H_    0.561409 0.991577 0.797482 0.335276
O21   O     O_3   0.448598 0.345662 0.923008 -0.588983
H13   H     H_    0.428944 0.289271 0.004167 0.342172
O22   O     O_3   0.552758 0.650902 0.076924 -0.584126
H14   H     H_    0.572485 0.707346 0.995992 0.330562

loop_
_geom_bond_atom_site_label_1
_geom_bond_atom_site_label_2
_ccdc_geom_bond_type
C21   O11   S    
C5    H3    S    
N3    N4    D    
C10   O16   S    
C22   O12   S    
C2    O4    A    
C16   O20   S    
N4    O22   S    
C9    O15   S    
Cu1   N4    S    
C32   H2    S    
C24   C26   A    
C20   N2    A    
C19   N1    A    
C15   C16   D    
O21   H13   S    
C13   N2    S    
C14   N1    S    
C1    O1    A    
C2    O2    A    
C7    C17   S    
C6    H4    S    
C1    C15   S    
C2    C16   S    
C3    C13   A    
O14   H6    S    
Cu1   O4    S    
O15   H7    S    
Cu2   N3    S    
C15   O19   S    
C12   O18   S    
O18   H10   S    
Cu1   O1    S    
Cu2   O2    S    
C4    C6    A    
C17   O7    A    
C5    C7    A    
C6    C8    A    
C29   Br1   S    
C25   C26   A    
C30   Br2   S    
C8    C18   S    
O22   H14   S    
C21   N1    A    
C29   C31   A    
C22   N2    A    
Cu1   Cu2   S    
Cu2   O3    S    
C9    C11   A    
C10   C12   A    
C3    O13   S    
C12   C14   A    
C21   C23   A    
Cu1   O5    S    
C22   C24   A    
Cu2   O6    S    
C23   C29   A    
C19   C27   A    
C18   O8    A    
C7    C9    A    
Cu2   O7    S    
C27   C32   A    
C28   C31   A    
C17   O5    A    
C3    C5    A    
C18   O6    A    
C25   C27   A    
C20   C28   A    
C26   C28   A    
Cu1   O8    S    
O20   H12   S    
C20   O10   S    
C30   C32   A    
C11   C13   A    
C1    O3    A    
O13   H5    S    
C4    O14   S    
C31   H1    S    
C23   C25   A    
C4    C14   A    
O19   H11   S    
C24   C30   A    
N3    O21   S    
O16   H8    S    
C19   O9    S    
C8    C10   A    
O17   H9    S    
C11   O17   S    
