data_mof_unit_40632.cif
_audit_creation_date              2012-12-10T16:38:05-0500
_audit_creation_method            fapswitch 2.2
_symmetry_space_group_name_H-M    P1
_symmetry_Int_Tables_number       1
_space_group_crystal_system       triclinic
_cell_length_a                    28.177958
_cell_length_b                    18.33717
_cell_length_c                    16.936013
_cell_angle_alpha                 90.489738
_cell_angle_beta                  61.778013
_cell_angle_gamma                 90.985174
_cell_volume                      7709.47534497

loop_
_atom_site_label
_atom_site_type_symbol
_atom_type_description
_atom_site_fract_x
_atom_site_fract_y
_atom_site_fract_z
_atom_type_partial_charge
Br1   Br    Br    0.180398 0.337232 0.339863 -0.451206
Br2   Br    Br    0.393910 0.690646 0.779230 -0.269392
Br3   Br    Br    0.426840 0.222166 0.789527 -0.329998
Br4   Br    Br    0.587641 0.807020 0.185321 -0.323645
Br5   Br    Br    0.104602 0.806455 0.221695 -0.288287
Br6   Br    Br    0.894786 0.193437 0.778745 -0.346108
Br7   Br    Br    0.908432 0.693580 0.820755 -0.316001
Br8   Br    Br    0.112351 0.204378 0.211330 -0.251991
Br9   Br    Br    0.888683 0.710185 0.556190 -0.181272
Br10  Br    Br    0.926955 0.304868 0.317423 -0.316132
Br11  Br    Br    0.063766 0.694977 0.642478 -0.264320
Br12  Br    Br    0.604848 0.782506 0.459781 -0.172054
Br13  Br    Br    0.434550 0.205949 0.349783 -0.298313
Br14  Br    Br    0.435747 0.799487 0.360996 -0.257580
Br15  Br    Br    0.570093 0.202132 0.663855 -0.271497
Br16  Br    Br    0.603895 0.304204 0.221956 -0.310270
C1    C     C_R   0.700847 0.265566 0.676946 0.932164
C2    C     C_R   0.099206 0.500457 0.501673 -0.005106
C3    C     C_R   0.202662 0.193851 0.898082 -0.010551
C4    C     C_R   0.617635 0.327484 0.047640 -0.176274
C5    C     C_R   0.381139 0.670594 0.953166 -0.180857
C6    C     C_R   0.396667 0.301909 0.947857 -0.179457
C7    C     C_R   0.606379 0.706564 0.048633 -0.179744
C8    C     C_R   0.117962 0.828239 0.047452 -0.177614
C9    C     C_R   0.881453 0.171254 0.952881 -0.178740
C10   C     C_R   0.890008 0.796553 0.954465 -0.180666
C11   C     C_R   0.124181 0.171993 0.040750 -0.177935
C12   C     C_R   0.646465 0.311584 0.093426 0.323143
C13   C     C_R   0.411833 0.003810 0.463517 -0.012308
C14   C     C_R   0.351921 0.685507 0.907836 0.317713
C15   C     C_R   0.374535 0.267947 0.898085 0.363181
C16   C     C_R   0.632782 0.740386 0.092106 0.363299
C17   C     C_R   0.146915 0.812720 0.093106 0.320971
C18   C     C_R   0.852420 0.186677 0.907331 0.321434
C19   C     C_R   0.863556 0.762133 0.911563 0.362950
C20   C     C_R   0.154248 0.184334 0.085454 0.325616
C21   C     C_R   0.739128 0.188987 0.798162 0.600510
C22   C     C_R   0.260406 0.810382 0.201941 0.607977
C23   C     C_R   0.262038 0.181269 0.204089 0.632594
C24   C     C_R   0.580265 0.999647 0.553124 -0.008678
C25   C     C_R   0.769340 0.713126 0.771430 0.608622
C26   C     C_R   0.238791 0.688680 0.798553 0.608472
C27   C     C_R   0.760047 0.309884 0.202228 0.602449
C28   C     C_R   0.726883 0.786981 0.232998 0.600487
C29   C     C_R   0.281171 0.219062 0.756852 0.576121
C30   C     C_R   0.769535 0.175008 0.841936 0.579861
C31   C     C_R   0.229912 0.824180 0.158266 0.587688
C32   C     C_R   0.232256 0.165640 0.159247 0.618467
C33   C     C_R   0.799379 0.737369 0.812481 0.593672
C34   C     C_R   0.268895 0.674269 0.842744 0.582867
C35   C     C_R   0.120002 0.378315 0.441786 0.374615
C36   C     C_R   0.729334 0.323354 0.158861 0.578801
C37   C     C_R   0.697261 0.762928 0.191148 0.593586
C38   C     C_R   0.308906 0.244026 0.801391 0.592372
C39   C     C_R   0.072995 0.102420 0.935992 0.919761
C40   C     C_R   0.930302 0.894439 0.061189 0.907109
C41   C     C_R   0.926884 0.101740 0.064662 0.934081
C42   C     C_R   0.072984 0.898117 0.935412 0.917387
C43   C     C_R   0.568264 0.606700 0.940073 0.903930
C44   C     C_R   0.428730 0.396000 0.063005 0.917031
C45   C     C_R   0.426895 0.601777 0.064683 0.918602
C46   C     C_R   0.919617 0.635096 0.463877 0.383135
C47   C     C_R   0.572944 0.398061 0.935456 0.926506
C48   C     C_R   0.535304 0.134761 0.544728 -0.225512
C49   C     C_R   0.445205 0.872381 0.502678 -0.238962
C50   C     C_R   0.459502 0.136366 0.478112 -0.220721
C51   C     C_R   0.522831 0.871558 0.559578 -0.239973
C52   C     C_R   0.052484 0.631698 0.496561 -0.236415
C53   C     C_R   0.977420 0.370705 0.415525 -0.224537
C54   C     C_R   0.974025 0.633739 0.441606 -0.240314
C55   C     C_R   0.070904 0.372867 0.439016 -0.211361
C56   C     C_R   0.517448 0.201325 0.527696 0.622238
C57   C     C_R   0.931690 0.372968 0.401343 0.361691
C58   C     C_R   0.454265 0.807914 0.536751 0.611398
C59   C     C_R   0.481207 0.202078 0.492529 0.642728
C60   C     C_R   0.490350 0.808743 0.571101 0.614579
C61   C     C_R   0.039144 0.698198 0.472782 0.621236
C62   C     C_R   0.006250 0.306091 0.406932 0.607907
C63   C     C_R   0.003324 0.698419 0.437764 0.618007
C64   C     C_R   0.052831 0.307569 0.417331 0.617524
C65   C     C_R   0.474317 0.070325 0.501536 -0.068757
C66   C     C_R   0.506189 0.938024 0.542605 -0.054327
C67   C     C_R   0.514326 0.069344 0.529708 -0.064925
C68   C     C_R   0.081806 0.627827 0.543610 0.389717
C69   C     C_R   0.466145 0.938696 0.515622 -0.060644
C70   C     C_R   0.994507 0.567221 0.448518 -0.055337
C71   C     C_R   0.040900 0.435923 0.452886 -0.066471
C72   C     C_R   0.035870 0.566559 0.472176 -0.067455
C73   C     C_R   0.995542 0.435669 0.438111 -0.067628
C74   C     C_R   0.970323 0.501737 0.441353 0.121970
C75   C     C_R   0.058005 0.500740 0.477087 0.123549
C76   C     C_R   0.451496 0.004429 0.491970 0.123776
C77   C     C_R   0.533079 0.002401 0.543449 0.122671
C78   C     C_R   0.898642 0.435924 0.426902 -0.102735
C79   C     C_R   0.576753 0.866275 0.540780 0.381160
C80   C     C_R   0.111966 0.564549 0.534931 -0.115518
C81   C     C_R   0.129486 0.437482 0.488060 -0.093563
C82   C     C_R   0.892526 0.569184 0.455371 -0.082073
C83   C     C_R   0.391012 0.936788 0.451316 -0.116652
C84   C     C_R   0.603234 0.065929 0.563604 -0.116293
C85   C     C_R   0.606134 0.931502 0.544885 -0.077183
C86   C     C_R   0.393298 0.069506 0.446978 -0.087508
C87   C     C_R   0.845092 0.435767 0.437786 -0.206388
C88   C     C_R   0.157448 0.564410 0.550349 -0.206937
C89   C     C_R   0.168285 0.437298 0.520048 -0.242526
C90   C     C_R   0.423852 0.134328 0.440536 0.403488
C91   C     C_R   0.841056 0.565859 0.455639 -0.239744
C92   C     C_R   0.343609 0.936050 0.441648 -0.232419
C93   C     C_R   0.654956 0.064708 0.559808 -0.208374
C94   C     C_R   0.657480 0.934045 0.546306 -0.240471
C95   C     C_R   0.344685 0.066997 0.438982 -0.232560
C96   C     C_R   0.821090 0.500915 0.439753 0.552656
C97   C     C_R   0.179445 0.499562 0.555275 0.569620
C98   C     C_R   0.323669 0.000812 0.428526 0.591877
C99   C     C_R   0.677418 0.999165 0.562079 0.553374
C100  C     C_R   0.416891 0.872454 0.454239 0.394007
C101  C     C_R   0.299142 0.734444 0.323049 0.922741
C102  C     C_R   0.573652 0.131160 0.575967 0.382418
C103  C     C_R   0.717604 0.261352 0.957311 -0.065484
C104  C     C_R   0.281353 0.737035 0.043576 -0.063701
C105  C     C_R   0.294013 0.238249 0.034375 -0.063961
C106  C     C_R   0.718590 0.731516 0.956470 -0.057789
C107  C     C_R   0.217644 0.761519 0.957328 -0.065125
C108  C     C_R   0.781364 0.237031 0.043476 -0.065757
C109  C     C_R   0.777740 0.772028 0.047062 -0.057738
C110  C     C_R   0.234401 0.205900 0.942779 -0.060955
C111  C     C_R   0.764064 0.217923 0.915305 -0.163640
C112  C     C_R   0.299818 0.264047 0.322998 0.949499
C113  C     C_R   0.235115 0.780897 0.085311 -0.178704
C114  C     C_R   0.243826 0.201834 0.078962 -0.173357
C115  C     C_R   0.775620 0.742496 0.907010 -0.160285
C116  C     C_R   0.263754 0.717462 0.915730 -0.172824
C117  C     C_R   0.734816 0.280322 0.085574 -0.166668
C118  C     C_R   0.720821 0.760034 0.096578 -0.161846
C119  C     C_R   0.288669 0.231712 0.893909 -0.164510
C120  C     C_R   0.798592 0.210904 0.955096 0.089982
C121  C     C_R   0.200594 0.787998 0.045509 0.084203
C122  C     C_R   0.210886 0.194881 0.036687 0.083616
C123  C     C_R   0.704180 0.724986 0.675166 0.960781
C124  C     C_R   0.805912 0.760093 0.953066 0.071148
C125  C     C_R   0.298276 0.710306 0.955516 0.083340
C126  C     C_R   0.700292 0.287314 0.045763 0.085300
C127  C     C_R   0.690457 0.742864 0.050504 0.072093
C128  C     C_R   0.318932 0.248167 0.940366 0.068307
C129  C     C_R   0.639687 0.317371 0.954189 0.001096
C130  C     C_R   0.359516 0.681461 0.046402 0.002663
C131  C     C_R   0.368582 0.302374 0.042056 -0.007853
C132  C     C_R   0.634205 0.692864 0.956583 -0.002989
C133  C     C_R   0.139844 0.817734 0.954081 0.000261
C134  C     C_R   0.200818 0.765512 0.676967 0.923061
C135  C     C_R   0.859592 0.181606 0.046250 0.002587
C136  C     C_R   0.862269 0.811097 0.046302 -0.002712
C137  C     C_R   0.148209 0.171747 0.946872 -0.005300
C138  C     C_R   0.613942 0.341083 0.903374 -0.247016
C139  C     C_R   0.385724 0.658537 0.096826 -0.243135
C140  C     C_R   0.389738 0.335384 0.095348 -0.244163
C141  C     C_R   0.608417 0.665653 0.907100 -0.236791
C142  C     C_R   0.113978 0.841170 0.903345 -0.244232
C143  C     C_R   0.885583 0.158292 0.096871 -0.250012
C144  C     C_R   0.888634 0.837552 0.095169 -0.235656
C145  C     C_R   0.799023 0.234197 0.323089 0.932980
C146  C     C_R   0.118656 0.153445 0.900211 -0.230416
C147  C     C_R   0.631573 0.316370 0.816617 0.556966
C148  C     C_R   0.368443 0.683875 0.183243 0.551313
C149  C     C_R   0.369961 0.314949 0.184079 0.559189
C150  C     C_R   0.629311 0.683728 0.817596 0.559087
C151  C     C_R   0.131451 0.816157 0.816726 0.550025
C152  C     C_R   0.867929 0.182926 0.183606 0.560470
C153  C     C_R   0.867960 0.819776 0.184384 0.552989
C154  C     C_R   0.137882 0.174043 0.812631 0.542665
C155  C     C_R   0.676585 0.272786 0.775330 -0.173002
C156  C     C_R   0.794814 0.776553 0.325821 0.961589
C157  C     C_R   0.323246 0.727087 0.224694 -0.171314
C158  C     C_R   0.325352 0.268895 0.224881 -0.169447
C159  C     C_R   0.682474 0.706631 0.770588 -0.185878
C160  C     C_R   0.176536 0.772724 0.775391 -0.172320
C161  C     C_R   0.822995 0.226605 0.224835 -0.171061
C162  C     C_R   0.814915 0.796742 0.231747 -0.189940
C163  C     C_R   0.190569 0.198118 0.763731 -0.200480
C164  C     C_R   0.702172 0.246984 0.825834 -0.233895
C165  C     C_R   0.297323 0.752339 0.174451 -0.242982
C166  C     C_R   0.301614 0.237786 0.173374 -0.222832
C167  C     C_R   0.207071 0.221063 0.672264 0.960881
C168  C     C_R   0.713845 0.712006 0.816431 -0.221451
C169  C     C_R   0.202118 0.746982 0.825928 -0.239527
C170  C     C_R   0.797162 0.252061 0.174528 -0.236627
C171  C     C_R   0.782683 0.791657 0.187132 -0.223978
C172  C     C_R   0.225384 0.202702 0.804406 -0.225979
C173  C     C_R   0.690843 0.129355 0.536232 0.909329
C174  C     C_R   0.308705 0.870900 0.464518 0.897984
C175  C     C_R   0.309191 0.129928 0.462412 0.918605
C176  C     C_R   0.692186 0.871262 0.530203 0.947033
C177  C     C_R   0.191127 0.629427 0.535331 0.904818
C178  C     C_R   0.920883 0.502536 0.439198 -0.008424
C179  C     C_R   0.809369 0.370556 0.462766 0.916061
C180  C     C_R   0.807182 0.628651 0.471232 0.955866
C181  C     C_R   0.195757 0.372228 0.520548 0.953753
C182  C     C_R   0.686883 0.276064 0.911933 -0.015530
C183  C     C_R   0.312309 0.722738 0.088695 -0.017049
C184  C     C_R   0.321027 0.260235 0.083737 -0.007087
C185  C     C_R   0.688756 0.713299 0.910057 -0.017747
C186  C     C_R   0.186945 0.776265 0.911915 -0.019644
C187  C     C_R   0.812287 0.222694 0.088626 -0.016758
C188  C     C_R   0.807560 0.790988 0.093327 -0.017463
F1    F     F_    0.078210 0.244043 0.412138 -0.537567
F2    F     F_    0.215117 0.498604 0.588310 -0.583508
F3    F     F_    0.280636 0.999632 0.412555 -0.558592
F4    F     F_    0.721407 0.999374 0.575544 -0.589303
F5    F     F_    0.605087 0.336603 0.770964 -0.593367
F6    F     F_    0.395520 0.664797 0.228355 -0.600514
F7    F     F_    0.393793 0.341863 0.232081 -0.597297
F8    F     F_    0.598841 0.673920 0.775397 -0.611396
F9    F     F_    0.104669 0.835767 0.771316 -0.600429
F10   F     F_    0.894304 0.162423 0.229335 -0.589430
F11   F     F_    0.899056 0.828565 0.225647 -0.611633
F12   F     F_    0.990890 0.762993 0.413772 -0.542047
F13   F     F_    0.104723 0.169388 0.774706 -0.617899
F14   F     F_    0.740459 0.138552 0.738002 -0.570177
F15   F     F_    0.259257 0.861090 0.261698 -0.549608
F16   F     F_    0.256581 0.134361 0.269547 -0.552355
F17   F     F_    0.793343 0.676585 0.693690 -0.626605
F18   F     F_    0.240034 0.638358 0.738345 -0.561593
F19   F     F_    0.758852 0.360711 0.261896 -0.568703
F20   F     F_    0.700852 0.815739 0.315581 -0.621794
F21   F     F_    0.311165 0.207231 0.667568 -0.613582
F22   F     F_    0.798622 0.112902 0.820047 -0.568448
F23   F     F_    0.988420 0.240515 0.392994 -0.537015
F24   F     F_    0.201038 0.886470 0.179753 -0.536677
F25   F     F_    0.197464 0.107785 0.187649 -0.531039
F26   F     F_    0.849114 0.764643 0.757719 -0.567822
F27   F     F_    0.297294 0.611580 0.821689 -0.560227
F28   F     F_    0.699953 0.385201 0.180976 -0.566192
F29   F     F_    0.647974 0.733824 0.245116 -0.565468
F30   F     F_    0.352836 0.286727 0.753359 -0.560526
F31   F     F_    0.061258 0.762113 0.481563 -0.548729
F32   F     F_    0.499239 0.745853 0.603555 -0.544130
F33   F     F_    0.465454 0.267710 0.477449 -0.523557
F34   F     F_    0.428433 0.744674 0.536843 -0.554589
F35   F     F_    0.537811 0.265998 0.538557 -0.538153
F36   F     F_    0.776019 0.500484 0.429330 -0.587789
H1    H     H_    0.575896 0.341304 0.088378 0.206433
H2    H     H_    0.422865 0.656984 0.912000 0.207132
H3    H     H_    0.438747 0.318051 0.913089 0.199258
H4    H     H_    0.562818 0.701810 0.083297 0.189433
H5    H     H_    0.076247 0.842060 0.088351 0.206591
H6    H     H_    0.923207 0.157663 0.911913 0.205036
H7    H     H_    0.933599 0.800621 0.919808 0.190362
H8    H     H_    0.080878 0.167930 0.080835 0.202269
O1    O     O_R   0.746490 0.236330 0.638080 -0.591731
O2    O     O_R   0.325830 0.813840 0.483730 -0.621889
O3    O     O_R   0.325830 0.186160 0.483730 -0.587096
O4    O     O_R   0.674170 0.813840 0.516270 -0.595336
O5    O     O_R   0.174170 0.686160 0.516270 -0.626702
O6    O     O_R   0.825830 0.313840 0.483730 -0.626870
O7    O     O_R   0.825830 0.686160 0.483730 -0.601514
O8    O     O_R   0.174170 0.313840 0.516270 -0.613936
O9    O     O_R   0.739960 0.127620 0.525000 -0.525771
O10   O     O_R   0.260040 0.872380 0.475000 -0.529577
O11   O     O_R   0.260040 0.127620 0.475000 -0.547024
O12   O     O_R   0.253510 0.763670 0.361920 -0.586870
O13   O     O_R   0.739960 0.872380 0.525000 -0.556656
O14   O     O_R   0.239960 0.627620 0.525000 -0.534349
O15   O     O_R   0.760040 0.372380 0.475000 -0.523462
O16   O     O_R   0.760040 0.627620 0.475000 -0.554217
O17   O     O_R   0.239960 0.372380 0.525000 -0.554187
O18   O     O_R   0.680700 0.294870 0.629350 -0.534251
O19   O     O_R   0.319300 0.705130 0.370650 -0.541074
O20   O     O_R   0.319300 0.294870 0.370650 -0.552831
O21   O     O_R   0.680700 0.705130 0.629350 -0.564550
O22   O     O_R   0.180700 0.794870 0.629350 -0.541428
O23   O     O_R   0.253510 0.236330 0.361920 -0.560886
O24   O     O_R   0.819300 0.205130 0.370650 -0.534431
O25   O     O_R   0.819300 0.794870 0.370650 -0.563950
O26   O     O_R   0.180700 0.205130 0.629350 -0.561682
O27   O     O_R   0.062020 0.072840 0.007170 -0.636183
O28   O     O_R   0.937980 0.927160 0.992830 -0.623031
O29   O     O_R   0.937980 0.072840 0.992830 -0.645149
O30   O     O_R   0.062020 0.927160 0.007170 -0.644008
O31   O     O_R   0.562020 0.572840 0.007170 -0.619602
O32   O     O_R   0.437980 0.427160 0.992830 -0.631512
O33   O     O_R   0.437980 0.572840 0.992830 -0.645286
O34   O     O_R   0.746490 0.763670 0.638080 -0.587619
O35   O     O_R   0.562020 0.427160 0.007170 -0.643771
O36   O     O_R   0.947860 0.073950 0.109290 -0.529732
O37   O     O_R   0.052140 0.926050 0.890710 -0.538880
O38   O     O_R   0.052140 0.073950 0.890710 -0.541389
O39   O     O_R   0.947860 0.926050 0.109290 -0.539010
O40   O     O_R   0.447860 0.573950 0.109290 -0.536957
O41   O     O_R   0.552140 0.426050 0.890710 -0.534019
O42   O     O_R   0.552140 0.573950 0.890710 -0.539112
O43   O     O_R   0.447860 0.426050 0.109290 -0.532958
O44   O     O_R   0.246490 0.736330 0.638080 -0.584235
O45   O     O_R   0.753510 0.263670 0.361920 -0.591686
O46   O     O_R   0.753510 0.736330 0.361920 -0.582835
O47   O     O_R   0.246490 0.263670 0.638080 -0.569484
O48   O     O_R   0.674170 0.186160 0.516270 -0.630061
Zn1   Zn    Zn3+2 0.792340 0.208750 0.507670 1.226188
Zn2   Zn    Zn3+2 0.494040 0.500000 0.919480 1.139629
Zn3   Zn    Zn3+2 0.005960 0.000000 0.080520 1.146025
Zn4   Zn    Zn3+2 0.994040 0.000000 0.919480 1.128700
Zn5   Zn    Zn3+2 0.207660 0.791250 0.492330 1.248989
Zn6   Zn    Zn3+2 0.207660 0.208750 0.492330 1.249520
Zn7   Zn    Zn3+2 0.792340 0.791250 0.507670 1.223987
Zn8   Zn    Zn3+2 0.292340 0.708750 0.507670 1.247394
Zn9   Zn    Zn3+2 0.707660 0.291250 0.492330 1.238028
Zn10  Zn    Zn3+2 0.707660 0.708750 0.492330 1.228944
Zn11  Zn    Zn3+2 0.292340 0.291250 0.507670 1.257725
Zn12  Zn    Zn3+2 0.505960 0.500000 0.080520 1.141170

loop_
_geom_bond_atom_site_label_1
_geom_bond_atom_site_label_2
_ccdc_geom_bond_type
C35   C81   A    
C95   C175  S    
C71   C75   A    
O32   Zn2   S    
C91   C96   A    
O17   Zn11  S    
C24   C77   A    
O5    Zn5   S    
C156  O25   A    
C147  F5    S    
C33   C115  A    
C22   C165  A    
O14   Zn8   S    
C108  C117  A    
C2    C75   A    
C70   C72   A    
C67   C77   A    
C174  O2    A    
C48   C102  A    
C46   C54   A    
C115  C124  A    
C150  F8    S    
C118  C127  A    
C28   C37   A    
C31   F24   S    
C17   C121  A    
C5    H2    S    
C88   C177  S    
O8    Zn6   S    
C9    C18   A    
C81   C89   A    
C89   C181  S    
C41   C143  S    
C84   C93   A    
C145  O24   A    
C86   C95   A    
C35   C55   A    
C21   F14   S    
O26   Zn6   S    
C25   C33   A    
C6    H3    S    
O27   Zn3   S    
C142  C151  A    
C61   C63   A    
C4    H1    S    
C13   C83   A    
C180  O16   A    
C111  C120  A    
O15   Zn9   S    
C70   C74   A    
C83   C100  A    
C163  C172  A    
C4    C12   A    
C85   C94   A    
C171  C188  A    
C39   O38   A    
C161  C170  A    
C87   C96   A    
C45   O33   A    
C169  C186  A    
C3    C172  A    
C123  O21   A    
C138  C147  A    
C18   C120  A    
C148  C157  A    
C29   F21   S    
Br3   C15   S    
Br1   C35   S    
Br4   C16   S    
C71   C73   A    
C3    C137  A    
C145  C161  S    
C114  C122  A    
C101  C157  S    
C52   C61   A    
C21   C164  A    
O11   Zn6   S    
C54   C63   A    
C78   C178  A    
O4    Zn10  S    
C36   F28   S    
Br13  C90   S    
O33   Zn2   S    
C24   C84   A    
O46   Zn10  S    
Br11  C68   S    
C66   C69   A    
C7    C132  A    
O36   Zn3   S    
Br15  C102  S    
C5    C130  A    
O6    Zn1   S    
O2    Zn8   S    
C13   C86   A    
O7    Zn7   S    
C164  C182  A    
C10   C19   A    
C44   O43   A    
C113  C121  A    
O3    Zn11  S    
C179  O6    A    
O43   Zn12  S    
O48   Zn9   S    
C109  C188  A    
C107  C116  A    
C103  C182  A    
C134  O44   A    
C174  O10   A    
C61   F31   S    
C105  C114  A    
C158  C166  A    
C83   C92   A    
C180  O7    A    
C117  C126  A    
C14   C125  A    
C58   C60   A    
C31   C113  A    
C106  C185  A    
C89   C97   A    
C62   C64   A    
C27   C36   A    
C104  C183  A    
C98   F3    S    
C152  F10   S    
C33   F26   S    
O40   Zn12  S    
C24   C85   A    
C65   C76   A    
C96   F36   S    
Br5   C17   S    
C40   O28   A    
C175  O3    A    
C25   C168  A    
C133  C142  A    
C9    H6    S    
C99   F4    S    
C51   C79   A    
C105  C128  A    
C92   C174  S    
C8    H5    S    
C106  C127  A    
C56   C59   A    
C53   C73   A    
C91   C180  S    
C65   C67   A    
C69   C76   A    
O22   Zn5   S    
C109  C124  A    
C153  F11   S    
C108  C187  A    
C104  C113  A    
C30   C111  A    
C148  F6    S    
C149  C158  A    
C176  O4    A    
C49   C58   A    
C135  C143  A    
C58   F34   S    
C27   F19   S    
C1    O18   A    
C72   C75   A    
C56   F35   S    
C60   F32   S    
C26   C34   A    
C32   F25   S    
C26   C169  A    
C63   F12   S    
C7    H4    S    
O37   Zn4   S    
C38   F30   S    
C165  C183  A    
C106  C115  A    
O20   Zn11  S    
O35   Zn12  S    
C156  C162  S    
C116  C125  A    
C119  C128  A    
C168  C185  A    
C22   F15   S    
C104  C125  A    
C107  C121  A    
C112  C158  S    
C177  O14   A    
C154  C163  A    
Br2   C14   S    
C10   C136  A    
C73   C74   A    
C129  C182  A    
C38   C119  A    
C1    O1    A    
C112  O23   A    
C170  C187  A    
C132  C141  A    
C181  O17   A    
C23   C166  A    
C28   C171  A    
C88   C97   A    
C151  F9    S    
C159  C168  A    
C26   F18   S    
C133  C186  A    
C79   C85   A    
C103  C111  A    
C109  C118  A    
O47   Zn11  S    
C11   C137  A    
C43   O31   A    
O1    Zn1   S    
O42   Zn2   S    
C167  O47   A    
C131  C184  A    
C160  C169  A    
C156  O46   A    
C150  C159  A    
O39   Zn3   S    
Br10  C57   S    
C152  C161  A    
C45   C139  S    
C62   F23   S    
C82   C178  A    
Br8   C20   S    
C45   O40   A    
C92   C98   A    
C176  O13   A    
C130  C139  A    
C181  O8    A    
C144  C153  A    
C53   C57   A    
C28   F20   S    
C2    C81   A    
C175  O11   A    
C147  C155  A    
C154  F13   S    
C157  C165  A    
C66   C77   A    
C32   C114  A    
O19   Zn8   S    
C87   C179  S    
C57   C78   A    
O28   Zn4   S    
O12   Zn5   S    
C108  C120  A    
C52   C68   A    
C166  C184  A    
C101  O12   A    
C167  O26   A    
C82   C91   A    
Br6   C18   S    
C44   C140  S    
C48   C67   A    
C19   C124  A    
O29   Zn4   S    
O30   Zn3   S    
C74   C178  A    
C112  O20   A    
C131  C140  A    
C101  O19   A    
C34   C116  A    
O34   Zn7   S    
C55   C71   A    
C162  C171  A    
O9    Zn1   S    
C110  C119  A    
C59   F33   S    
C84   C102  A    
C37   F29   S    
C10   H7    S    
C123  O34   A    
C145  O45   A    
C37   C118  A    
C47   C138  S    
C11   C20   A    
O13   Zn7   S    
C5    C14   A    
C3    C110  A    
C39   O27   A    
C8    C17   A    
C9    C135  A    
C137  C146  A    
C7    C16   A    
C11   H8    S    
C50   C65   A    
C43   C141  S    
O31   Zn12  S    
C140  C149  A    
C50   C59   A    
C95   C98   A    
O21   Zn10  S    
C6    C131  A    
C44   O32   A    
C103  C126  A    
C4    C129  A    
C136  C188  A    
O23   Zn6   S    
C129  C138  A    
C21   C30   A    
O18   Zn9   S    
C20   C122  A    
C94   C99   A    
C13   C76   A    
C25   F17   S    
C177  O5    A    
C23   C32   A    
C41   O29   A    
Br16  C12   S    
C134  C160  S    
C136  C144  A    
C2    C80   A    
C123  C159  S    
C47   O35   A    
C105  C184  A    
C43   O42   A    
O41   Zn2   S    
C41   O36   A    
C130  C183  A    
C143  C152  A    
C68   C80   A    
C15   C128  A    
C16   C127  A    
C46   C82   A    
C42   O30   A    
C93   C173  S    
C146  C154  A    
C86   C90   A    
C173  O48   A    
C64   F1    S    
C36   C117  A    
O38   Zn4   S    
C53   C62   A    
C50   C90   A    
C55   C64   A    
C132  C185  A    
C163  C167  S    
O10   Zn5   S    
C6    C15   A    
Br9   C46   S    
C23   F16   S    
C42   C142  S    
C149  F7    S    
C27   C170  A    
C179  O15   A    
O45   Zn9   S    
C30   F22   S    
C34   F27   S    
Br12  C79   S    
C22   C31   A    
C134  O22   A    
C29   C38   A    
C52   C72   A    
C49   C100  A    
C155  C164  A    
C12   C126  A    
C54   C70   A    
C153  C162  A    
O16   Zn10  S    
C110  C122  A    
C107  C186  A    
Br7   C19   S    
O25   Zn7   S    
C39   C146  S    
C135  C187  A    
C141  C150  A    
C78   C87   A    
C1    C155  S    
C29   C172  A    
C49   C69   A    
C139  C148  A    
C173  O9    A    
C97   F2    S    
C80   C88   A    
C40   C144  S    
Br14  C100  S    
C94   C176  S    
O44   Zn8   S    
C40   O39   A    
C48   C56   A    
C8    C133  A    
C93   C99   A    
C51   C66   A    
C47   O41   A    
C51   C60   A    
O24   Zn1   S    
C151  C160  A    
C42   O37   A    
