data_mof_unit_60582.cif
_audit_creation_date              2013-03-05T16:44:31-0500
_audit_creation_method            fapswitch 2.2
_symmetry_space_group_name_H-M    P1
_symmetry_Int_Tables_number       1
_space_group_crystal_system       triclinic
_cell_length_a                    15.517042
_cell_length_b                    19.139528
_cell_length_c                    19.215038
_cell_angle_alpha                 94.613122
_cell_angle_beta                  102.462987
_cell_angle_gamma                 97.089138
_cell_volume                      5495.72531271

loop_
_atom_site_label
_atom_site_type_symbol
_atom_site_description
_atom_site_fract_x
_atom_site_fract_y
_atom_site_fract_z
_atom_type_partial_charge
Zn1   Zn    Zn3+2 0.425320 0.550450 0.550460 0.984533
Zn2   Zn    Zn3+2 0.580410 0.455020 0.567370 1.050553
Zn3   Zn    Zn3+2 0.568940 0.565780 0.453410 1.065033
Zn4   Zn    Zn3+2 0.425330 0.428750 0.428760 1.081207
O1    O     O_3   0.500000 0.500000 0.500000 -0.520336
O2    O     O_R   0.453390 0.335660 0.446330 -0.594939
O3    O     O_R   0.442080 0.649780 0.539130 -0.636428
O4    O     O_R   0.561920 0.473910 0.663190 -0.631436
O5    O     O_R   0.542610 0.540650 0.351350 -0.636115
O6    O     O_R   0.703360 0.489010 0.567610 -0.627176
O7    O     O_R   0.300660 0.429640 0.429680 -0.632053
O8    O     O_R   0.695340 0.566530 0.487850 -0.582825
O9    O     O_R   0.300650 0.514820 0.514850 -0.648975
O10   O     O_R   0.453370 0.540700 0.651360 -0.649972
O11   O     O_R   0.442100 0.444740 0.334100 -0.581101
O12   O     O_R   0.561930 0.354050 0.543340 -0.643344
O13   O     O_R   0.542600 0.660510 0.471200 -0.639816
C1    C     C_R   0.510101 0.311566 0.493132 0.878908
C2    C     C_R   0.490321 0.688166 0.505647 0.825222
C3    C     C_R   0.510010 0.508821 0.691029 0.856489
C4    C     C_R   0.490317 0.490666 0.308639 0.881622
C5    C     C_R   0.741393 0.534193 0.535010 0.970236
C6    C     C_R   0.258159 0.464630 0.467178 0.804201
C7    C     C_R   0.973237 0.560828 0.648519 0.096183
H1    H     H_    0.143018 0.533577 0.678233 0.178805
C8    C     C_R   0.838618 0.546689 0.553505 -0.269825
C9    C     C_R   0.113078 0.414974 0.385883 -0.204433
C10   C     C_R   0.020453 0.404716 0.368244 0.209364
C11   C     C_R   0.973639 0.433660 0.414854 -0.144220
C12   C     C_R   0.018759 0.474024 0.480343 0.087743
C13   C     C_R   0.111854 0.473631 0.502917 0.084852
C14   C     C_R   0.973655 0.510178 0.526469 -0.028422
C15   C     C_R   0.018439 0.531207 0.599607 0.008541
C16   C     C_R   0.107326 0.520916 0.622946 -0.141938
C17   C     C_R   0.153302 0.493504 0.575591 -0.170582
C18   C     C_R   0.885724 0.525929 0.502631 0.179034
C19   C     C_R   0.882167 0.565040 0.626088 0.222954
C20   C     C_R   0.159967 0.449765 0.452878 -0.124375
H2    H     H_    0.148243 0.395308 0.347184 0.208969
H3    H     H_    0.902075 0.420983 0.400254 0.202175
H4    H     H_    0.220403 0.484380 0.598256 0.167559
C21   C     C_R   0.482862 0.763856 0.503465 -0.044005
C22   C     C_R   0.510159 0.799544 0.449181 -0.222461
C23   C     C_R   0.502046 0.870923 0.444928 0.176842
C24   C     C_R   0.468673 0.908412 0.497550 0.267801
C25   C     C_R   0.438980 0.872070 0.550320 -0.176673
C26   C     C_R   0.445918 0.800339 0.553408 -0.184126
C27   C     C_R   0.533805 0.132186 0.554757 0.190550
C28   C     C_R   0.529745 0.204498 0.554578 -0.280540
C29   C     C_R   0.523888 0.089864 0.489660 0.220274
N1    N     N_2   0.462793 0.981777 0.498779 -0.143826
N2    N     N_2   0.530909 0.017101 0.488339 -0.121794
C30   C     C_R   0.515917 0.235449 0.490003 -0.161129
H5    H     H_    0.536686 0.236601 0.605105 0.197823
H6    H     H_    0.411753 0.899912 0.590009 0.182308
H7    H     H_    0.423401 0.773680 0.595280 0.185104
C31   C     C_R   0.507949 0.193120 0.424366 0.271483
C32   C     C_R   0.511653 0.120381 0.425212 -0.238437
H8    H     H_    0.506771 0.087363 0.375617 0.217875
H9    H     H_    0.535823 0.771448 0.408660 0.191957
C33   C     C_R   0.485945 0.487065 0.230641 -0.167374
C34   C     C_R   0.543222 0.537095 0.206191 -0.210184
C35   C     C_R   0.541252 0.536873 0.133616 -0.144704
C36   C     C_R   0.481512 0.486250 0.082891 0.238709
C37   C     C_R   0.423447 0.436120 0.106479 0.096001
C38   C     C_R   0.425486 0.435946 0.180025 0.235051
C39   C     C_R   0.455858 0.543059 0.871664 0.153842
C40   C     C_R   0.449867 0.538791 0.798043 -0.240286
C41   C     C_R   0.529392 0.521345 0.917321 0.162322
N3    N     N_2   0.477893 0.483889 0.008102 -0.105216
N4    N     N_2   0.535984 0.526536 0.991989 -0.115838
C42   C     C_R   0.516628 0.513240 0.768817 -0.103859
H10   H     H_    0.392773 0.555465 0.763714 0.192291
C43   C     C_R   0.590588 0.492819 0.814321 -0.229449
C44   C     C_R   0.598283 0.496869 0.888679 0.262673
H11   H     H_    0.642588 0.473568 0.791779 0.232046
H12   H     H_    0.586731 0.576655 0.117527 0.197229
H13   H     H_    0.590185 0.576982 0.243344 0.214486
N5    N     N_R   0.833253 0.588356 0.676989 0.229255
O14   O     O_R   0.828775 0.553876 0.732066 -0.313008
O15   O     O_R   0.784409 0.638451 0.663807 -0.383109
I1    I     I_    0.557455 0.089659 0.654512 -0.231728
N6    N     N_R   0.500677 0.223161 0.357427 0.240319
O16   O     O_R   0.456651 0.185828 0.297959 -0.297393
O17   O     O_R   0.549155 0.282805 0.354048 -0.343226
I2    I     I_    0.534186 0.914937 0.353932 -0.235688
I3    I     I_    0.353437 0.585532 0.911216 -0.219610
I4    I     I_    0.333460 0.358950 0.030116 -0.067885
N7    N     N_R   0.366317 0.383627 0.202498 0.233923
O18   O     O_R   0.282702 0.390849 0.195791 -0.337350
O19   O     O_R   0.394371 0.326102 0.224525 -0.257927
N8    N     N_R   0.675573 0.475468 0.933731 0.234292
O20   O     O_R   0.747018 0.470168 0.909669 -0.307921
O21   O     O_R   0.674151 0.457551 0.997425 -0.317607
I5    I     I_    0.039935 0.600970 0.756808 -0.125033
N9    N     N_R   0.847277 0.527926 0.427776 0.207288
O22   O     O_R   0.771243 0.489788 0.396668 -0.388794
O23   O     O_R   0.890281 0.566392 0.389846 -0.331963
I6    I     I_    0.950766 0.347127 0.269756 -0.119470

loop_
_geom_bond_atom_site_label_1
_geom_bond_atom_site_label_2
_geom_bond_distance
_ccdc_geom_bond_type
C24   C25   1.400070 A    
O6    C5    1.268557 A    
C19   N5    1.437234 S    
C34   C35   1.387903 A    
C43   H11   1.083044 S    
Zn1   O1    1.955979 S    
C14   C18   1.419970 A    
C10   C11   1.391776 A    
C12   C13   1.416934 A    
C24   N1    1.416968 S    
C9    C20   1.402923 A    
C28   H5    1.083659 S    
O8    C5    1.278581 A    
O9    C6    1.279853 A    
C16   C17   1.381298 A    
C41   N4    1.410681 S    
Zn3   O8    1.927784 S    
C1    C30   1.467931 S    
C33   C38   1.417683 A    
C9    H2    1.083129 S    
N9    O23   1.301321 A    
C25   H6    1.083197 S    
C29   N2    1.408863 S    
C31   N6    1.438765 S    
C41   C44   1.414627 A    
N3    N4    1.246651 D    
C36   N3    1.422845 S    
N7    O19   1.301757 A    
Zn2   O12   1.921611 S    
C4    C33   1.481187 S    
C2    C21   1.470668 S    
H1    C16   1.079606 S    
C27   C29   1.402717 A    
C23   I2    2.127243 S    
C15   C16   1.398776 A    
C38   N7    1.430354 S    
O2    C1    1.273227 A    
C43   C44   1.402849 A    
C39   C40   1.392578 A    
C29   C32   1.397514 A    
O10   C3    1.282086 A    
N5    O14   1.301207 A    
C42   C43   1.402471 A    
C7    I5    2.146661 S    
N5    O15   1.301329 A    
C30   C31   1.416309 A    
C40   H10   1.083159 S    
N1    N2    1.245574 D    
C39   C41   1.409948 A    
C22   C23   1.394574 A    
C11   C12   1.414341 A    
Zn3   O5    1.923037 S    
C18   N9    1.438867 S    
N6    O16   1.301620 A    
C40   C42   1.399874 A    
N9    O22   1.301896 A    
N8    O21   1.301252 A    
C7    C19   1.400006 A    
O4    C3    1.281708 A    
Zn4   O7    1.940559 S    
C22   H9    1.083195 S    
C44   N8    1.444198 S    
C10   I6    2.110119 S    
Zn4   O2    1.924264 S    
C27   C28   1.393433 A    
N6    O17   1.301657 A    
O3    C2    1.289270 A    
C13   C17   1.405302 A    
Zn2   O1    1.928985 S    
Zn1   O9    1.924464 S    
C21   C22   1.402806 A    
Zn2   O6    1.937110 S    
C23   C24   1.416484 A    
C37   I4    2.131269 S    
C35   H12   1.082932 S    
C8    C18   1.401919 A    
C25   C26   1.395281 A    
Zn1   O3    1.923096 S    
C34   H13   1.083501 S    
Zn2   O4    1.936367 S    
Zn4   O1    1.923833 S    
Zn3   O1    1.947583 S    
C8    C19   1.407481 A    
C6    C20   1.475703 S    
C39   I3    2.122507 S    
C7    C15   1.411967 A    
C13   C20   1.419107 A    
C36   C37   1.403807 A    
Zn4   O11   1.934926 S    
C32   H8    1.083226 S    
C14   C15   1.427706 A    
C12   C14   1.429290 A    
O5    C4    1.281345 A    
C31   C32   1.401693 A    
C28   C30   1.404026 A    
C11   H3    1.076463 S    
O7    C6    1.280264 A    
N8    O20   1.301742 A    
O13   C2    1.287537 A    
C27   I1    2.119513 S    
Zn3   O13   1.927360 S    
C21   C26   1.402000 A    
C33   C34   1.403597 A    
C17   H4    1.079667 S    
C35   C36   1.408726 A    
O11   C4    1.279304 A    
O12   C1    1.271302 A    
C37   C38   1.406978 A    
C5    C8    1.457860 S    
C9    C10   1.388715 A    
C3    C42   1.470743 S    
Zn1   O10   1.922817 S    
N7    O18   1.301563 A    
C26   H7    1.083103 S    
