data_mof_unit_29913.cif
_audit_creation_date              2012-12-10T17:13:37-0500
_audit_creation_method            fapswitch 2.2
_symmetry_space_group_name_H-M    P1
_symmetry_Int_Tables_number       1
_space_group_crystal_system       triclinic
_cell_length_a                    10.744283
_cell_length_b                    13.02608
_cell_length_c                    11.745638
_cell_angle_alpha                 99.355876
_cell_angle_beta                  96.094421
_cell_angle_gamma                 91.330489
_cell_volume                      1611.46351415

loop_
_atom_site_label
_atom_site_type_symbol
_atom_type_description
_atom_site_fract_x
_atom_site_fract_y
_atom_site_fract_z
_atom_type_partial_charge
C1    C     C_R   0.494236 0.299256 0.479127 0.858767
C2    C     C_3   0.877621 0.494882 0.497513 0.030697
C3    C     C_3   0.936144 0.606378 0.538899 0.109826
C4    C     C_3   0.912165 0.456035 0.372525 -0.342685
C5    C     C_R   0.467056 0.812782 0.528585 -0.112388
C6    C     C_R   0.472682 0.186759 0.467719 -0.092991
C7    C     C_R   0.384349 0.025774 0.352423 0.248003
C8    C     C_R   0.417292 0.130615 0.362848 -0.164148
C9    C     C_R   0.491381 0.137775 0.564934 -0.225505
C10   C     C_R   0.466865 0.030426 0.555047 0.084995
C11   C     C_R   0.424285 0.970796 0.444401 0.049893
C12   C     C_R   0.259623 0.497366 0.498268 0.828315
C13   C     C_R   0.427469 0.860331 0.430378 -0.056654
C14   C     C_R   0.482440 0.873593 0.638956 -0.241326
C15   C     C_R   0.484541 0.981450 0.653583 0.020900
C16   C     C_R   0.369568 0.414281 0.017817 -0.335030
C17   C     C_R   0.384403 0.418141 0.138919 0.436074
C18   C     C_R   0.556610 0.537538 0.159867 0.027449
C19   C     C_R   0.546536 0.533427 0.036971 -0.005774
C20   C     C_R   0.451365 0.471044 0.965041 -0.023435
C21   C     C_R   0.439819 0.466511 0.842198 -0.005454
C22   C     C_R   0.620367 0.578498 0.861386 0.114953
C23   C     C_R   0.490113 0.700248 0.519822 0.830368
C24   C     C_R   0.628822 0.590227 0.984633 0.086166
C25   C     C_R   0.739958 0.496448 0.500153 0.819018
C26   C     C_3   0.078619 0.419863 0.577683 0.113753
C27   C     C_3   0.934614 0.418488 0.575416 -0.462135
C28   C     C_3   0.080035 0.605364 0.542139 -0.471318
C29   C     C_3   0.054956 0.458526 0.371872 -0.316664
C30   C     C_3   0.121376 0.494408 0.496511 0.036255
Cu1   Cu    Cu3+1 0.509350 0.507730 0.615930 0.950921
Cu2   Cu    Cu3+1 0.490650 0.492270 0.384070 0.991567
H1    H     H_    0.120222 0.449037 0.668457 0.128000
H2    H     H_    0.871110 0.504833 0.309810 0.229060
H3    H     H_    0.113896 0.661186 0.489249 0.198485
H4    H     H_    0.492971 0.837172 0.715309 0.156838
H5    H     H_    0.392251 0.169569 0.289900 0.216931
H6    H     H_    0.528403 0.183183 0.647715 0.170873
H7    H     H_    0.365511 0.418418 0.788207 0.154267
H8    H     H_    0.294576 0.365968 0.965025 0.164933
H9    H     H_    0.627562 0.586190 0.216952 0.203977
H10   H     H_    0.893404 0.338699 0.542386 0.210409
H11   H     H_    0.910310 0.439281 0.665117 0.161991
H12   H     H_    0.123346 0.631837 0.632905 0.151191
H13   H     H_    0.910915 0.633964 0.626191 0.152895
H14   H     H_    0.082063 0.512011 0.312920 0.192462
H15   H     H_    0.082971 0.379254 0.337126 0.250144
H16   H     H_    0.873353 0.375155 0.341126 0.178411
N1    N     N_R   0.523430 0.519360 0.790130 -0.212600
N2    N     N_R   0.476570 0.480640 0.209880 -0.211556
O1    O     O_R   0.506640 0.354460 0.582000 -0.582059
O2    O     O_R   0.490840 0.341410 0.386200 -0.563335
O3    O     O_R   0.325590 0.506510 0.597900 -0.599933
O4    O     O_R   0.309790 0.493450 0.402100 -0.558516
O5    O     O_R   0.509160 0.658590 0.613800 -0.593940
O6    O     O_R   0.493360 0.645540 0.418000 -0.570254
O7    O     O_R   0.690210 0.506550 0.597900 -0.594477
O8    O     O_R   0.674410 0.493490 0.402100 -0.578118
Br1   Br    Br    0.867876 0.708158 0.445816 -0.509412
C31   C     C_R   0.394226 0.796244 0.313913 0.134606
C32   C     C_R   0.283149 0.733684 0.291066 -0.039387
C33   C     C_R   0.243898 0.682442 0.178457 -0.074600
C34   C     C_R   0.313810 0.695048 0.087595 -0.110105
C35   C     C_R   0.425327 0.755970 0.109904 -0.093144
C36   C     C_R   0.467555 0.804091 0.223178 -0.073673
H17   H     H_    0.225603 0.727267 0.359766 0.114353
H18   H     H_    0.157818 0.634981 0.161168 0.148852
H19   H     H_    0.281837 0.657379 0.999941 0.125876
H20   H     H_    0.478739 0.766319 0.039239 0.154934
H21   H     H_    0.553341 0.852012 0.239163 0.163284
Br2   Br    Br    0.262100 0.975949 0.221415 -0.475532
C37   C     C_R   0.498380 0.039926 0.773722 0.082204
C38   C     C_R   0.397850 0.095484 0.816076 -0.146289
C39   C     C_R   0.406717 0.143991 0.932037 -0.100731
C40   C     C_R   0.516524 0.139007 0.005900 -0.079282
C41   C     C_R   0.617285 0.084369 0.964074 -0.123682
C42   C     C_R   0.608062 0.034310 0.848545 -0.151982
H22   H     H_    0.311784 0.099106 0.760012 0.163774
H23   H     H_    0.327769 0.184245 0.964898 0.169716
H24   H     H_    0.523152 0.176831 0.095626 0.147254
H25   H     H_    0.702077 0.079994 0.021422 0.154521
H26   H     H_    0.685919 0.991125 0.817371 0.131689
Br3   Br    Br    0.137070 0.278595 0.538801 -0.532191
C43   C     C_R   0.730158 0.623069 0.817881 0.201147
C44   C     C_R   0.844828 0.574499 0.835891 -0.137821
C45   C     C_R   0.958991 0.630688 0.844434 -0.161753
C46   C     C_R   0.960189 0.735555 0.832053 -0.083586
C47   C     C_R   0.847302 0.783693 0.809978 -0.097783
C48   C     C_R   0.733061 0.728356 0.805224 -0.097526
H27   H     H_    0.845430 0.495492 0.853819 0.133005
H28   H     H_    0.046255 0.593236 0.861818 0.129062
H29   H     H_    0.048396 0.779135 0.838688 0.144687
H30   H     H_    0.848445 0.865238 0.801998 0.137867
H31   H     H_    0.648021 0.770102 0.803930 0.117614
Br4   Br    Br    0.755998 0.683995 0.081941 -0.539435
Br5   Br    Br    0.271579 0.329176 0.195891 -0.565025

loop_
_geom_bond_atom_site_label_1
_geom_bond_atom_site_label_2
_ccdc_geom_bond_type
C46   C47   A    
C26   Br3   S    
C38   C39   A    
C19   C20   A    
Cu2   O8    S    
C6    C9    A    
C21   N1    A    
C7    C8    A    
C13   C31   S    
C44   C45   A    
C7    C11   A    
C15   C37   S    
C26   C27   S    
C37   C42   A    
C33   H18   S    
C29   H15   S    
C3    C28   S    
C45   H28   S    
C14   H4    S    
C36   H21   S    
C18   C19   A    
C48   H31   S    
Cu2   O2    S    
C34   H19   S    
C32   H17   S    
C28   H3    S    
C16   C17   A    
C21   H7    S    
C38   H22   S    
C2    C27   S    
C9    C10   A    
C5    C13   A    
C4    C29   S    
C43   C48   A    
C46   H29   S    
C25   O7    A    
Cu1   N1    S    
Cu2   O4    S    
C4    H2    S    
C39   C40   A    
C1    C6    S    
C23   O6    A    
C41   C42   A    
C24   Br4   S    
C45   C46   A    
C6    C8    A    
C28   H12   S    
Cu1   O3    S    
C31   C32   A    
C22   C43   S    
C41   H25   S    
C2    C4    S    
C40   C41   A    
C29   C30   S    
C26   H1    S    
Cu1   Cu2   S    
C5    C23   S    
C16   C20   A    
C20   C21   A    
C33   C34   A    
C17   Br5   S    
C35   H20   S    
C43   C44   A    
C1    O1    A    
Cu2   N2    S    
C5    C14   A    
C16   H8    S    
C22   N1    A    
C31   C36   A    
C26   C30   S    
C39   H23   S    
C22   C24   A    
C18   H9    S    
C8    H5    S    
C18   N2    A    
C4    H16   S    
C47   H30   S    
C12   C30   S    
C12   O3    A    
Cu1   O1    S    
C37   C38   A    
C17   N2    A    
C44   H27   S    
C23   O5    A    
C29   H14   S    
C10   C15   A    
C35   C36   A    
Cu1   O7    S    
C28   C30   S    
C2    C3    S    
C7    Br2   S    
C11   C13   A    
C27   H10   S    
C42   H26   S    
C9    H6    S    
C3    H13   S    
C19   C24   A    
C2    C25   S    
C32   C33   A    
C1    O2    A    
C10   C11   A    
C34   C35   A    
C27   H11   S    
C40   H24   S    
C47   C48   A    
C25   O8    A    
C14   C15   A    
Cu1   O5    S    
Cu2   O6    S    
C12   O4    A    
C3    Br1   S    
