data_mof_unit_26797.cif
_audit_creation_date              2012-12-11T14:17:44-0500
_audit_creation_method            fapswitch 2.2
_symmetry_space_group_name_H-M    P1
_symmetry_Int_Tables_number       1
_space_group_crystal_system       triclinic
_cell_length_a                    6.945834
_cell_length_b                    13.63249
_cell_length_c                    20.507176
_cell_angle_alpha                 102.443388
_cell_angle_beta                  89.769804
_cell_angle_gamma                 90.617943
_cell_volume                      1896.07694046

loop_
_atom_site_label
_atom_site_type_symbol
_atom_type_description
_atom_site_fract_x
_atom_site_fract_y
_atom_site_fract_z
_atom_type_partial_charge
O1    O     O_R   0.506860 0.599390 0.449240 -0.543169
O2    O     O_R   0.180220 0.594600 0.586780 -0.502436
O3    O     O_R   0.004500 0.400610 0.550760 -0.537019
C1    C     C_R   0.347518 0.613527 0.614406 0.809262
O4    O     O_R   0.177490 0.611290 0.451970 -0.543389
O5    O     O_R   0.001750 0.417420 0.414990 -0.547754
C2    C     C_R   0.346952 0.637725 0.435334 0.686420
O6    O     O_R   0.509610 0.582580 0.585010 -0.527137
O7    O     O_3   0.337420 0.436370 0.488020 -0.389812
V1    V     V_3+5 0.064680 0.511800 0.502220 1.532532
O8    O     O_R   0.671710 0.405400 0.413220 -0.552469
C3    C     C_R   0.839924 0.384335 0.386467 0.717062
O9    O     O_R   0.674440 0.388710 0.548030 -0.545094
C4    C     C_R   0.842382 0.362236 0.564630 0.722251
V2    V     V_3+5 0.564010 0.488200 0.497780 1.479008
O10   O     O_3   0.841140 0.563630 0.511980 -0.349401
C5    C     C_R   0.829888 0.108200 0.605725 -0.071756
H1    H     H_    0.819031 0.163235 0.515553 0.105896
H2    H     H_    0.818367 0.031642 0.577557 0.174464
C6    C     C_R   0.847768 0.283207 0.602442 -0.043662
C7    C     C_R   0.870135 0.308670 0.923096 -0.224665
C8    C     C_R   0.866854 0.383977 0.887565 0.337647
C9    C     C_R   0.860269 0.359820 0.818322 -0.136071
C10   C     C_R   0.858313 0.258498 0.782038 -0.020360
C11   C     C_R   0.858866 0.179797 0.818521 -0.071931
C12   C     C_R   0.853973 0.234151 0.710657 0.031446
C13   C     C_R   0.841872 0.131899 0.676172 -0.014195
C14   C     C_R   0.842151 0.054886 0.711944 0.341171
C15   C     C_R   0.853157 0.077628 0.781981 0.281193
C16   C     C_R   0.860870 0.308698 0.671898 -0.155216
C17   C     C_R   0.830844 0.183234 0.569486 -0.200628
C18   C     C_R   0.865277 0.207728 0.890147 -0.090954
H3    H     H_    0.875531 0.387631 0.693499 0.134272
H4    H     H_    0.875720 0.329117 0.977181 0.125786
H5    H     H_    0.854785 0.423082 0.794940 0.160297
C19   C     C_2   0.004647 0.292429 0.283590 -0.131668
C20   C     C_2   0.842305 0.316565 0.319504 -0.303482
H6    H     H_    0.141375 0.323009 0.304664 0.138040
H7    H     H_    0.703933 0.287286 0.299800 0.137951
C21   C     C_2   0.012555 0.225572 0.215571 -0.114664
C22   C     C_2   0.857969 0.183126 0.180426 -0.275772
H8    H     H_    0.154815 0.211645 0.193649 0.181177
H9    H     H_    0.714135 0.196919 0.200558 0.163273
C23   C     C_2   0.206067 0.771219 0.790440 -0.098040
C24   C     C_2   0.365837 0.815115 0.820348 -0.323664
H10   H     H_    0.069756 0.786082 0.816625 0.219486
H11   H     H_    0.505634 0.798068 0.797380 0.190127
C25   C     C_2   0.201511 0.698878 0.724523 0.430451
C26   C     C_2   0.354380 0.681149 0.681688 -0.337745
H12   H     H_    0.491467 0.718193 0.695330 0.165737
C27   C     C_R   0.387114 0.889894 0.391703 -0.134147
H13   H     H_    0.384508 0.837150 0.482922 0.129176
H14   H     H_    0.399879 0.017337 0.312841 0.159444
H15   H     H_    0.401559 0.967728 0.417758 0.117345
C28   C     C_R   0.358128 0.715517 0.396574 -0.035143
C29   C     C_R   0.338325 0.690060 0.075148 -0.134233
C30   C     C_R   0.327957 0.614433 0.110441 -0.070601
C31   C     C_R   0.334905 0.637403 0.179703 -0.143341
C32   C     C_R   0.352076 0.738065 0.216192 0.036261
C33   C     C_R   0.362258 0.817126 0.179921 -0.009619
C34   C     C_R   0.359553 0.762031 0.287614 0.075112
C35   C     C_R   0.378057 0.863861 0.321666 0.067596
C36   C     C_R   0.386859 0.939677 0.286107 -0.212681
C37   C     C_R   0.378506 0.918547 0.216811 0.321806
C38   C     C_R   0.349245 0.688431 0.326895 -0.195568
C39   C     C_R   0.377442 0.816018 0.428927 -0.148972
C40   C     C_R   0.355618 0.790510 0.108501 -0.086241
H16   H     H_    0.334125 0.609394 0.305464 0.088634
H17   H     H_    0.332981 0.670019 0.021057 0.138025
H18   H     H_    0.326600 0.573868 0.202911 0.105369
H19   H     H_    0.314689 0.536926 0.083809 0.136777
O11   O     O_R   0.203230 0.917310 0.915020 -0.526691
O12   O     O_R   0.535500 0.888690 0.048040 -0.533736
O13   O     O_R   0.711080 0.082610 0.085000 -0.525088
C41   C     C_R   0.366315 0.863933 0.066134 0.788850
O14   O     O_R   0.532630 0.905370 0.913230 -0.522320
O15   O     O_R   0.708190 0.099410 0.949230 -0.535617
C42   C     C_R   0.364916 0.883774 0.886750 0.797705
O16   O     O_R   0.206120 0.900510 0.050790 -0.532890
O17   O     O_3   0.375360 0.063570 0.011990 -0.373853
V3    V     V_3+5 0.648170 0.988200 0.997780 1.585736
O18   O     O_R   0.038240 0.111390 0.951940 -0.543474
C43   C     C_R   0.870534 0.135605 0.933510 0.782451
O19   O     O_R   0.041120 0.094710 0.086750 -0.532103
C44   C     C_R   0.872268 0.115973 0.113431 0.762891
V4    V     V_3+5 0.148810 0.011930 0.002180 1.557058
O20   O     O_3   0.871750 0.936430 0.988010 -0.360496
Cl1   Cl    Cl    0.978263 0.635177 0.706627 -0.624567
Cl2   Cl    Cl    0.830292 0.926823 0.668816 -0.592777
Cl3   Cl    Cl    0.388039 0.026537 0.182511 -0.713931
Br1   Br    Br    0.871138 0.521619 0.934141 -0.565956
Cl4   Cl    Cl    0.859692 0.972426 0.819750 -0.608987

loop_
_geom_bond_atom_site_label_1
_geom_bond_atom_site_label_2
_ccdc_geom_bond_type
O12   C41   A    
C2    C28   S    
C1    O6    A    
C6    C16   A    
C12   C13   A    
C14   C15   A    
C10   C12   A    
O5    C3    A    
O15   C43   A    
V2    O10   S    
C29   C30   A    
C3    C20   S    
O11   C42   A    
O8    V2    S    
C33   C40   A    
O17   V4    S    
C8    Br1   S    
C25   Cl1   S    
C24   C42   S    
O1    V2    S    
C37   Cl3   S    
O7    V1    S    
C11   C18   A    
C21   H8    S    
C32   C33   A    
O9    C4    A    
C22   H9    S    
C27   C35   A    
O12   V3    S    
C28   C38   A    
C23   H10   S    
C24   H11   S    
C11   C15   A    
C7    C18   A    
C32   C34   A    
C5    C13   A    
C4    C6    S    
C19   C21   S    
C10   C11   A    
C29   H17   S    
V4    O20   S    
C31   H18   S    
C7    H4    S    
C31   C32   A    
O18   V4    S    
O18   C43   A    
C30   H19   S    
C27   C39   A    
O2    C1    A    
C35   C36   A    
O15   V3    S    
C9    C10   A    
C38   H16   S    
O19   C44   A    
V3    O20   S    
O3    C4    A    
C21   C22   D    
C12   C16   A    
O6    V2    S    
C9    H5    S    
O9    V2    S    
C5    C17   A    
C14   Cl2   S    
C40   C41   S    
O13   V3    S    
O2    V1    S    
C28   C39   A    
H13   C39   S    
C23   C24   D    
O4    C2    A    
C18   C43   S    
C19   C20   D    
C16   H3    S    
O1    C2    A    
O14   C42   A    
O17   V3    S    
O14   V3    S    
O5    V1    S    
O11   V4    S    
O8    C3    A    
C29   C40   A    
C22   C44   S    
C1    C26   S    
C33   C37   A    
C27   H15   S    
C19   H6    S    
O7    V2    S    
O4    V1    S    
C20   H7    S    
O3    V1    S    
V1    O10   S    
H14   C36   S    
C30   C31   A    
C25   C26   D    
C5    H2    S    
O16   V4    S    
O13   C44   A    
C34   C35   A    
C36   C37   A    
C34   C38   A    
C26   H12   S    
C13   C14   A    
C8    C9    A    
O19   V4    S    
H1    C17   S    
C7    C8    A    
C41   O16   A    
C15   Cl4   S    
C23   C25   S    
C6    C17   A    
