data_mof_unit_46541.cif
_audit_creation_date              2012-12-11T16:27:28-0500
_audit_creation_method            fapswitch 2.2
_symmetry_space_group_name_H-M    P1
_symmetry_Int_Tables_number       1
_space_group_crystal_system       triclinic
_cell_length_a                    21.645025
_cell_length_b                    6.909635
_cell_length_c                    14.778579
_cell_angle_alpha                 89.654069
_cell_angle_beta                  105.61334
_cell_angle_gamma                 89.695129
_cell_volume                      2128.61939708

loop_
_atom_site_label
_atom_site_type_symbol
_atom_type_description
_atom_site_fract_x
_atom_site_fract_y
_atom_site_fract_z
_atom_type_partial_charge
O1    O     O_R   0.835850 0.638310 0.002120 -0.537277
O2    O     O_R   0.164150 0.361690 0.997880 -0.537277
O3    O     O_R   0.664150 0.138310 0.997880 -0.537076
O4    O     O_R   0.335850 0.861690 0.002120 -0.537076
O5    O     O_R   0.717530 0.306070 0.861970 -0.542030
O6    O     O_R   0.282470 0.693930 0.138030 -0.542030
O7    O     O_R   0.782470 0.806070 0.138030 -0.542850
O8    O     O_R   0.217530 0.193930 0.861970 -0.542850
C1    C     C_R   0.705206 0.478070 0.824588 0.687699
C2    C     C_R   0.294794 0.521930 0.175412 0.687699
C3    C     C_R   0.794910 0.976143 0.175503 0.687302
C4    C     C_R   0.205090 0.023857 0.824497 0.687302
O9    O     O_R   0.838690 0.308440 0.993250 -0.540130
O10   O     O_R   0.161310 0.691560 0.006750 -0.540130
O11   O     O_R   0.661310 0.808440 0.006750 -0.539472
O12   O     O_R   0.338690 0.191560 0.993250 -0.539472
O13   O     O_R   0.786170 0.140510 0.130090 -0.539806
O14   O     O_R   0.213830 0.859490 0.869910 -0.539806
O15   O     O_R   0.713830 0.640510 0.869910 -0.540422
O16   O     O_R   0.286170 0.359490 0.130090 -0.540422
C5    C     C_R   0.865352 0.476898 0.998234 0.695430
C6    C     C_R   0.134648 0.523102 0.001765 0.695430
C7    C     C_R   0.634692 0.977729 0.001862 0.697572
C8    C     C_R   0.365308 0.022270 0.998138 0.697572
O17   O     O_3   0.732630 0.472520 0.044740 -0.367633
O18   O     O_3   0.267370 0.527480 0.955260 -0.367633
O19   O     O_3   0.767370 0.972520 0.955260 -0.367673
O20   O     O_3   0.232630 0.027480 0.044740 -0.367673
V1    V     V_3+5 0.753220 0.196740 0.991700 1.428936
V2    V     V_3+5 0.246780 0.803260 0.008300 1.428935
V3    V     V_3+5 0.746780 0.696740 0.008300 1.428376
V4    V     V_3+5 0.253220 0.303260 0.991700 1.428376
C9    C     C_R   0.533523 0.907097 0.832707 -0.153435
C10   C     C_R   0.466477 0.092903 0.167293 -0.153434
C11   C     C_R   0.963451 0.576416 0.166704 -0.152397
C12   C     C_R   0.036549 0.423584 0.833296 -0.152398
C13   C     C_R   0.485920 0.873726 0.749808 -0.122065
C14   C     C_R   0.514080 0.126273 0.250192 -0.122065
C15   C     C_R   0.009405 0.626250 0.248891 -0.124032
C16   C     C_R   0.990595 0.373750 0.751109 -0.124032
C17   C     C_R   0.421585 0.884032 0.748824 -0.123671
C18   C     C_R   0.578415 0.115968 0.251176 -0.123671
C19   C     C_R   0.073548 0.640090 0.249540 -0.125324
C20   C     C_R   0.926452 0.359910 0.750460 -0.125324
C21   C     C_R   0.404346 0.928499 0.830695 -0.140769
C22   C     C_R   0.595654 0.071501 0.169305 -0.140769
C23   C     C_R   0.092257 0.603723 0.168036 -0.144482
C24   C     C_R   0.907743 0.396277 0.831964 -0.144482
C25   C     C_R   0.451580 0.963708 0.915882 0.071620
C26   C     C_R   0.548420 0.036292 0.084117 0.071620
C27   C     C_R   0.046685 0.553340 0.083370 0.072149
C28   C     C_R   0.953315 0.446660 0.916630 0.072149
C29   C     C_R   0.517522 0.952418 0.916974 0.065120
C30   C     C_R   0.482478 0.047582 0.083026 0.065120
C31   C     C_R   0.980889 0.539594 0.082627 0.066880
C32   C     C_R   0.019111 0.460406 0.917373 0.066880
C33   C     C_R   0.434053 0.011527 0.998875 -0.183816
C34   C     C_R   0.565947 0.988473 0.001125 -0.183816
C35   C     C_R   0.065831 0.513559 0.000774 -0.185611
C36   C     C_R   0.934169 0.486441 0.999226 -0.185611
H1    H     H_    0.582873 0.897836 0.829781 0.111985
H2    H     H_    0.417127 0.102164 0.170219 0.111985
H3    H     H_    0.914304 0.565655 0.170222 0.114296
H4    H     H_    0.085696 0.434345 0.829777 0.114296
H5    H     H_    0.499066 0.840073 0.685957 0.132514
H6    H     H_    0.500934 0.159927 0.314043 0.132514
H7    H     H_    0.995162 0.653438 0.312520 0.132169
H8    H     H_    0.004838 0.346561 0.687480 0.132169
H9    H     H_    0.353686 0.935706 0.826351 0.089395
H10   H     H_    0.646314 0.064294 0.173649 0.089394
H11   H     H_    0.142808 0.614589 0.172416 0.095108
H12   H     H_    0.857192 0.385411 0.827584 0.095108
C37   C     C_R   0.177152 0.020432 0.722784 -0.034017
C38   C     C_R   0.822847 0.979568 0.277216 -0.034017
C39   C     C_R   0.322923 0.509192 0.276843 -0.031963
C40   C     C_R   0.677076 0.490808 0.723157 -0.031963
C41   C     C_R   0.186693 0.083365 0.566381 -0.165189
C42   C     C_R   0.813307 0.916636 0.433619 -0.165188
C43   C     C_R   0.312058 0.444170 0.432288 -0.164418
C44   C     C_R   0.687942 0.555829 0.567712 -0.164417
C45   C     C_R   0.214687 0.067787 0.662604 -0.176394
C46   C     C_R   0.785313 0.932212 0.337396 -0.176395
C47   C     C_R   0.284378 0.467821 0.336325 -0.177971
C48   C     C_R   0.715622 0.532178 0.663675 -0.177972
C49   C     C_R   0.111315 0.989110 0.686708 -0.225639
C50   C     C_R   0.888684 0.010891 0.313292 -0.225638
C51   C     C_R   0.389303 0.527151 0.313178 -0.224080
C52   C     C_R   0.610697 0.472849 0.686822 -0.224081
C53   C     C_R   0.081165 0.008629 0.589211 0.080043
C54   C     C_R   0.918834 0.991373 0.410789 0.080043
C55   C     C_R   0.418925 0.502281 0.410468 0.081257
C56   C     C_R   0.581075 0.497720 0.589532 0.081257
C57   C     C_R   0.120449 0.056616 0.529413 0.142321
C58   C     C_R   0.879551 0.943385 0.470587 0.142322
C59   C     C_R   0.378740 0.459386 0.469635 0.141381
C60   C     C_R   0.621260 0.540614 0.530365 0.141381
C61   C     C_R   0.013534 0.986263 0.549492 0.051182
C62   C     C_R   0.986466 0.013740 0.450508 0.051182
C63   C     C_R   0.486785 0.515911 0.450616 0.050534
C64   C     C_R   0.513215 0.484089 0.549383 0.050534
C65   C     C_R   0.027935 0.061850 0.394566 -0.197966
C66   C     C_R   0.972064 0.938153 0.605434 -0.197967
C67   C     C_R   0.470931 0.439909 0.604644 -0.198352
C68   C     C_R   0.529069 0.560091 0.395356 -0.198352
C69   C     C_R   0.093421 0.081453 0.433330 -0.209488
C70   C     C_R   0.906579 0.918549 0.566670 -0.209489
C71   C     C_R   0.405218 0.429311 0.565488 -0.207989
C72   C     C_R   0.594782 0.570688 0.434512 -0.207989
H13   H     H_    0.123208 0.118738 0.387465 0.127229
H14   H     H_    0.876792 0.881264 0.612535 0.127230
H15   H     H_    0.374775 0.395466 0.610873 0.126746
H16   H     H_    0.625225 0.604533 0.389126 0.126745
H17   H     H_    0.914935 0.043049 0.262690 0.103628
H18   H     H_    0.085064 0.956952 0.737310 0.103628
H19   H     H_    0.583855 0.443716 0.737008 0.101601
H20   H     H_    0.416145 0.556286 0.262992 0.101601
H21   H     H_    0.734489 0.905009 0.309705 0.101525
H22   H     H_    0.265511 0.094990 0.690294 0.101525
H23   H     H_    0.766997 0.547933 0.691677 0.100842
H24   H     H_    0.233003 0.452066 0.308323 0.100842
H25   H     H_    0.216698 0.120500 0.520871 0.110586
H26   H     H_    0.783301 0.879499 0.479129 0.110586
H27   H     H_    0.281339 0.411510 0.477356 0.110653
H28   H     H_    0.718662 0.588489 0.522644 0.110652
H29   H     H_    0.011516 0.086249 0.319936 0.137286
H30   H     H_    0.988484 0.913755 0.680064 0.137286
H31   H     H_    0.486842 0.412153 0.679043 0.137484
H32   H     H_    0.513158 0.587846 0.320957 0.137484
H33   H     H_    0.615192 0.142084 0.315785 0.120616
H34   H     H_    0.384808 0.857916 0.684215 0.120616
H35   H     H_    0.890923 0.321636 0.686331 0.121975
H36   H     H_    0.109077 0.678364 0.313669 0.121975

loop_
_geom_bond_atom_site_label_1
_geom_bond_atom_site_label_2
_ccdc_geom_bond_type
O17   V3    S    
C7    C34   S    
O1    C5    A    
C51   C55   A    
O19   V1    S    
O13   V1    S    
O3    C7    A    
C10   H2    S    
C44   C48   A    
O15   V3    S    
C40   C48   A    
C61   C62   A    
C20   H35   S    
O7    C3    A    
C26   C30   A    
C50   H17   S    
O9    V1    S    
C19   H36   S    
C24   H12   S    
C14   C18   A    
C44   H28   S    
C17   H34   S    
O4    C8    A    
O1    V3    S    
C25   C33   A    
O17   V1    S    
O2    V4    S    
C18   C22   A    
O3    V1    S    
C12   C16   A    
C28   C36   A    
C57   C69   A    
C9    H1    S    
C1    O15   A    
C58   C70   A    
C14   H6    S    
C2    O16   A    
C8    C33   S    
C13   H5    S    
C4    C37   S    
O2    C6    A    
C65   H29   S    
O14   V2    S    
C1    C40   S    
C21   C25   A    
C44   C60   A    
C67   H31   S    
C40   C52   A    
C16   C20   A    
C61   C66   A    
O11   C7    A    
C63   C68   A    
C60   C72   A    
O12   C8    A    
C31   C36   A    
C65   C69   A    
C15   H7    S    
O10   V2    S    
C37   C45   A    
C54   C58   A    
O5    V1    S    
C56   C60   A    
C9    C29   A    
O7    V3    S    
C21   H9    S    
C26   C34   A    
C52   C56   A    
O20   V4    S    
C41   H25   S    
C5    C36   S    
C50   C54   A    
C6    C35   S    
C49   C53   A    
O18   V4    S    
C15   C19   A    
C11   C31   A    
C45   H22   S    
C64   C67   A    
C9    C13   A    
C72   H16   S    
C53   C61   A    
O8    V4    S    
C47   H24   S    
C11   C15   A    
O5    C1    A    
C12   C32   A    
C2    C39   S    
C42   C46   A    
C63   C64   A    
C68   H32   S    
C41   C45   A    
O8    C4    A    
C37   C49   A    
O9    C5    A    
C38   C50   A    
O11   V3    S    
C23   H11   S    
C51   H20   S    
C59   C71   A    
C39   C51   A    
O6    V2    S    
O18   V2    S    
O19   V3    S    
C27   C35   A    
C68   C72   A    
C56   C64   A    
C67   C71   A    
O16   V4    S    
C69   H13   S    
C3    O13   A    
C53   C57   A    
C10   C14   A    
C71   H15   S    
C66   H30   S    
C3    C38   S    
O6    C2    A    
C23   C27   A    
C29   C34   A    
C10   C30   A    
O12   V4    S    
C62   C65   A    
C22   C26   A    
C32   C35   A    
O10   C6    A    
C52   H19   S    
O20   V2    S    
C43   C47   A    
C39   C47   A    
C43   H27   S    
C42   C58   A    
C48   H23   S    
C25   C29   A    
C41   C57   A    
C66   C70   A    
C18   H33   S    
C27   C31   A    
C13   C17   A    
C42   H26   S    
O4    V2    S    
C22   H10   S    
C49   H18   S    
C55   C59   A    
C28   C32   A    
C24   C28   A    
C70   H14   S    
C16   H8    S    
C4    O14   A    
C17   C21   A    
C11   H3    S    
C46   H21   S    
C55   C63   A    
C12   H4    S    
C43   C59   A    
C19   C23   A    
C54   C62   A    
C38   C46   A    
C20   C24   A    
C30   C33   A    
