data_mof_unit_38004.cif
_audit_creation_date              2012-12-10T18:56:31-0500
_audit_creation_method            fapswitch 2.2
_symmetry_space_group_name_H-M    P1
_symmetry_Int_Tables_number       1
_space_group_crystal_system       triclinic
_cell_length_a                    10.724873
_cell_length_b                    10.059414
_cell_length_c                    19.265456
_cell_angle_alpha                 90.10934
_cell_angle_beta                  100.05276
_cell_angle_gamma                 90.008896
_cell_volume                      2046.55793054

loop_
_atom_site_label
_atom_site_type_symbol
_atom_type_description
_atom_site_fract_x
_atom_site_fract_y
_atom_site_fract_z
_atom_type_partial_charge
C1    C     C_R   0.871813 0.501288 0.498189 -0.081531
C2    C     C_R   0.128160 0.501242 0.501766 -0.080649
C3    C     C_R   0.380346 0.465324 0.957640 -0.012170
C4    C     C_R   0.620777 0.468681 0.042407 -0.014521
C5    C     C_R   0.391330 0.460768 0.030325 -0.040072
C6    C     C_R   0.609898 0.465250 0.969716 -0.034315
C7    C     C_R   0.511398 0.466775 0.072485 0.144330
C8    C     C_R   0.489725 0.468021 0.927506 0.144262
C9    C     C_R   0.260761 0.500229 0.501118 0.907786
C10   C     C_R   0.739230 0.500244 0.498871 0.907813
C11   C     C_R   0.503587 0.499333 0.366289 0.957616
C12   C     C_R   0.496080 0.499541 0.633621 0.960238
C13   C     C_R   0.064066 0.380617 0.501512 -0.131231
C14   C     C_R   0.936081 0.622626 0.500102 -0.122970
C15   C     C_R   0.935444 0.380675 0.497091 -0.130763
C16   C     C_R   0.064328 0.622615 0.501140 -0.122644
C17   C     C_R   0.452325 0.375680 0.737140 -0.200146
C18   C     C_R   0.500246 0.609352 0.250694 -0.243951
C19   C     C_R   0.538107 0.372432 0.261606 -0.198763
C20   C     C_R   0.508145 0.608567 0.750018 -0.224804
C21   C     C_R   0.447693 0.366600 0.808556 0.414605
C22   C     C_R   0.500938 0.602228 0.178597 0.362369
C23   C     C_R   0.544315 0.363088 0.190420 0.398525
C24   C     C_R   0.507821 0.601877 0.822060 0.395033
C25   C     C_R   0.479510 0.479358 0.851674 -0.217264
C26   C     C_R   0.521278 0.477777 0.148250 -0.203000
C27   C     C_R   0.588310 0.073037 0.548123 0.273954
C28   C     C_R   0.412911 0.927029 0.451273 0.276090
C29   C     C_R   0.411773 0.072558 0.451861 0.273702
C30   C     C_R   0.587092 0.927517 0.548718 0.266645
C31   C     C_R   0.485409 0.495312 0.707999 -0.218481
C32   C     C_R   0.513672 0.494457 0.291749 -0.205762
H1    H     H_    0.112699 0.286397 0.504548 0.221902
H2    H     H_    0.887858 0.717161 0.500617 0.204386
H3    H     H_    0.886440 0.286546 0.492973 0.220976
H4    H     H_    0.112904 0.717155 0.501672 0.202848
H5    H     H_    0.287346 0.468882 0.924994 0.172089
H6    H     H_    0.713644 0.473825 0.075171 0.168008
H7    H     H_    0.306718 0.459257 0.053904 0.162673
H8    H     H_    0.694576 0.465940 0.946198 0.168354
N1    N     N_R   0.500000 0.857200 0.500000 -0.233190
N2    N     N_R   0.500000 0.142800 0.500000 -0.235573
O1    O     O_R   0.316770 0.614620 0.500000 -0.570967
O2    O     O_R   0.683230 0.385380 0.500000 -0.574022
O3    O     O_R   0.683230 0.614620 0.500000 -0.571202
O4    O     O_R   0.316770 0.385380 0.500000 -0.574742
O5    O     O_R   0.500030 0.614710 0.398180 -0.561628
O6    O     O_R   0.499970 0.385290 0.601820 -0.564047
O7    O     O_R   0.499970 0.614710 0.601820 -0.563673
O8    O     O_R   0.500030 0.385290 0.398180 -0.566461
Zn1   Zn    Zn3+2 0.500000 0.653120 0.500000 1.100095
Zn2   Zn    Zn3+2 0.500000 0.346880 0.500000 1.098618
S1    S     S_3+6 0.715879 0.159230 0.607667 0.123343
O9    O     O_2   0.727711 0.105754 0.681075 -0.174416
O10   O     O_2   0.836115 0.130046 0.580594 -0.296828
O11   O     O_3   0.717252 0.323079 0.621595 -0.523715
H9    H     H_    0.802096 0.343383 0.649142 0.367517
S2    S     S_3+6 0.305223 0.841017 0.380806 0.109031
O12   O     O_2   0.173426 0.894486 0.375413 -0.211174
O13   O     O_2   0.352648 0.871359 0.313773 -0.279927
O14   O     O_3   0.281280 0.677004 0.379136 -0.533479
H10   H     H_    0.230408 0.657501 0.332157 0.365458
S3    S     S_3+6 0.285010 0.158088 0.391821 0.119799
O15   O     O_2   0.275423 0.104228 0.318472 -0.180424
O16   O     O_2   0.164014 0.128282 0.417937 -0.296596
O17   O     O_3   0.283034 0.321955 0.378302 -0.525724
H11   H     H_    0.198869 0.341573 0.349830 0.366728
S4    S     S_3+6 0.695663 0.842324 0.618807 0.113812
O18   O     O_2   0.827449 0.895133 0.622684 -0.213680
O19   O     O_2   0.650556 0.874650 0.686354 -0.245307
O20   O     O_3   0.718431 0.678151 0.620956 -0.536652
H12   H     H_    0.771188 0.659484 0.667473 0.368099
H13   H     H_    0.430404 0.288775 0.704066 0.228466
H14   H     H_    0.488052 0.704013 0.274725 0.249909
H15   H     H_    0.552176 0.283708 0.293680 0.232318
H16   H     H_    0.528155 0.701407 0.726791 0.258582
S5    S     S_3+6 0.404596 0.212320 0.842038 0.072543
O21   O     O_2   0.505580 0.168397 0.901749 -0.218295
O22   O     O_2   0.281759 0.228372 0.868599 -0.282089
O23   O     O_3   0.385804 0.096005 0.778197 -0.512641
H17   H     H_    0.332894 0.026070 0.794678 0.421190
S6    S     S_3+6 0.477876 0.750582 0.128217 0.093943
O24   O     O_2   0.594269 0.778601 0.097143 -0.190411
O25   O     O_2   0.366839 0.735946 0.069214 -0.262953
O26   O     O_3   0.450974 0.879763 0.179027 -0.454421
H18   H     H_    0.357649 0.886085 0.173830 0.409177
S7    S     S_3+6 0.577533 0.205936 0.155971 0.097810
O27   O     O_2   0.463329 0.157924 0.105608 -0.177584
O28   O     O_2   0.687381 0.217898 0.117451 -0.284052
O29   O     O_3   0.614557 0.095432 0.221816 -0.501645
H19   H     H_    0.669068 0.028585 0.203984 0.423457
S8    S     S_3+6 0.544172 0.748048 0.873350 0.087482
O30   O     O_2   0.443311 0.772863 0.917037 -0.193726
O31   O     O_2   0.669548 0.731009 0.921343 -0.273323
O32   O     O_3   0.553214 0.879598 0.820809 -0.478592
H20   H     H_    0.610393 0.943353 0.849940 0.434610

loop_
_geom_bond_atom_site_label_1
_geom_bond_atom_site_label_2
_ccdc_geom_bond_type
S7    O27   D    
S3    O16   D    
C29   N2    A    
C11   O5    A    
O32   H20   S    
C12   O6    A    
C29   S3    S    
C12   O7    A    
S5    O21   D    
C7    C26   S    
C22   S6    S    
C28   C29   A    
S1    O11   S    
O3    Zn1   S    
S2    O13   D    
O4    Zn2   S    
C28   N1    A    
O11   H9    S    
C20   H16   S    
C23   C26   A    
C2    C13   A    
C20   C24   A    
S4    O18   D    
O7    Zn1   S    
O8    Zn2   S    
C30   N1    A    
C1    C15   A    
C2    C16   A    
O2    Zn2   S    
S2    O14   S    
S5    O22   D    
O17   H11   S    
S3    O17   S    
C9    O4    A    
C18   H14   S    
C23   S7    S    
C27   C30   A    
C17   H13   S    
C8    C25   S    
C4    C7    A    
C19   C32   A    
C24   S8    S    
C15   H3    S    
S1    O10   D    
C9    O1    A    
C10   O2    A    
C24   C25   A    
C4    C6    A    
C3    C8    A    
C5    C7    A    
O5    Zn1   S    
S2    O12   D    
O26   H18   S    
S8    O32   S    
C17   C21   A    
C19   C23   A    
C13   H1    S    
C10   O3    A    
S8    O31   D    
C4    H6    S    
C11   C32   S    
S6    O25   D    
C13   C15   A    
C12   C31   S    
C17   C31   A    
C14   C16   A    
C18   C32   A    
S5    O23   S    
C21   C25   A    
C18   C22   A    
C1    C10   S    
O23   H17   S    
C3    C5    A    
C14   H2    S    
C6    C8    A    
C27   S1    S    
S1    O9    D    
C28   S2    S    
S6    O26   S    
C5    H7    S    
O20   H12   S    
C11   O8    A    
C16   H4    S    
C27   N2    A    
O1    Zn1   S    
O29   H19   S    
S4    O20   S    
C19   H15   S    
S8    O30   D    
C6    H8    S    
O14   H10   S    
S3    O15   D    
O6    Zn2   S    
C3    H5    S    
S4    O19   D    
S6    O24   D    
C22   C26   A    
S7    O29   S    
C21   S5    S    
S7    O28   D    
C1    C14   A    
C2    C9    S    
N1    Zn1   S    
C30   S4    S    
N2    Zn2   S    
C20   C31   A    
