data_mof_unit_18735.cif
_audit_creation_date              2012-12-11T15:23:37-0500
_audit_creation_method            fapswitch 2.2
_symmetry_space_group_name_H-M    P1
_symmetry_Int_Tables_number       1
_space_group_crystal_system       triclinic
_cell_length_a                    6.937712
_cell_length_b                    17.502601
_cell_length_c                    19.304942
_cell_angle_alpha                 109.427993
_cell_angle_beta                  90.237797
_cell_angle_gamma                 90.47206
_cell_volume                      2210.55065403

loop_
_atom_site_label
_atom_site_type_symbol
_atom_type_description
_atom_site_fract_x
_atom_site_fract_y
_atom_site_fract_z
_atom_type_partial_charge
O1    O     O_R   0.505810 0.439670 0.562310 -0.544787
O2    O     O_R   0.169070 0.404920 0.411210 -0.533119
O3    O     O_R   0.005550 0.560330 0.437690 -0.536265
C1    C     C_R   0.338649 0.381614 0.382968 0.719092
O4    O     O_R   0.175650 0.430000 0.560110 -0.542531
O5    O     O_R   0.012170 0.585580 0.587650 -0.537433
C2    C     C_R   0.344651 0.414652 0.581587 0.711866
O6    O     O_R   0.499180 0.414420 0.412350 -0.550206
O7    O     O_3   0.341430 0.551020 0.508860 -0.364430
V1    V     V_3+5 0.063930 0.490540 0.498360 1.450382
O8    O     O_R   0.682850 0.595080 0.588790 -0.547829
C3    C     C_R   0.852660 0.617972 0.616896 0.755849
O9    O     O_R   0.676280 0.570000 0.439890 -0.532047
C4    C     C_R   0.844492 0.582960 0.416403 0.722475
V2    V     V_3+5 0.564760 0.509460 0.501640 1.437184
O10   O     O_3   0.837130 0.448980 0.491140 -0.376034
C5    C     C_R   0.067312 0.864965 0.178530 -0.225749
C6    C     C_R   0.914450 0.864804 0.130315 -0.079908
C7    C     C_R   0.749102 0.817372 0.129308 -0.221735
C8    C     C_R   0.736623 0.769744 0.175004 0.096598
C9    C     C_R   0.889019 0.771019 0.223996 0.075524
C10   C     C_R   0.054532 0.819264 0.226029 0.093846
C11   C     C_R   0.574548 0.720533 0.172259 -0.224556
C12   C     C_R   0.562990 0.672900 0.217607 -0.141476
C13   C     C_R   0.712453 0.674092 0.267578 0.062208
C14   C     C_R   0.876280 0.723746 0.270769 -0.018249
C15   C     C_R   0.028562 0.725602 0.319913 0.084007
C16   C     C_R   0.191187 0.774716 0.322227 -0.150023
C17   C     C_R   0.204183 0.821004 0.275638 -0.190297
C18   C     C_R   0.702767 0.625086 0.312722 0.287467
C19   C     C_R   0.853706 0.629207 0.364205 -0.176178
C20   C     C_R   0.015850 0.678791 0.366225 -0.215759
H1    H     H_    0.194675 0.901831 0.180039 0.121544
H2    H     H_    0.631117 0.816523 0.092028 0.128561
H3    H     H_    0.456294 0.718754 0.134874 0.136793
H4    H     H_    0.435456 0.635532 0.213612 0.176604
H5    H     H_    0.132125 0.681742 0.404780 0.162277
H6    H     H_    0.309382 0.776843 0.359725 0.138735
H7    H     H_    0.331942 0.857910 0.278189 0.135204
C21   C     C_3   0.771210 0.808802 0.747692 0.320747
C22   C     C_3   0.934580 0.773508 0.694063 0.223075
C23   C     C_3   0.867498 0.687550 0.687457 -0.131357
C24   C     C_3   0.699940 0.722803 0.741297 -0.179591
C25   C     C_3   0.835243 0.725417 0.806898 -0.229040
C26   C     C_3   0.002471 0.689005 0.752347 -0.212578
C27   C     C_3   0.066076 0.775774 0.758463 0.309997
C28   C     C_3   0.903402 0.812006 0.812767 -0.091533
H8    H     H_    0.549804 0.699198 0.733924 0.148075
H9    H     H_    0.794454 0.705866 0.854015 0.136000
H10   H     H_    0.099813 0.639622 0.754045 0.127293
C29   C     C_3   0.556986 0.281975 0.277344 -0.152144
C30   C     C_3   0.493723 0.192733 0.263446 -0.198374
H11   H     H_    0.581350 0.145632 0.275188 0.117695
H12   H     H_    0.699496 0.308282 0.299772 0.132361
C31   C     C_3   0.413330 0.188949 0.187686 -0.055539
C32   C     C_3   0.476840 0.277284 0.200830 -0.129755
C33   C     C_3   0.278179 0.307459 0.236019 -0.194665
C34   C     C_3   0.213535 0.218345 0.221913 -0.168185
C35   C     C_3   0.296873 0.223748 0.297256 0.382305
C36   C     C_3   0.357830 0.311638 0.311924 -0.029421
H13   H     H_    0.553389 0.299364 0.160668 0.111562
H14   H     H_    0.189156 0.354514 0.224829 0.121473
H15   H     H_    0.070586 0.191889 0.200222 0.122240
C37   C     C_R   0.568549 0.134622 0.820994 -0.198298
C38   C     C_R   0.416516 0.135008 0.869210 -0.087616
C39   C     C_R   0.252382 0.181910 0.869333 -0.222928
C40   C     C_R   0.240143 0.228495 0.822622 0.093057
C41   C     C_R   0.391939 0.226849 0.773735 0.053617
C42   C     C_R   0.556199 0.179371 0.772650 0.083372
C43   C     C_R   0.078681 0.276755 0.823900 -0.191999
C44   C     C_R   0.066427 0.322257 0.776570 -0.185301
C45   C     C_R   0.215053 0.320153 0.726876 0.092826
C46   C     C_R   0.379323 0.272683 0.725785 0.054331
C47   C     C_R   0.531154 0.271080 0.676922 0.085399
C48   C     C_R   0.692545 0.222763 0.675606 -0.184039
C49   C     C_R   0.704762 0.177226 0.722916 -0.173929
C50   C     C_R   0.202774 0.364980 0.678607 -0.222453
C51   C     C_R   0.354938 0.364755 0.630495 -0.077424
C52   C     C_R   0.519030 0.317796 0.630306 -0.207796
H16   H     H_    0.694782 0.098172 0.820040 0.137186
H17   H     H_    0.134843 0.182879 0.906452 0.125203
H18   H     H_    0.961023 0.278940 0.861235 0.131879
H19   H     H_    0.939788 0.358722 0.778515 0.133827
H20   H     H_    0.076493 0.401405 0.679567 0.119711
H21   H     H_    0.636615 0.316903 0.593226 0.132339
H22   H     H_    0.810206 0.220581 0.638273 0.139994
H23   H     H_    0.831371 0.140739 0.720957 0.140916
O11   O     O_R   0.271890 0.085690 0.087580 -0.546566
O12   O     O_R   0.595690 0.070020 0.939870 -0.542331
O13   O     O_R   0.758900 0.914390 0.912370 -0.520721
C53   C     C_R   0.426759 0.085284 0.918262 0.742606
O14   O     O_R   0.602020 0.095100 0.088770 -0.543978
O15   O     O_R   0.765280 0.939660 0.062330 -0.545183
C54   C     C_R   0.432428 0.118595 0.116903 0.676814
O16   O     O_R   0.265520 0.060430 0.937620 -0.538997
O17   O     O_3   0.429560 0.949050 0.991100 -0.360638
V3    V     V_3+5 0.707160 0.009450 0.001650 1.439785
O18   O     O_R   0.094540 0.929890 0.060190 -0.547157
C55   C     C_R   0.925646 0.914793 0.081719 0.691738
O19   O     O_R   0.088200 0.904800 0.911290 -0.521040
C56   C     C_R   0.918430 0.882060 0.883048 0.758414
V4    V     V_3+5 0.206300 0.990390 0.998440 1.458183
O20   O     O_3   0.934030 0.050940 0.008900 -0.381165
O21   O     O_3   0.653948 0.872643 0.745720 -0.632549
H24   H     H_    0.604767 0.856949 0.694567 0.297175
O22   O     O_3   0.255948 0.804591 0.767637 -0.625390
H25   H     H_    0.310822 0.786904 0.717580 0.298195
O23   O     O_3   0.200953 0.196611 0.348349 -0.650040
H26   H     H_    0.178183 0.137880 0.323199 0.277999
O24   O     O_3   0.547479 0.572678 0.303855 -0.653822
H27   H     H_    0.592236 0.522675 0.311841 0.280448
O25   O     O_3   0.985752 0.798261 0.634767 -0.651044
H28   H     H_    0.021539 0.856331 0.656651 0.299145

loop_
_geom_bond_atom_site_label_1
_geom_bond_atom_site_label_2
_ccdc_geom_bond_type
C25   H9    S    
C21   C28   S    
C31   C32   S    
C28   C56   S    
C10   C17   A    
O17   V4    S    
C22   C23   S    
C7    C8    A    
C4    C19   S    
C1    O6    A    
C33   H14   S    
C50   C51   A    
O23   H26   S    
C14   C15   A    
C12   H4    S    
C18   O24   S    
C16   C17   A    
C30   C31   S    
C6    C7    A    
O5    C3    A    
C18   C19   A    
O22   H25   S    
V2    O10   S    
C34   H15   S    
C32   C33   S    
C42   C49   A    
C29   C32   S    
C46   C47   A    
O24   H27   S    
O25   H28   S    
C3    C23   S    
O8    V2    S    
C21   C24   S    
C41   C42   A    
C22   O25   S    
C22   C27   S    
C43   C44   A    
O1    V2    S    
O12   C53   A    
C24   H8    S    
O15   C55   A    
O13   V3    S    
C25   C28   S    
C39   C40   A    
C35   C36   S    
O9    C4    A    
C37   H16   S    
C1    C36   S    
C5    H1    S    
C31   C54   S    
O19   V4    S    
O21   H24   S    
C9    C14   A    
O14   V3    S    
C44   H19   S    
O11   C54   A    
C20   H5    S    
C47   C48   A    
C29   C30   S    
C12   C13   A    
O4    C2    A    
C51   C52   A    
C33   C36   S    
C50   H20   S    
C41   C46   A    
O18   V4    S    
C40   C41   A    
O12   V3    S    
C23   C26   S    
O2    C1    A    
C48   C49   A    
O13   C56   A    
C45   C50   A    
C30   C35   S    
C21   O21   S    
C48   H22   S    
C19   C20   A    
C8    C11   A    
C16   H6    S    
C11   C12   A    
O17   V3    S    
C17   H7    S    
O14   C54   A    
C5    C6    A    
C37   C42   A    
C49   H23   S    
V3    O20   S    
O3    C4    A    
C2    C51   S    
C21   C22   S    
C38   C39   A    
O6    V2    S    
C11   H3    S    
C47   C52   A    
O9    V2    S    
C24   C25   S    
C34   C35   S    
C23   C24   S    
O2    V1    S    
O15   V3    S    
C52   H21   S    
C30   H11   S    
O7    V1    S    
C13   C18   A    
C38   C53   S    
C27   C28   S    
C15   C20   A    
O1    C2    A    
C25   C26   S    
C5    C10   A    
C45   C46   A    
C7    H2    S    
O5    V1    S    
O11   V4    S    
O8    C3    A    
O16   V4    S    
C35   O23   S    
C29   H12   S    
C37   C38   A    
C40   C43   A    
C13   C14   A    
O4    V1    S    
O3    V1    S    
V1    O10   S    
C39   H17   S    
C33   C34   S    
C26   H10   S    
C27   O22   S    
O19   C56   A    
O7    V2    S    
V4    O20   S    
C43   H18   S    
C53   O16   A    
C26   C27   S    
C44   C45   A    
C8    C9    A    
O18   C55   A    
C6    C55   S    
C31   C34   S    
C15   C16   A    
C32   H13   S    
C29   C36   S    
C9    C10   A    
