data_mof_unit_14000.cif
_audit_creation_date              2012-10-26T19:57:06-0400
_audit_creation_method            fapswitch 2.2
_symmetry_space_group_name_H-M    P1
_symmetry_Int_Tables_number       1
_space_group_crystal_system       triclinic
_cell_length_a                    12.952406
_cell_length_b                    10.917329
_cell_length_c                    9.758097
_cell_angle_alpha                 89.714135
_cell_angle_beta                  95.380878
_cell_angle_gamma                 91.300201
_cell_volume                      1373.41037569

loop_
_atom_site_label
_atom_site_type_symbol
_atom_type_description
_atom_site_fract_x
_atom_site_fract_y
_atom_site_fract_z
_atom_type_partial_charge
C1    C     C_R   0.502600 0.265618 0.500567 0.589145
C2    C     C_2   0.509316 0.133615 0.503566 -0.060627
C3    C     C_2   0.416846 0.507945 0.911951 0.040636
C4    C     C_R   0.301275 0.491255 0.474968 0.584035
C5    C     C_2   0.417836 0.483950 0.064612 0.044361
C6    C     C_R   0.498897 0.734429 0.499714 0.590851
C7    C     C_R   0.698423 0.506825 0.524818 0.543044
C8    C     C_R   0.809618 0.528511 0.535562 -0.009593
C9    C     C_R   0.188069 0.480428 0.462209 -0.057525
C10   C     C_R   0.032119 0.351704 0.437652 0.062506
C11   C     C_R   0.138625 0.367293 0.422577 0.211657
C12   C     C_R   0.022026 0.568481 0.507157 -0.030364
C13   C     C_R   0.131504 0.579474 0.506801 -0.063677
C14   C     C_2   0.784030 0.749994 0.584727 0.602636
C15   C     C_2   0.981043 0.229763 0.414908 0.649606
C16   C     C_2   0.996880 0.797727 0.541614 0.653560
C17   C     C_2   0.191112 0.688135 0.566545 0.615297
C18   C     C_R   0.974474 0.451090 0.479984 -0.039033
C19   C     C_R   0.869153 0.433596 0.497082 -0.106521
C20   C     C_R   0.852197 0.647267 0.554942 0.034520
C21   C     C_R   0.958061 0.668840 0.537109 0.045091
C22   C     C_2   0.503841 0.933553 0.387639 -0.142256
C23   C     C_2   0.493737 0.866412 0.500973 -0.060012
C24   C     C_2   0.499226 0.067490 0.387472 -0.114259
Cu1   Cu    Cu3+1 0.500020 0.500020 0.638640 1.106702
Cu2   Cu    Cu3+1 0.499980 0.499980 0.361360 1.145757
H1    H     H_    0.830382 0.345531 0.478107 0.143101
H2    H     H_    0.730669 0.917449 0.531392 0.339557
H3    H     H_    0.881261 0.123167 0.294671 0.367031
H4    H     H_    0.026376 0.950686 0.654905 0.393388
H5    H     H_    0.183681 0.058516 0.287375 0.389277
H6    H     H_    0.241416 0.739235 0.384772 0.309544
H7    H     H_    0.524437 0.092349 0.604280 0.111471
H8    H     H_    0.344224 0.533102 0.855808 0.164433
H9    H     H_    0.556144 0.446003 0.894869 0.267654
H10   H     H_    0.345025 0.455070 0.101990 0.145833
H11   H     H_    0.513956 0.889551 0.290334 0.194940
H12   H     H_    0.479194 0.906941 0.598082 0.146873
H13   H     H_    0.488359 0.112405 0.287736 0.182508
H14   H     H_    0.715461 0.723185 0.206885 0.372154
N1    N     N_2   0.498860 0.498660 0.846770 -0.289085
N2    N     N_2   0.498840 0.498630 0.152900 -0.079824
O1    O     O_R   0.500020 0.321960 0.617050 -0.508718
O2    O     O_2   0.562895 0.688711 0.999641 -0.251972
O3    O     O_3   0.654467 0.680977 0.241360 -0.468663
O4    O     O_2   0.732511 0.743510 0.683374 -0.449064
O5    O     O_R   0.779069 0.853790 0.500006 -0.669996
O6    O     O_2   0.998724 0.148005 0.499266 -0.452128
O7    O     O_R   0.911660 0.209621 0.298247 -0.646832
O8    O     O_2   0.027719 0.845191 0.438777 -0.442168
O9    O     O_R   0.996122 0.864891 0.663097 -0.613039
O10   O     O_2   0.289279 0.282731 0.273674 -0.296428
O11   O     O_2   0.268955 0.187392 0.497400 -0.277906
O12   O     O_R   0.499980 0.321920 0.382890 -0.485926
O13   O     O_3   0.137963 0.129922 0.289299 -0.443765
O14   O     O_2   0.191574 0.709726 0.689255 -0.430316
O15   O     O_R   0.248683 0.764232 0.485143 -0.639244
O16   O     O_R   0.349010 0.500000 0.598060 -0.505131
O17   O     O_R   0.348980 0.499950 0.363910 -0.497632
O18   O     O_R   0.500020 0.678080 0.617110 -0.445490
O19   O     O_R   0.499980 0.678040 0.382950 -0.462693
O20   O     O_R   0.651020 0.500050 0.636090 -0.471662
O21   O     O_R   0.650990 0.500000 0.401940 -0.444070
O22   O     O_2   0.685215 0.522870 0.057602 -0.270351
S1    S     S_3+6 0.600376 0.597501 0.108205 0.129839
S2    S     S_3+6 0.212192 0.240847 0.370441 0.048960

loop_
_geom_bond_atom_site_label_1
_geom_bond_atom_site_label_2
_ccdc_geom_bond_type
N2    S1    S    
C5    N2    D    
C16   O9    S    
H2    O5    S    
C16   C21   S    
C22   H11   S    
Cu1   O18   S    
C6    O18   A    
Cu1   O20   S    
C23   H12   S    
C19   H1    S    
Cu2   O17   S    
C11   S2    S    
C13   C17   S    
C1    O12   A    
O22   S1    D    
Cu1   O1    S    
Cu2   O21   S    
Cu1   Cu2   S    
C3    C5    S    
C7    C8    S    
C7    O20   A    
H3    O7    S    
C12   C13   A    
O3    S1    S    
O11   S2    D    
C9    C11   A    
C17   O14   D    
C7    O21   A    
O2    S1    D    
C8    C20   A    
H6    O15   S    
C10   C18   A    
C6    C23   S    
C15   O6    D    
C6    O19   A    
H4    O9    S    
C16   O8    D    
C1    C2    S    
C10   C15   S    
C15   O7    S    
Cu2   N2    S    
C2    C24   D    
H14   O3    S    
H9    N1    S    
C22   C24   S    
C8    C19   A    
C10   C11   A    
C4    O16   A    
C12   C18   A    
C4    O17   A    
C5    H10   S    
C14   C20   S    
C24   H13   S    
O10   S2    D    
C20   C21   A    
C2    H7    S    
C14   O4    D    
C18   C19   A    
Cu1   O16   S    
Cu1   N1    S    
C9    C13   A    
C22   C23   D    
C3    N1    D    
Cu2   O12   S    
C3    H8    S    
H5    O13   S    
C4    C9    S    
C14   O5    S    
C12   C21   A    
C1    O1    A    
C17   O15   S    
O13   S2    S    
Cu2   O19   S    
