data_mof_unit_57356.cif
_audit_creation_date              2012-12-10T17:13:41-0500
_audit_creation_method            fapswitch 2.2
_symmetry_space_group_name_H-M    P1
_symmetry_Int_Tables_number       1
_space_group_crystal_system       triclinic
_cell_length_a                    27.477634
_cell_length_b                    10.657293
_cell_length_c                    10.059327
_cell_angle_alpha                 91.984554
_cell_angle_beta                  91.058909
_cell_angle_gamma                 90.13476
_cell_volume                      2943.46229706

loop_
_atom_site_label
_atom_site_type_symbol
_atom_type_description
_atom_site_fract_x
_atom_site_fract_y
_atom_site_fract_z
_atom_type_partial_charge
C1    C     C_R   0.499261 0.262455 0.497439 0.965220
C2    C     C_R   0.277063 0.433612 0.584538 -0.016875
C3    C     C_R   0.250139 0.530750 0.495790 0.009512
C4    C     C_R   0.096260 0.594111 0.469579 -0.124830
C5    C     C_R   0.116968 0.495003 0.393029 -0.103856
C6    C     C_R   0.086575 0.413721 0.314280 0.415336
C7    C     C_R   0.125953 0.672308 0.552961 -0.032871
C8    C     C_R   0.353086 0.515052 0.496622 -0.159787
C9    C     C_R   0.645594 0.537237 0.503811 -0.207823
C10   C     C_R   0.967027 0.583405 0.358038 0.085616
C11   C     C_R   0.973665 0.694280 0.574065 -0.110641
C12   C     C_R   0.406054 0.503093 0.498890 0.912416
C13   C     C_R   0.944748 0.643339 0.467981 -0.017428
C14   C     C_R   0.940480 0.570458 0.237118 0.398684
C15   C     C_R   0.889045 0.578484 0.238117 -0.125200
C16   C     C_R   0.865593 0.606799 0.360565 -0.102322
C17   C     C_R   0.893740 0.648623 0.472769 -0.102707
C18   C     C_R   0.871066 0.691047 0.591121 -0.227345
C19   C     C_R   0.819884 0.689844 0.593991 0.592813
C20   C     C_R   0.815250 0.591178 0.377416 0.639789
C21   C     C_R   0.728520 0.510341 0.581754 -0.232810
C22   C     C_R   0.679820 0.472493 0.582492 -0.141558
C23   C     C_R   0.504745 0.737693 0.502588 0.978757
C24   C     C_R   0.660095 0.641157 0.429882 0.290176
C25   C     C_R   0.709215 0.680501 0.435161 0.436643
C26   C     C_R   0.743108 0.610835 0.506405 0.198579
C27   C     C_R   0.016198 0.545318 0.372244 -0.015387
C28   C     C_R   0.045765 0.614053 0.465283 0.075332
C29   C     C_R   0.024592 0.702585 0.555268 0.020580
C30   C     C_R   0.035994 0.438885 0.302825 -0.133145
C31   C     C_R   0.105503 0.773443 0.624629 -0.158740
C32   C     C_R   0.950975 0.727233 0.696157 0.429550
C33   C     C_R   0.900264 0.727558 0.703729 0.472743
C34   C     C_R   0.593907 0.504478 0.501191 1.011642
C35   C     C_R   0.055166 0.792586 0.622954 -0.100013
C36   C     C_2   0.528460 0.932158 0.399657 0.454896
C37   C     C_2   0.520659 0.867881 0.511257 -0.256704
C38   C     C_2   0.529033 0.069235 0.407675 -0.215795
C39   C     C_2   0.498628 0.129631 0.489506 -0.313762
C40   C     C_2   0.534606 0.549103 0.929991 0.002554
C41   C     C_2   0.529143 0.566906 0.077464 0.097348
C42   C     C_R   0.167679 0.476570 0.403915 0.652033
C43   C     C_R   0.175911 0.649505 0.559842 0.624719
C44   C     C_R   0.278712 0.615337 0.411604 0.492250
C45   C     C_R   0.329894 0.604354 0.414277 -0.168176
C46   C     C_R   0.327287 0.434470 0.578371 -0.209781
H1    H     H_    0.346885 0.368127 0.638388 0.184853
H2    H     H_    0.128891 0.839599 0.679720 0.225044
H3    H     H_    0.552357 0.120031 0.341700 0.187693
H4    H     H_    0.257797 0.479387 0.543602 0.165461
H5    H     H_    0.473385 0.081605 0.552257 0.146461
H6    H     H_    0.466722 0.489814 0.892169 0.240353
H7    H     H_    0.552037 0.636758 0.129084 0.146889
H8    H     H_    0.755987 0.458339 0.635360 0.197062
N1    N     N_R   0.195307 0.552896 0.486556 -0.331832
N2    N     N_R   0.793880 0.633892 0.491593 -0.323570
N3    N     N_2   0.500520 0.501330 0.852150 -0.199390
N4    N     N_2   0.500540 0.501360 0.147810 0.040090
O1    O     O_R   0.499990 0.319060 0.613040 -0.590923
O2    O     O_2   0.787850 0.528820 0.283940 -0.495475
O3    O     O_2   0.205116 0.722575 0.639328 -0.512529
O4    O     O_2   0.795944 0.742892 0.697332 -0.475226
O5    O     O_R   0.500010 0.319100 0.386900 -0.633561
O6    O     O_R   0.428750 0.500000 0.613050 -0.616818
O7    O     O_R   0.428760 0.500040 0.386920 -0.615241
O8    O     O_R   0.499990 0.680900 0.613100 -0.577067
O9    O     O_R   0.500010 0.680940 0.386960 -0.536132
O10   O     O_R   0.571240 0.499960 0.613080 -0.612856
O11   O     O_R   0.571250 0.500000 0.386950 -0.575712
O12   O     O_2   0.189692 0.384251 0.332657 -0.438752
Zn1   Zn    Zn3+2 0.499990 0.499970 0.650990 1.037252
Zn2   Zn    Zn3+2 0.500010 0.500030 0.349010 1.058217
O13   O     O_3   0.253502 0.701846 0.337693 -0.703720
H9    H     H_    0.275794 0.768406 0.309693 0.360376
O14   O     O_3   0.976783 0.744866 0.814495 -0.696958
H10   H     H_    0.006648 0.693113 0.810306 0.338889
O15   O     O_3   0.625537 0.702126 0.354344 -0.744395
H11   H     H_    0.641364 0.735760 0.275370 0.362842
O16   O     O_3   0.880750 0.754165 0.826489 -0.634262
H12   H     H_    0.858612 0.683723 0.844967 0.362621
O17   O     O_3   0.725562 0.785253 0.372162 -0.707190
H13   H     H_    0.698592 0.846353 0.366250 0.354815
C47   C     C_2   0.036375 0.913645 0.679216 1.009450
O18   O     O_2   0.058258 0.968507 0.771026 -0.563430
O19   O     O_R   0.994407 0.966974 0.624550 -0.768053
H14   H     H_    0.985449 0.049475 0.670891 0.372176
O20   O     O_3   0.531411 0.870936 0.276446 -0.717684
H15   H     H_    0.535611 0.934413 0.207724 0.343934
C48   C     C_2   0.532866 0.922968 0.646794 0.915780
O21   O     O_2   0.506183 0.904657 0.740251 -0.567517
O22   O     O_R   0.575082 0.995064 0.666652 -0.779653
H16   H     H_    0.579646 0.025695 0.762629 0.356155
C49   C     C_2   0.580245 0.596358 0.875774 0.943068
O23   O     O_2   0.619080 0.552704 0.912909 -0.586640
O24   O     O_R   0.579354 0.695867 0.789200 -0.760544
H17   H     H_    0.613091 0.721010 0.760555 0.346432
O25   O     O_3   0.482075 0.396446 0.088835 -0.696547
H18   H     H_    0.463993 0.354970 0.159275 0.382047
O26   O     O_3   0.106891 0.308783 0.252765 -0.646863
H19   H     H_    0.083527 0.238078 0.254021 0.350376
C50   C     C_2   0.666762 0.361167 0.659724 1.010375
O27   O     O_2   0.690836 0.335602 0.758632 -0.552477
O28   O     O_R   0.627979 0.283339 0.618228 -0.802046
H20   H     H_    0.622925 0.211689 0.680065 0.373155
C51   C     C_2   0.860950 0.559184 0.111537 0.994921
O29   O     O_2   0.829987 0.635378 0.079854 -0.528048
O30   O     O_R   0.870451 0.454883 0.027947 -0.762276
H21   H     H_    0.849243 0.452592 0.944337 0.351140
O31   O     O_3   0.966316 0.560318 0.120329 -0.717322
H22   H     H_    0.946179 0.589524 0.045077 0.374160
C52   C     C_2   0.003633 0.345681 0.231434 0.989054
O32   O     O_2   0.013332 0.307497 0.118946 -0.523885
O33   O     O_R   0.961922 0.302367 0.293144 -0.791557
H23   H     H_    0.942575 0.240410 0.234381 0.377646
C53   C     C_2   0.359445 0.687715 0.332100 0.927113
O34   O     O_2   0.390888 0.755047 0.384705 -0.621711
O35   O     O_R   0.351122 0.689079 0.194631 -0.757457
H24   H     H_    0.373596 0.749255 0.149444 0.359786

loop_
_geom_bond_atom_site_label_1
_geom_bond_atom_site_label_2
_ccdc_geom_bond_type
C19   N2    A    
C10   C27   A    
C14   O31   S    
C39   H5    S    
C21   C26   A    
C50   O27   D    
O13   H9    S    
O24   H17   S    
C40   C49   S    
C20   N2    A    
C32   O14   S    
O25   H18   S    
C38   H3    S    
O15   H11   S    
C2    C46   A    
C51   O30   S    
C49   O23   D    
C22   C50   S    
C47   O18   D    
C23   O8    A    
C28   C29   A    
C41   N4    D    
C18   C19   A    
C1    O1    A    
O19   H14   S    
C21   H8    S    
C12   O6    A    
C9    C22   A    
C19   O4    S    
C53   O34   D    
C42   O12   S    
O9    Zn2   S    
O6    Zn1   S    
C23   O9    A    
C8    C45   A    
C2    H4    S    
C3    N1    S    
O26   H19   S    
C16   C17   A    
C53   O35   S    
O30   H21   S    
C7    C43   A    
C48   O22   S    
C8    C12   S    
C50   O28   S    
C21   C22   A    
C27   C30   A    
C25   O17   S    
N4    O25   S    
C4    C7    A    
C1    O5    A    
C4    C28   A    
O17   H13   S    
C36   O20   S    
C38   C39   D    
C3    C44   A    
C7    C31   A    
C24   C25   A    
C10   C14   A    
C34   O10   A    
O22   H16   S    
C35   C47   S    
C33   O16   S    
C25   C26   A    
C23   C37   S    
O11   Zn2   S    
O14   H10   S    
C42   N1    A    
C45   C53   S    
O8    Zn1   S    
C16   C20   A    
C17   C18   A    
C52   O33   S    
N3    Zn1   S    
C34   O11   A    
C41   H7    S    
C43   N1    A    
C40   C41   S    
C6    C30   A    
C11   C32   A    
C31   H2    S    
C9    C34   S    
C31   C35   A    
C20   O2    S    
O28   H20   S    
C44   C45   A    
C43   O3    S    
C5    C42   A    
O33   H23   S    
C51   O29   D    
C46   H1    S    
C36   C37   D    
C40   N3    D    
C52   O32   D    
C47   O19   S    
C4    C5    A    
C10   C13   A    
C26   N2    S    
C9    C24   A    
C37   C48   S    
O7    Zn2   S    
C12   O7    A    
C29   C35   A    
C13   C17   A    
C30   C52   S    
C32   C33   A    
C15   C51   S    
C36   C38   S    
C2    C3    A    
O31   H22   S    
C6    O26   S    
C11   C13   A    
N4    Zn2   S    
C5    C6    A    
O10   Zn1   S    
C44   O13   S    
C18   C33   A    
C8    C46   A    
H6    N3    S    
C1    C39   S    
O16   H12   S    
C24   O15   S    
O5    Zn2   S    
C11   C29   A    
O20   H15   S    
C49   O24   S    
C27   C28   A    
C14   C15   A    
C48   O21   D    
O35   H24   S    
C15   C16   A    
O1    Zn1   S    
