data_mof_unit_21868.cif
_audit_creation_date              2012-12-10T20:55:03-0500
_audit_creation_method            fapswitch 2.2
_symmetry_space_group_name_H-M    P1
_symmetry_Int_Tables_number       1
_space_group_crystal_system       triclinic
_cell_length_a                    15.799517
_cell_length_b                    15.035833
_cell_length_c                    10.573131
_cell_angle_alpha                 88.223128
_cell_angle_beta                  90.115791
_cell_angle_gamma                 89.713209
_cell_volume                      2510.49620984

loop_
_atom_site_label
_atom_site_type_symbol
_atom_type_description
_atom_site_fract_x
_atom_site_fract_y
_atom_site_fract_z
_atom_type_partial_charge
C1    C     C_R   0.338736 0.500261 0.500740 0.938337
C2    C     C_R   0.661264 0.499758 0.500872 0.862928
C3    C     C_R   0.956892 0.417393 0.568055 0.013608
C4    C     C_R   0.046044 0.420520 0.581653 0.019484
C5    C     C_1   0.824256 0.497936 0.520447 0.035035
C6    C     C_1   0.176451 0.501318 0.530441 0.035266
C7    C     C_1   0.250745 0.500889 0.515125 -0.186944
C8    C     C_1   0.749553 0.498989 0.510268 -0.189434
C9    C     C_R   0.420904 0.953926 0.498219 -0.038091
C10   C     C_R   0.576171 0.952184 0.502441 -0.011172
C11   C     C_R   0.498383 0.905154 0.500808 -0.150892
C12   C     C_R   0.576194 0.046877 0.497168 0.450462
C13   C     C_R   0.422230 0.048310 0.504894 0.461502
C14   C     C_R   0.499424 0.095049 0.500691 -0.212731
C15   C     C_1   0.499065 0.807077 0.500284 0.043737
C16   C     C_1   0.499760 0.192897 0.500215 0.180218
C17   C     C_R   0.521731 0.501468 0.265047 0.914616
C18   C     C_R   0.500858 0.498284 0.742790 0.930668
C19   C     C_R   0.537021 0.671427 0.102042 0.401733
C20   C     C_R   0.427839 0.637046 0.900677 0.390544
C21   C     C_R   0.491237 0.742286 0.042841 0.294376
C22   C     C_R   0.433140 0.723499 0.947248 0.334431
C23   C     C_R   0.485804 0.570528 0.946229 -0.206518
C24   C     C_R   0.524163 0.583424 0.061678 -0.177302
C25   C     C_R   0.547187 0.506858 0.132781 -0.090342
C26   C     C_R   0.511892 0.495058 0.879064 -0.119303
C27   C     C_R   0.577928 0.431427 0.071252 0.072339
C28   C     C_R   0.565321 0.428302 0.938874 0.051364
C29   C     C_R   0.955796 0.577136 0.508242 0.414081
C30   C     C_R   0.043330 0.579425 0.518605 0.401038
C31   C     C_R   0.913415 0.496850 0.532389 -0.114793
C32   C     C_R   0.087639 0.500608 0.547139 -0.117060
N1    N     N_1   0.500000 0.270550 0.500000 -0.105305
N2    N     N_1   0.500000 0.729450 0.500000 -0.082020
O1    O     O_R   0.378020 0.573650 0.500040 -0.584898
O2    O     O_R   0.621980 0.573650 0.499960 -0.596493
O3    O     O_R   0.378020 0.426320 0.500100 -0.608292
O4    O     O_R   0.621980 0.426320 0.499900 -0.633179
O5    O     O_R   0.500000 0.573680 0.316780 -0.575429
O6    O     O_R   0.500000 0.573680 0.683220 -0.578960
O7    O     O_R   0.500000 0.426350 0.316830 -0.634300
O8    O     O_R   0.500000 0.426350 0.683170 -0.639836
Zn1   Zn    Zn3+2 0.500000 0.598370 0.500000 1.008566
Zn2   Zn    Zn3+2 0.500000 0.401630 0.500000 0.946792
C33   C     C_3   0.632710 0.362910 0.144754 -0.434795
C34   C     C_3   0.718885 0.403004 0.177493 -0.343283
C35   C     C_3   0.773250 0.337262 0.255165 -0.909483
H1    H     H_    0.741165 0.318998 0.345606 0.271850
H2    H     H_    0.785054 0.276195 0.201257 0.255615
H3    H     H_    0.834981 0.368298 0.277100 0.250862
H4    H     H_    0.752949 0.421878 0.088797 0.214250
H5    H     H_    0.709768 0.463968 0.232804 0.211416
H6    H     H_    0.601603 0.338012 0.232142 0.230927
H7    H     H_    0.643131 0.301092 0.093007 0.199021
C36   C     C_3   0.611404 0.357437 0.863979 -0.393536
C37   C     C_3   0.559065 0.271532 0.859101 -0.336645
C38   C     C_3   0.607348 0.198175 0.793303 -0.839009
H8    H     H_    0.664383 0.178603 0.849174 0.253707
H9    H     H_    0.566251 0.138925 0.785039 0.246345
H10   H     H_    0.626636 0.221278 0.696932 0.286782
H11   H     H_    0.542672 0.247362 0.956266 0.209039
H12   H     H_    0.498627 0.284300 0.807895 0.240312
H13   H     H_    0.628584 0.382051 0.767694 0.213375
H14   H     H_    0.674979 0.343201 0.904607 0.189068
O9    O     O_3   0.595810 0.688485 0.195303 -0.577173
C39   C     C_3   0.677345 0.687329 0.141529 -0.337208
H15   H     H_    0.682971 0.737631 0.062467 0.172941
H16   H     H_    0.694292 0.619989 0.108580 0.154839
H17   H     H_    0.723841 0.704748 0.215332 0.180545
O10   O     O_3   0.367267 0.620368 0.809675 -0.566104
C40   C     C_3   0.305666 0.562862 0.862462 -0.297478
H18   H     H_    0.279522 0.588502 0.952164 0.163329
H19   H     H_    0.331386 0.494444 0.878139 0.153929
H20   H     H_    0.252415 0.558926 0.794517 0.171707
O11   O     O_3   0.506634 0.831016 0.066683 -0.593503
C41   C     C_3   0.496634 0.848447 0.195856 -0.160164
H21   H     H_    0.558637 0.843144 0.244887 0.194347
H22   H     H_    0.448873 0.804807 0.243788 0.147381
H23   H     H_    0.474945 0.918303 0.203899 0.152581
O12   O     O_3   0.377692 0.789392 0.905450 -0.561231
C42   C     C_3   0.409152 0.827828 0.792167 -0.197457
H24   H     H_    0.402945 0.780714 0.714021 0.184051
H25   H     H_    0.476014 0.849989 0.801665 0.154222
H26   H     H_    0.370555 0.887620 0.767520 0.158801
O13   O     O_3   0.085959 0.657839 0.491158 -0.591625
C43   C     C_3   0.099011 0.701930 0.605299 -0.257936
H27   H     H_    0.138357 0.661162 0.672844 0.153351
H28   H     H_    0.037770 0.720026 0.649867 0.174216
H29   H     H_    0.133759 0.764509 0.584246 0.185914
O14   O     O_3   0.911151 0.654800 0.480344 -0.587953
C44   C     C_3   0.904829 0.665889 0.347732 -0.284811
H30   H     H_    0.869198 0.728217 0.325653 0.176403
H31   H     H_    0.869357 0.610228 0.305631 0.140345
H32   H     H_    0.968307 0.672507 0.303098 0.189152
C45   C     C_3   0.908009 0.330793 0.586625 -0.367964
C46   C     C_3   0.885160 0.313677 0.726016 -0.348084
C47   C     C_3   0.840501 0.224627 0.745065 -0.878807
H33   H     H_    0.782845 0.222703 0.685060 0.282359
H34   H     H_    0.883445 0.169236 0.719830 0.264110
H35   H     H_    0.821905 0.215428 0.845822 0.243688
H36   H     H_    0.942983 0.313249 0.785691 0.224053
H37   H     H_    0.842611 0.367657 0.757919 0.219403
H38   H     H_    0.848751 0.332244 0.530058 0.205028
H39   H     H_    0.943491 0.274039 0.547761 0.186783
C48   C     C_3   0.098371 0.341518 0.633161 -0.367775
C49   C     C_3   0.134253 0.360366 0.764972 -0.336725
C50   C     C_3   0.195418 0.287335 0.810458 -0.913689
H40   H     H_    0.163641 0.221576 0.812313 0.261269
H41   H     H_    0.251315 0.285502 0.747059 0.262371
H42   H     H_    0.217610 0.301291 0.907530 0.253115
H43   H     H_    0.168551 0.424536 0.763887 0.216909
H44   H     H_    0.081572 0.365153 0.833859 0.211762
H45   H     H_    0.062097 0.279063 0.641911 0.197893
H46   H     H_    0.150725 0.327740 0.566346 0.209918
O15   O     O_3   0.346743 0.095234 0.508833 -0.604168
C51   C     C_3   0.328133 0.113165 0.636046 -0.329263
H47   H     H_    0.371144 0.164688 0.672710 0.166352
H48   H     H_    0.331110 0.052257 0.698569 0.146929
H49   H     H_    0.262553 0.139413 0.640455 0.197642
O16   O     O_3   0.652115 0.092377 0.498572 -0.608882
C52   C     C_3   0.674435 0.115864 0.372789 -0.366449
H50   H     H_    0.630472 0.166934 0.331425 0.171037
H51   H     H_    0.676630 0.056870 0.311682 0.157020
H52   H     H_    0.738734 0.145095 0.373211 0.198713
C53   C     C_3   0.335744 0.906991 0.491640 -0.371676
C54   C     C_3   0.291807 0.924128 0.363460 -0.318456
C55   C     C_3   0.207412 0.875482 0.357674 -0.847432
H53   H     H_    0.217353 0.802560 0.370653 0.281154
H54   H     H_    0.164133 0.899120 0.432310 0.257887
H55   H     H_    0.177316 0.888816 0.263960 0.253350
H56   H     H_    0.279919 0.996357 0.346694 0.264150
H57   H     H_    0.332700 0.900694 0.286187 0.214034
H58   H     H_    0.342273 0.834058 0.507706 0.196842
H59   H     H_    0.294125 0.930272 0.568474 0.208541
C56   C     C_3   0.659677 0.901341 0.508136 -0.353725
C57   C     C_3   0.677527 0.863979 0.642338 -0.352081
C58   C     C_3   0.757206 0.806093 0.645547 -0.819878
H60   H     H_    0.749233 0.748337 0.583588 0.288452
H61   H     H_    0.812877 0.845459 0.613313 0.265119
H62   H     H_    0.769017 0.780731 0.743789 0.237832
H63   H     H_    0.685984 0.919976 0.707377 0.234308
H64   H     H_    0.623602 0.823082 0.677369 0.221003
H65   H     H_    0.658282 0.846616 0.439830 0.196745
H66   H     H_    0.713488 0.944314 0.478697 0.230224

loop_
_geom_bond_atom_site_label_1
_geom_bond_atom_site_label_2
_ccdc_geom_bond_type
C53   H59   S    
C39   H16   S    
C36   C37   S    
C54   C55   S    
C46   H37   S    
C6    C32   S    
C45   C46   S    
C18   C26   S    
C41   H23   S    
C47   H35   S    
C47   H33   S    
C38   H8    S    
C56   C57   S    
C35   H2    S    
C49   H44   S    
O13   C43   S    
C37   C38   S    
C58   H61   S    
C57   H63   S    
C48   H45   S    
C19   C21   A    
C41   H22   S    
C18   O8    A    
C43   H28   S    
C38   H9    S    
C39   H17   S    
C49   C50   S    
C53   H58   S    
O15   C51   S    
C34   H5    S    
C51   H47   S    
C17   O5    A    
C23   C26   A    
C9    C13   A    
C52   H52   S    
C57   H64   S    
C47   H34   S    
C12   O16   S    
C11   C15   S    
O6    Zn1   S    
C36   H13   S    
C23   C24   A    
O10   C40   S    
C13   C14   A    
O1    Zn1   S    
C15   N2    T    
C1    O3    A    
C27   C33   S    
C56   H65   S    
C39   H15   S    
C33   H6    S    
C21   C22   A    
C36   H14   S    
C50   H41   S    
C20   O10   S    
O8    Zn2   S    
C29   O14   S    
C42   H25   S    
C28   C36   S    
C45   H38   S    
C42   H24   S    
C35   H3    S    
C49   H43   S    
C58   H62   S    
C48   H46   S    
C24   C25   A    
C44   H30   S    
C40   H19   S    
C43   H27   S    
C57   C58   S    
C38   H10   S    
O5    Zn1   S    
C33   C34   S    
C34   H4    S    
C9    C53   S    
O11   C41   S    
C55   H54   S    
O4    Zn2   S    
C29   C30   A    
C16   N1    T    
C44   H31   S    
C2    O4    A    
C35   H1    S    
C20   C23   A    
C54   H57   S    
C50   H40   S    
C46   C47   S    
C37   H11   S    
C4    C32   A    
C41   H21   S    
C30   O13   S    
C3    C31   A    
C9    C11   A    
C52   H50   S    
C13   O15   S    
C10   C12   A    
C56   H66   S    
C12   C14   A    
C33   H7    S    
C53   C54   S    
O7    Zn2   S    
C37   H12   S    
C5    C8    T    
C55   H53   S    
C42   H26   S    
C45   H39   S    
C1    O1    A    
C48   C49   S    
C4    C48   S    
C2    O2    A    
C34   C35   S    
C1    C7    S    
N1    Zn2   S    
C2    C8    S    
N2    Zn1   S    
C20   C22   A    
O12   C42   S    
C43   H29   S    
C40   H20   S    
C6    C7    T    
C25   C27   A    
C58   H60   S    
C21   O11   S    
C26   C28   A    
C51   H49   S    
C17   C25   S    
O3    Zn2   S    
C19   C24   A    
C55   H55   S    
C22   O12   S    
C10   C56   S    
C29   C31   A    
C44   H32   S    
C30   C32   A    
O14   C44   S    
C54   H56   S    
C50   H42   S    
C51   H48   S    
C19   O9    S    
C14   C16   S    
C17   O7    A    
C52   H51   S    
C10   C11   A    
C40   H18   S    
C18   O6    A    
O9    C39   S    
C27   C28   A    
O16   C52   S    
O2    Zn1   S    
C3    C45   S    
C46   H36   S    
C3    C4    A    
C5    C31   S    
