data_mof_unit_36957.cif
_audit_creation_date              2012-12-10T17:07:16-0500
_audit_creation_method            fapswitch 2.2
_symmetry_space_group_name_H-M    P1
_symmetry_Int_Tables_number       1
_space_group_crystal_system       triclinic
_cell_length_a                    18.306655
_cell_length_b                    18.440786
_cell_length_c                    18.441469
_cell_angle_alpha                 120.605622
_cell_angle_beta                  120.123417
_cell_angle_gamma                 59.241634
_cell_volume                      4352.25779831

loop_
_atom_site_label
_atom_site_type_symbol
_atom_type_description
_atom_site_fract_x
_atom_site_fract_y
_atom_site_fract_z
_atom_type_partial_charge
C1    C     C_R   0.140679 0.859926 0.639773 0.556937
C2    C     C_R   0.917375 0.334497 0.968391 0.064332
C3    C     C_R   0.964284 0.292886 0.908293 0.248551
C4    C     C_R   0.864030 0.140848 0.360532 0.563770
C5    C     C_R   0.926767 0.246733 0.819757 -0.033827
C6    C     C_R   0.810887 0.344496 0.433062 0.254466
C7    C     C_R   0.753699 0.427154 0.474247 0.018607
C8    C     C_R   0.665222 0.463395 0.421414 0.263101
C9    C     C_R   0.637972 0.420879 0.328190 0.283543
C10   C     C_R   0.698768 0.340158 0.287798 -0.070493
C11   C     C_R   0.776228 0.294059 0.343132 -0.033746
C12   C     C_R   0.558357 0.268142 0.663183 -0.011277
C13   C     C_R   0.813136 0.199191 0.306101 0.006674
C14   C     C_R   0.789186 0.158003 0.213676 -0.080368
C15   C     C_R   0.730011 0.208361 0.158028 0.230152
C16   C     C_R   0.139753 0.140474 0.647629 0.601372
C17   C     C_R   0.685287 0.301579 0.194723 0.058576
C18   C     C_R   0.793795 0.798669 0.435600 0.259295
C19   C     C_R   0.818189 0.733803 0.470650 0.047595
C20   C     C_R   0.813300 0.648175 0.410614 0.222809
C21   C     C_R   0.774323 0.633215 0.319319 -0.060613
C22   C     C_R   0.750650 0.698473 0.285644 -0.066015
C23   C     C_R   0.653345 0.258969 0.708625 -0.010877
C24   C     C_R   0.778285 0.773132 0.343718 -0.005595
C25   C     C_R   0.788977 0.817570 0.306661 0.057516
C26   C     C_R   0.744992 0.805237 0.214772 0.223556
C27   C     C_R   0.698249 0.745578 0.161441 -0.086880
C28   C     C_R   0.854610 0.865129 0.360403 0.533412
C29   C     C_R   0.701046 0.691438 0.195768 -0.016332
C30   C     C_R   0.121750 0.912374 0.812964 0.281745
C31   C     C_R   0.090251 0.919877 0.872834 0.270818
C32   C     C_R   0.107318 0.843091 0.884123 -0.127786
C33   C     C_R   0.163314 0.759815 0.843590 -0.000576
C34   C     C_R   0.711844 0.202730 0.656835 -0.031451
C35   C     C_R   0.215639 0.757927 0.805651 -0.018743
C36   C     C_R   0.180024 0.827212 0.772518 -0.033070
C37   C     C_R   0.198945 0.804794 0.696475 0.058482
C38   C     C_R   0.265259 0.721552 0.667053 0.015444
C39   C     C_R   0.322169 0.668319 0.722589 0.005908
C40   C     C_R   0.139829 0.859826 0.359971 0.556830
C41   C     C_R   0.297839 0.688083 0.794158 0.034489
C42   C     C_R   0.237737 0.937168 0.344589 0.212877
C43   C     C_R   0.298352 0.965822 0.347942 0.055537
C44   C     C_R   0.356623 0.905835 0.297558 0.227918
C45   C     C_R   0.693207 0.302411 0.802187 0.045313
C46   C     C_R   0.355407 0.819339 0.245910 -0.077531
C47   C     C_R   0.301340 0.786555 0.247118 -0.062024
C48   C     C_R   0.243902 0.844335 0.299365 0.003448
C49   C     C_R   0.194017 0.807013 0.302180 0.058124
C50   C     C_R   0.195252 0.717399 0.249314 -0.001888
C51   C     C_R   0.254171 0.660603 0.199060 0.013381
C52   C     C_R   0.860648 0.140322 0.640333 0.493788
C53   C     C_R   0.303950 0.696783 0.196179 0.051276
C54   C     C_R   0.312795 0.088918 0.800650 0.270915
C55   C     C_R   0.400070 0.061917 0.859193 0.251333
C56   C     C_R   0.786390 0.293730 0.842027 0.011420
C57   C     C_R   0.445316 0.122511 0.915884 -0.044943
C58   C     C_R   0.406464 0.208254 0.911943 0.228651
C59   C     C_R   0.329871 0.228558 0.837967 -0.035461
C60   C     C_R   0.278877 0.169636 0.783147 -0.078884
C61   C     C_R   0.192370 0.199455 0.721110 0.032757
C62   C     C_R   0.153248 0.291186 0.730630 0.243000
C63   C     C_R   0.208116 0.341371 0.768983 -0.007942
C64   C     C_R   0.678563 0.153673 0.565726 -0.036942
C65   C     C_R   0.299353 0.308158 0.820473 0.011335
C66   C     C_R   0.642902 0.637058 0.139894 0.528303
C67   C     C_R   0.838360 0.246515 0.785277 -0.055316
C68   C     C_R   0.358758 0.360295 0.861374 0.537516
C69   C     C_R   0.636201 0.359321 0.139685 0.618888
C70   C     C_R   0.358382 0.638776 0.857997 0.512685
C71   C     C_R   0.359951 0.639604 0.139672 0.504854
C72   C     C_R   0.637948 0.359718 0.858454 0.542338
C73   C     C_R   0.590346 0.157289 0.525721 0.259880
C74   C     C_R   0.531243 0.213166 0.573530 -0.056393
C75   C     C_3   0.784142 0.470593 0.574946 -0.221643
C76   C     C_3   0.817922 0.545186 0.605489 -0.344209
C77   C     C_3   0.848661 0.756877 0.570654 -0.231663
C78   C     C_R   0.802415 0.197989 0.695141 0.031072
C79   C     C_3   0.936636 0.775801 0.617048 -0.406175
C80   C     C_3   0.266945 0.682315 0.571993 -0.270297
C81   C     C_3   0.215283 0.616620 0.512586 -0.462117
C82   C     C_3   0.136987 0.679912 0.812222 -0.246187
C83   C     C_3   0.144042 0.612305 0.719913 -0.422401
C84   C     C_3   0.402755 0.585995 0.699948 -0.271704
C85   C     C_3   0.483076 0.612430 0.730864 -0.364998
C86   C     C_3   0.132709 0.682783 0.245788 -0.276692
C87   C     C_3   0.167131 0.658961 0.327932 -0.440830
C88   C     C_3   0.300494 0.060532 0.404086 -0.228252
C89   C     C_R   0.830394 0.330775 0.936495 0.228723
C90   C     C_3   0.241406 0.122721 0.349022 -0.360393
C91   C     C_3   0.271573 0.559493 0.156522 -0.239702
C92   C     C_3   0.208163 0.533109 0.061142 -0.419607
C93   C     C_3   0.165493 0.428942 0.751082 -0.219886
C94   C     C_3   0.119012 0.507243 0.819263 -0.378941
C95   C     C_3   0.484374 0.335521 0.705930 -0.274946
C96   C     C_3   0.386742 0.356343 0.643231 -0.471361
C97   C     C_3   0.959828 0.382693 0.066401 -0.215906
C98   C     C_3   0.916955 0.484459 0.089271 -0.421306
Cl1   Cl    Cl    0.072064 0.294579 0.940259 -0.534687
Cl2   Cl    Cl    0.018941 0.022681 0.925476 -0.459242
Cl3   Cl    Cl    0.148230 0.023145 0.386615 -0.604525
Cl4   Cl    Cl    0.552495 0.093446 0.413001 -0.452786
Cl5   Cl    Cl    0.431250 0.936889 0.294368 -0.498015
Cl6   Cl    Cl    0.034574 0.348615 0.702640 -0.565740
Cl7   Cl    Cl    0.242948 0.035056 0.776288 -0.417591
Cl8   Cl    Cl    0.448113 0.958202 0.875118 -0.446997
Cl9   Cl    Cl    0.440007 0.291455 0.013736 -0.535819
Cl10  Cl    Cl    0.786720 0.361831 0.019410 -0.595349
Cl11  Cl    Cl    0.928793 0.318143 0.484224 -0.483551
Cl12  Cl    Cl    0.588571 0.563496 0.470947 -0.535293
Cl13  Cl    Cl    0.522005 0.456525 0.267172 -0.507610
Cl14  Cl    Cl    0.713635 0.148021 0.043066 -0.470145
Cl15  Cl    Cl    0.739228 0.867832 0.163672 -0.491425
Cl16  Cl    Cl    0.753714 0.913854 0.498557 -0.525285
Cl17  Cl    Cl    0.850159 0.558632 0.445289 -0.634780
Cl18  Cl    Cl    0.092143 0.012438 0.797950 -0.439561
H1    H     H_    0.766576 0.568668 0.274824 0.186035
H2    H     H_    0.880381 0.516753 0.589775 0.236562
H3    H     H_    0.765979 0.596068 0.572943 0.219818
H4    H     H_    0.833722 0.578702 0.678794 0.142030
H5    H     H_    0.728440 0.497803 0.600538 0.177452
H6    H     H_    0.838396 0.419787 0.606823 0.219708
H7    H     H_    0.987513 0.719712 0.584994 0.146612
H8    H     H_    0.962487 0.783290 0.688417 0.145945
H9    H     H_    0.926196 0.838772 0.613323 0.224811
H10   H     H_    0.795938 0.816349 0.598114 0.204337
H11   H     H_    0.859235 0.702016 0.587923 0.185917
H12   H     H_    0.720533 0.111405 0.523684 0.168449
H13   H     H_    0.233641 0.570331 0.545295 0.156470
H14   H     H_    0.141800 0.654284 0.497249 0.143841
H15   H     H_    0.231035 0.575369 0.449457 0.154313
H16   H     H_    0.237482 0.733009 0.540936 0.162435
H17   H     H_    0.336644 0.648672 0.570168 0.168171
H18   H     H_    0.099962 0.572718 0.689310 0.145425
H19   H     H_    0.122052 0.646995 0.674176 0.149894
H20   H     H_    0.213992 0.565246 0.724927 0.151750
H21   H     H_    0.175203 0.647211 0.863021 0.189999
H22   H     H_    0.065289 0.704249 0.806257 0.122015
H23   H     H_    0.659792 0.741386 0.092522 0.187980
H24   H     H_    0.466389 0.657020 0.697075 0.180411
H25   H     H_    0.503449 0.647976 0.803968 0.204915
H26   H     H_    0.540807 0.551203 0.714735 0.145472
H27   H     H_    0.423059 0.536925 0.729626 0.146218
H28   H     H_    0.386438 0.546431 0.627888 0.139236
H29   H     H_    0.125156 0.625431 0.317867 0.135115
H30   H     H_    0.238063 0.612781 0.339320 0.178002
H31   H     H_    0.162478 0.720048 0.387801 0.139552
H32   H     H_    0.063427 0.732075 0.237523 0.179893
H33   H     H_    0.123137 0.623026 0.186294 0.151422
H34   H     H_    0.070827 0.847116 0.918346 0.157406
H35   H     H_    0.265154 0.098261 0.293078 0.216413
H36   H     H_    0.170408 0.126574 0.321662 0.212226
H37   H     H_    0.244508 0.191147 0.391955 0.144579
H38   H     H_    0.278585 0.088630 0.462221 0.184786
H39   H     H_    0.370456 0.060319 0.433636 0.199272
H40   H     H_    0.139226 0.583573 0.053015 0.147379
H41   H     H_    0.234476 0.525822 0.014569 0.188834
H42   H     H_    0.204779 0.467187 0.042788 0.193889
H43   H     H_    0.341776 0.520884 0.155918 0.219125
H44   H     H_    0.266639 0.535447 0.197600 0.170840
H45   H     H_    0.399183 0.777690 0.205718 0.164490
H46   H     H_    0.090765 0.485322 0.842602 0.208840
H47   H     H_    0.166858 0.539029 0.878383 0.155932
H48   H     H_    0.062931 0.558611 0.789067 0.130562
H49   H     H_    0.213797 0.444244 0.746459 0.137641
H50   H     H_    0.114659 0.421572 0.683277 0.196657
H51   H     H_    0.379185 0.374664 0.590401 0.159504
H52   H     H_    0.364149 0.298542 0.613155 0.153546
H53   H     H_    0.342153 0.414206 0.682023 0.121473
H54   H     H_    0.488391 0.311093 0.752056 0.179929
H55   H     H_    0.494099 0.400986 0.741981 0.135334
H56   H     H_    0.506377 0.106130 0.969799 0.214645
H57   H     H_    0.926584 0.505285 0.048659 0.174642
H58   H     H_    0.843892 0.507145 0.076640 0.193347
H59   H     H_    0.949290 0.517848 0.160867 0.138946
H60   H     H_    0.953834 0.362349 0.109858 0.207355
H61   H     H_    0.033137 0.364403 0.084696 0.203258
H62   H     H_    0.462963 0.213555 0.538223 0.147826
H63   H     H_    0.968081 0.212400 0.777867 0.198464
H64   H     H_    0.817775 0.085935 0.184063 0.197699
O1    O     O_3   0.000000 0.000000 0.500000 -0.476456
O2    O     O_R   0.323460 0.615830 0.884170 -0.566283
O3    O     O_R   0.444880 0.615840 0.176480 -0.494964
O4    O     O_R   0.055060 0.884200 0.615800 -0.542405
O5    O     O_R   0.615800 0.444940 0.884180 -0.542729
O6    O     O_R   0.323440 0.615840 0.055040 -0.565797
O7    O     O_R   0.615780 0.323500 0.884180 -0.494190
O8    O     O_R   0.615760 0.323500 0.055050 -0.427768
O9    O     O_R   0.444910 0.615830 0.884180 -0.544618
O10   O     O_R   0.615780 0.615830 0.176490 -0.527529
O11   O     O_R   0.323430 0.444950 0.884170 -0.572599
O12   O     O_R   0.055100 0.176520 0.615800 -0.439887
O13   O     O_R   0.884210 0.176520 0.444920 -0.493857
O14   O     O_R   0.176540 0.055080 0.615800 -0.485059
O15   O     O_R   0.884190 0.884200 0.323480 -0.501838
O16   O     O_R   0.176540 0.884190 0.444930 -0.517309
O17   O     O_R   0.884180 0.055090 0.615790 -0.481233
O18   O     O_R   0.055100 0.884190 0.323490 -0.526589
O19   O     O_R   0.884190 0.176530 0.615790 -0.554901
O20   O     O_R   0.884180 0.884200 0.444920 -0.528938
O21   O     O_R   0.176510 0.884190 0.615800 -0.500777
O22   O     O_R   0.884210 0.055080 0.323480 -0.515015
O23   O     O_3   0.499970 0.500030 0.999970 -0.457220
O24   O     O_R   0.615800 0.615830 0.055050 -0.533215
O25   O     O_R   0.444880 0.323510 0.884180 -0.501114
O26   O     O_R   0.615760 0.444950 0.176490 -0.500422
Zn1   Zn    Zn3+2 0.956630 0.130130 0.543370 1.063624
Zn2   Zn    Zn3+2 0.130140 0.956620 0.543380 1.044322
Zn3   Zn    Zn3+2 0.956630 0.956620 0.369870 1.016580
Zn4   Zn    Zn3+2 0.956610 0.956630 0.543370 0.989956
Zn5   Zn    Zn3+2 0.543340 0.369890 0.956600 1.070440
Zn6   Zn    Zn3+2 0.543340 0.543410 0.130100 1.050362
Zn7   Zn    Zn3+2 0.369830 0.543410 0.956590 0.897818
Zn8   Zn    Zn3+2 0.543370 0.543400 0.956600 0.953843

loop_
_geom_bond_atom_site_label_1
_geom_bond_atom_site_label_2
_ccdc_geom_bond_type
C9    Cl13  S    
C63   C65   A    
C17   C69   S    
C93   C94   S    
C80   H16   S    
C87   H30   S    
C12   C74   A    
C27   C29   A    
C75   H6    S    
C73   C74   A    
O23   Zn8   S    
C95   C96   S    
C5    C67   A    
C1    O21   A    
C18   Cl16  S    
C97   C98   S    
C81   H14   S    
C7    C8    A    
C39   C41   A    
C30   Cl18  S    
C25   C28   S    
C12   C23   A    
C26   C27   A    
C76   H4    S    
C87   H31   S    
C60   C61   A    
C23   C45   A    
C43   C88   S    
C92   H42   S    
C36   C37   A    
C22   C29   A    
C58   Cl9   S    
C39   C84   S    
O15   Zn3   S    
C82   H21   S    
C14   H64   S    
C30   C31   A    
C98   H58   S    
O8    Zn5   S    
C81   H15   S    
C84   H28   S    
C10   C17   A    
C40   C49   S    
O6    Zn7   S    
O24   Zn8   S    
C28   O15   A    
C42   C48   A    
O5    Zn8   S    
C89   Cl10  S    
O1    Zn3   S    
C18   C19   A    
C4    C13   S    
C19   C77   S    
O18   Zn3   S    
O10   Zn6   S    
C5    H63   S    
C83   H18   S    
C21   H1    S    
O17   Zn4   S    
C16   O12   A    
C51   C91   S    
C54   C55   A    
C97   H61   S    
C70   O2    A    
C35   C36   A    
C45   C56   A    
C8    C9    A    
C64   H12   S    
C46   H45   S    
O2    Zn7   S    
C64   C73   A    
C96   H52   S    
C12   C95   S    
C33   C82   S    
C94   H46   S    
C91   H43   S    
C77   H11   S    
C1    C37   S    
C47   C53   A    
C57   H56   S    
C66   O24   A    
C23   C34   A    
C79   H9    S    
C93   H49   S    
C59   C60   A    
C97   H60   S    
C13   C14   A    
C45   C72   S    
O23   Zn5   S    
C67   C78   A    
C52   C78   S    
C9    C10   A    
O19   Zn1   S    
C44   Cl5   S    
C44   C46   A    
C62   Cl6   S    
C77   C79   S    
C4    O13   A    
C76   H3    S    
C55   Cl8   S    
C88   H39   S    
C71   O3    A    
O1    Zn2   S    
C84   C85   S    
C2    C97   S    
C90   H36   S    
O9    Zn8   S    
C86   H33   S    
C85   H25   S    
C91   C92   S    
C98   H57   S    
C86   C87   S    
C90   H35   S    
C54   C60   A    
C68   O11   A    
O3    Zn6   S    
C79   H7    S    
O13   Zn1   S    
C27   H23   S    
C80   H17   S    
C92   H41   S    
C51   C53   A    
C88   H38   S    
O16   Zn2   S    
C2    C89   A    
C85   H24   S    
C75   C76   S    
C72   O7    A    
C37   C38   A    
C8    Cl12  S    
C4    O22   A    
C47   C48   A    
C74   H62   S    
C65   C68   S    
C62   C63   A    
C34   C64   A    
C50   C51   A    
C69   O26   A    
C96   H51   S    
C92   H40   S    
C52   O19   A    
C28   O20   A    
C31   Cl2   S    
C24   C25   A    
C90   H37   S    
C69   O8    A    
C83   H20   S    
C34   C78   A    
C73   Cl4   S    
C88   C90   S    
C93   H50   S    
C82   C83   S    
C96   H53   S    
C55   C57   A    
C43   C44   A    
C81   H13   S    
O12   Zn1   S    
C18   C24   A    
O23   Zn6   S    
C58   C59   A    
C42   C43   A    
C71   O6    A    
C53   C71   S    
C42   Cl3   S    
C94   H48   S    
C6    C11   A    
C40   O16   A    
C15   C17   A    
C46   C47   A    
C56   C89   A    
C87   H29   S    
C54   Cl7   S    
O1    Zn1   S    
C75   H5    S    
C83   H19   S    
C15   Cl14  S    
O23   Zn7   S    
C31   C32   A    
O7    Zn5   S    
C80   C81   S    
C3    C5    A    
C86   H32   S    
C85   H26   S    
C20   Cl17  S    
C7    C75   S    
O4    Zn4   S    
C6    C7    A    
C6    Cl11  S    
C56   C67   A    
O14   Zn2   S    
C79   H8    S    
C63   C93   S    
C84   H27   S    
C30   C36   A    
C32   C33   A    
C19   C20   A    
O20   Zn4   S    
C2    C3    A    
C25   C26   A    
C26   Cl15  S    
C82   H22   S    
C59   C65   A    
C98   H59   S    
C11   C13   A    
C91   H44   S    
C57   C58   A    
C38   C39   A    
C38   C80   S    
C48   C49   A    
C66   O10   A    
C40   O18   A    
C33   C35   A    
O21   Zn2   S    
C1    O4    A    
C22   C24   A    
O26   Zn6   S    
C61   C62   A    
C35   C41   A    
C95   H54   S    
C76   H2    S    
C72   O5    A    
C16   O14   A    
C10   C11   A    
C50   C86   S    
C29   C66   S    
C3    Cl1   S    
C32   H34   S    
C20   C21   A    
C49   C50   A    
C16   C61   S    
C68   O25   A    
O25   Zn5   S    
C14   C15   A    
O1    Zn4   S    
C52   O17   A    
O22   Zn3   S    
C21   C22   A    
C95   H55   S    
C94   H47   S    
O11   Zn7   S    
C77   H10   S    
C70   O9    A    
C41   C70   S    
