data_mof_unit_20005.cif
_audit_creation_date              2012-12-10T17:53:20-0500
_audit_creation_method            fapswitch 2.2
_symmetry_space_group_name_H-M    P1
_symmetry_Int_Tables_number       1
_space_group_crystal_system       triclinic
_cell_length_a                    23.160529
_cell_length_b                    10.510939
_cell_length_c                    9.968822
_cell_angle_alpha                 89.547617
_cell_angle_beta                  90.192976
_cell_angle_gamma                 93.062768
_cell_volume                      2423.24661681

loop_
_atom_site_label
_atom_site_type_symbol
_atom_type_description
_atom_site_fract_x
_atom_site_fract_y
_atom_site_fract_z
_atom_type_partial_charge
C1    C     C_R   0.509115 0.262453 0.501508 0.884509
C2    C     C_R   0.968320 0.493323 0.270779 -0.147804
C3    C     C_R   0.028256 0.494436 0.268412 -0.135091
C4    C     C_R   0.060891 0.549482 0.373901 -0.016980
C5    C     C_R   0.033164 0.608513 0.481015 -0.019203
C6    C     C_R   0.065928 0.664812 0.587711 -0.125461
C7    C     C_R   0.036383 0.721131 0.695633 -0.025922
C8    C     C_R   0.976037 0.723040 0.692663 -0.184235
C9    C     C_R   0.120732 0.542926 0.376974 0.525249
C10   C     C_R   0.126752 0.661336 0.580869 0.601161
C11   C     C_R   0.252975 0.670071 0.445565 0.478800
C12   C     C_R   0.389626 0.501975 0.499694 1.054957
C13   C     C_R   0.311973 0.647374 0.455781 0.318226
C14   C     C_R   0.328770 0.526442 0.497802 -0.340102
C15   C     C_R   0.287463 0.430940 0.536506 0.442409
C16   C     C_R   0.229203 0.457230 0.534139 -0.280293
C17   C     C_R   0.212044 0.575379 0.487951 0.086922
C18   C     C_R   0.768108 0.446215 0.552751 -0.107209
C19   C     C_R   0.707640 0.422672 0.543795 0.355694
C20   C     C_R   0.672821 0.520640 0.500070 -0.252436
C21   C     C_R   0.697104 0.639105 0.457526 0.438065
C22   C     C_R   0.756881 0.661312 0.463803 -0.203534
C23   C     C_R   0.510175 0.738898 0.500014 0.903965
C24   C     C_R   0.792095 0.566109 0.508695 0.121200
C25   C     C_R   0.552467 0.129812 0.751454 -0.185177
C26   C     C_R   0.553653 0.058162 0.869623 0.039706
C27   C     C_R   0.561878 0.928364 0.862775 -0.194875
C28   C     C_R   0.563068 0.870158 0.738216 -0.141281
C29   C     C_R   0.546133 0.935615 0.621496 0.100919
C30   C     C_R   0.543090 0.068890 0.626056 0.058426
C31   C     C_R   0.528659 0.133378 0.505367 -0.157403
C32   C     C_R   0.531184 0.070468 0.383170 -0.235535
C33   C     C_R   0.529743 0.939938 0.380453 -0.173224
C34   C     C_R   0.610476 0.501696 0.500152 0.956306
C35   C     C_R   0.530247 0.872096 0.500961 -0.108357
C36   C     C_R   0.414918 0.358271 0.146451 -0.170817
C37   C     C_R   0.364995 0.310412 0.085548 -0.292194
C38   C     C_R   0.361248 0.312386 0.948148 -0.230920
C39   C     C_R   0.409968 0.350537 0.870564 0.553444
C40   C     C_R   0.456225 0.429161 0.929807 0.045963
C41   C     C_R   0.457261 0.430537 0.074338 0.162566
C42   C     C_R   0.541771 0.563939 0.071012 -0.053060
C43   C     C_R   0.542196 0.562431 0.928677 -0.087703
C44   C     C_R   0.883291 0.654474 0.593176 0.621772
C45   C     C_R   0.879783 0.538812 0.387628 0.539689
C46   C     C_R   0.939982 0.547419 0.378571 -0.018766
C47   C     C_R   0.972350 0.607741 0.482495 -0.004929
C48   C     C_R   0.943823 0.664280 0.589167 -0.045015
H1    H     H_    0.944307 0.447609 0.189357 0.201159
H2    H     H_    0.776494 0.752698 0.433117 0.171768
H3    H     H_    0.529489 0.121968 0.289853 0.214357
H4    H     H_    0.556431 0.231455 0.763209 0.212394
H5    H     H_    0.566776 0.872264 0.953366 0.139961
H6    H     H_    0.575629 0.773241 0.734398 0.166001
H7    H     H_    0.523926 0.892771 0.284744 0.196575
H8    H     H_    0.576017 0.616625 0.123897 0.125292
H9    H     H_    0.048861 0.449714 0.184951 0.204018
H10   H     H_    0.419471 0.335062 0.249743 0.209619
H11   H     H_    0.330621 0.264141 0.144404 0.179978
H12   H     H_    0.322841 0.268710 0.901991 0.190227
H13   H     H_    0.577678 0.610957 0.876404 0.127368
H14   H     H_    0.954016 0.764989 0.775965 0.206429
H15   H     H_    0.196981 0.384915 0.566125 0.194602
N1    N     N_R   0.853099 0.588342 0.495895 -0.321427
N2    N     N_R   0.151870 0.596456 0.480222 -0.314472
N3    N     N_R   0.499460 0.498800 0.142780 -0.101449
N4    N     N_R   0.499440 0.498720 0.857170 -0.113657
O1    O     O_R   0.500000 0.316780 0.614690 -0.574487
O2    O     O_2   0.847989 0.479402 0.290601 -0.557083
O3    O     O_2   0.147867 0.482152 0.278474 -0.565081
O4    O     O_2   0.160950 0.721780 0.672521 -0.511444
O5    O     O_R   0.500000 0.316750 0.385360 -0.648866
O6    O     O_R   0.416160 0.499970 0.614690 -0.554879
O7    O     O_R   0.416150 0.499950 0.385360 -0.626796
O8    O     O_R   0.500000 0.683250 0.614640 -0.648042
O9    O     O_R   0.500000 0.683220 0.385310 -0.591938
O10   O     O_R   0.583850 0.500050 0.614640 -0.621433
O11   O     O_R   0.583840 0.500030 0.385310 -0.620366
O12   O     O_2   0.854824 0.706534 0.695256 -0.530280
Zn1   Zn    Zn3+2 0.500000 0.500020 0.653130 0.991585
Zn2   Zn    Zn3+2 0.500000 0.499980 0.346870 0.977989
O13   O     O_3   0.682202 0.306536 0.584306 -0.579045
C49   C     C_3   0.672886 0.229593 0.469903 -0.188086
H16   H     H_    0.638196 0.265916 0.405092 0.137777
H17   H     H_    0.658793 0.132012 0.503445 0.210395
H18   H     H_    0.713053 0.221758 0.410071 0.182727
O14   O     O_3   0.661264 0.735377 0.421307 -0.614209
C50   C     C_3   0.672009 0.772959 0.287079 -0.277477
H19   H     H_    0.674767 0.689778 0.219192 0.162236
H20   H     H_    0.711859 0.836197 0.279771 0.177967
H21   H     H_    0.635481 0.828401 0.251338 0.179283
C51   C     C_2   0.534543 0.114455 0.994996 0.838168
O15   O     O_2   0.555125 0.217844 0.032007 -0.637673
O16   O     O_R   0.487674 0.054332 0.062303 -0.829497
H22   H     H_    0.467825 0.113516 0.124747 0.334507
O17   O     O_3   0.412670 0.303170 0.742426 -0.536316
C52   C     C_3   0.403680 0.168439 0.741392 -0.245561
H23   H     H_    0.428907 0.121798 0.821286 0.161568
H24   H     H_    0.357128 0.138923 0.749740 0.175459
H25   H     H_    0.417891 0.132108 0.643582 0.162214
C53   C     C_2   0.065145 0.770968 0.818725 0.989683
O18   O     O_2   0.094878 0.702274 0.886662 -0.580472
O19   O     O_R   0.055073 0.894158 0.861473 -0.791452
H26   H     H_    0.076040 0.916794 0.948228 0.348301
O20   O     O_3   0.235192 0.787350 0.403338 -0.593608
C54   C     C_3   0.234949 0.790525 0.261942 -0.220717
H27   H     H_    0.204809 0.714870 0.220069 0.193126
H28   H     H_    0.279125 0.782141 0.220572 0.194313
H29   H     H_    0.219543 0.883691 0.228268 0.186067
O21   O     O_3   0.353195 0.740856 0.417876 -0.580810
C55   C     C_3   0.364091 0.822922 0.527389 -0.260183
H30   H     H_    0.397628 0.896980 0.497586 0.170741
H31   H     H_    0.381021 0.770594 0.615404 0.160941
H32   H     H_    0.324802 0.872728 0.555878 0.191234
O22   O     O_3   0.303928 0.313834 0.582149 -0.581657
C56   C     C_3   0.301544 0.228450 0.473690 -0.271789
H33   H     H_    0.313111 0.133285 0.510665 0.183482
H34   H     H_    0.333405 0.258893 0.395070 0.136094
H35   H     H_    0.257238 0.217652 0.430088 0.182611
C57   C     C_2   0.805862 0.347236 0.608460 0.998425
O23   O     O_2   0.789490 0.234712 0.608862 -0.575910
O24   O     O_R   0.860036 0.382485 0.662888 -0.807546
H36   H     H_    0.881354 0.306912 0.697170 0.354648

loop_
_geom_bond_atom_site_label_1
_geom_bond_atom_site_label_2
_ccdc_geom_bond_type
O1    Zn1   S    
O14   C50   S    
C21   O14   S    
C33   H7    S    
C53   O18   D    
C12   O7    A    
C19   C20   A    
C23   O9    A    
C52   H23   S    
C7    C8    A    
C45   C46   A    
C44   N1    A    
C5    C47   A    
C26   C27   A    
C37   C38   A    
C49   H16   S    
C18   C24   A    
C28   C29   A    
C36   H10   S    
C34   O10   A    
C30   C31   A    
C10   N2    A    
C54   H27   S    
C26   C51   S    
C15   C16   A    
C1    C31   S    
C1    O1    A    
C56   H33   S    
C18   C19   A    
O21   C55   S    
C42   H8    S    
C31   C32   A    
C16   C17   A    
C40   N4    A    
C11   O20   S    
C36   C37   A    
C16   H15   S    
C13   C14   A    
C19   O13   S    
O8    Zn1   S    
O5    Zn2   S    
C22   H2    S    
C20   C34   S    
C10   O4    S    
C24   N1    S    
C12   O6    A    
C36   C41   A    
C52   H24   S    
C57   O24   S    
C6    C7    A    
C38   C39   A    
C1    O5    A    
C45   O2    S    
C9    O3    S    
C23   O8    A    
C39   C40   A    
C28   H6    S    
C25   C26   A    
C2    C46   A    
C8    C48   A    
C32   H3    S    
C13   O21   S    
C2    H1    S    
C47   C48   A    
C50   H21   S    
O17   C52   S    
C51   O16   S    
C55   H31   S    
C50   H19   S    
C37   H11   S    
C38   H12   S    
C3    H9    S    
C40   C41   A    
C49   H17   S    
C12   C14   S    
C23   C35   S    
C22   C24   A    
C42   C43   A    
O7    Zn2   S    
C3    C4    A    
C18   C57   S    
C27   C28   A    
C52   H25   S    
C57   O23   D    
C43   H13   S    
C53   O19   S    
O10   Zn1   S    
C25   C30   A    
C46   C47   A    
C11   C17   A    
C55   H30   S    
C44   O12   S    
N4    Zn1   S    
C50   H20   S    
C4    C5    A    
O9    Zn2   S    
C6    C10   A    
C27   H5    S    
C41   N3    A    
O20   C54   S    
C29   C35   A    
C45   N1    A    
C17   N2    S    
C56   H35   S    
C32   C33   A    
C2    C3    A    
O24   H36   S    
C25   H4    S    
C34   O11   A    
N3    Zn2   S    
C11   C13   A    
O11   Zn2   S    
C5    C6    A    
C54   H28   S    
C51   O15   D    
C33   C35   A    
O6    Zn1   S    
C56   H34   S    
C55   H32   S    
C15   O22   S    
O16   H22   S    
C9    N2    A    
C39   O17   S    
C29   C30   A    
C44   C48   A    
C49   H18   S    
C20   C21   A    
C43   N4    A    
O13   C49   S    
C7    C53   S    
O19   H26   S    
C42   N3    A    
C14   C15   A    
C4    C9    A    
C21   C22   A    
O22   C56   S    
C8    H14   S    
C54   H29   S    
