data_mof_unit_24600.cif
_audit_creation_date              2012-12-10T17:00:02-0500
_audit_creation_method            fapswitch 2.2
_symmetry_space_group_name_H-M    P1
_symmetry_Int_Tables_number       1
_space_group_crystal_system       triclinic
_cell_length_a                    23.530994
_cell_length_b                    10.919803
_cell_length_c                    9.724403
_cell_angle_alpha                 87.21342
_cell_angle_beta                  90.55288
_cell_angle_gamma                 90.584604
_cell_volume                      2495.53315625

loop_
_atom_site_label
_atom_site_type_symbol
_atom_type_description
_atom_site_fract_x
_atom_site_fract_y
_atom_site_fract_z
_atom_type_partial_charge
C1    C     C_R   0.499741 0.265140 0.504222 0.709370
C2    C     C_R   0.969661 0.285739 0.470949 0.328450
C3    C     C_R   0.029194 0.286859 0.466639 0.466599
C4    C     C_R   0.060033 0.396172 0.488331 -0.193012
C5    C     C_R   0.030524 0.502404 0.522766 -0.079135
C6    C     C_R   0.061159 0.610273 0.550379 -0.069263
C7    C     C_R   0.032115 0.714877 0.586984 -0.146681
C8    C     C_R   0.973141 0.714516 0.597197 0.419167
C9    C     C_R   0.119857 0.402314 0.479484 0.597357
C10   C     C_R   0.120636 0.610478 0.543599 0.610306
C11   C     C_R   0.237819 0.547256 0.387213 0.511640
C12   C     C_R   0.391052 0.500535 0.499650 0.882062
C13   C     C_R   0.297597 0.545780 0.384931 -0.301463
C14   C     C_R   0.328554 0.501646 0.500543 -0.174893
C15   C     C_R   0.299641 0.461602 0.620113 -0.190955
C16   C     C_R   0.240549 0.464459 0.625734 0.390392
C17   C     C_R   0.209435 0.507927 0.508249 0.162137
C18   C     C_R   0.761331 0.442827 0.624423 0.447915
C19   C     C_R   0.701476 0.434876 0.616478 0.207199
C20   C     C_R   0.671997 0.494991 0.504142 -0.280031
C21   C     C_R   0.703323 0.555557 0.397385 0.404610
C22   C     C_R   0.762673 0.561557 0.406975 -0.273214
C23   C     C_R   0.501519 0.734192 0.495921 0.766678
C24   C     C_R   0.791419 0.504741 0.518262 0.188128
C25   C     C_2   0.462010 0.933763 0.449382 0.362976
C26   C     C_2   0.508612 0.866653 0.480135 0.394115
C27   C     C_2   0.467902 0.068168 0.428769 -0.293519
C28   C     C_2   0.497233 0.131719 0.520588 0.386297
C29   C     C_2   0.472290 0.419989 0.927307 0.515978
C30   C     C_2   0.461823 0.442650 0.079502 0.495977
C31   C     C_R   0.609066 0.498252 0.500844 0.806152
C32   C     C_R   0.881275 0.608556 0.553825 0.588189
C33   C     C_R   0.879867 0.400264 0.489331 0.652899
C34   C     C_R   0.939658 0.394330 0.496798 -0.184409
C35   C     C_R   0.970415 0.501714 0.527811 -0.105754
C36   C     C_R   0.941217 0.609295 0.561390 -0.093264
Cu1   Cu    Cu3+1 0.500010 0.500020 0.638630 1.030412
Cu2   Cu    Cu3+1 0.499990 0.499980 0.361370 1.015359
H1    H     H_    0.786781 0.610974 0.327437 0.189912
H2    H     H_    0.446280 0.114299 0.341898 0.130414
H3    H     H_    0.538526 0.514922 0.110044 0.175030
H4    H     H_    0.055251 0.797323 0.611921 0.188886
H5    H     H_    0.319892 0.581972 0.294814 0.184194
H6    H     H_    0.323043 0.427616 0.710387 0.190387
N1    N     N_R   0.852430 0.504831 0.520569 -0.425939
N2    N     N_R   0.148473 0.507457 0.509208 -0.456484
N3    N     N_2   0.499380 0.498660 0.846910 -0.032130
N4    N     N_2   0.499370 0.498630 0.153040 -0.297525
O1    O     O_R   0.500010 0.321960 0.617040 -0.535724
O2    O     O_2   0.848950 0.304072 0.447287 -0.493698
O3    O     O_2   0.149551 0.304609 0.441681 -0.484198
O4    O     O_2   0.150570 0.712488 0.571755 -0.519684
O5    O     O_R   0.499990 0.321920 0.382900 -0.582977
O6    O     O_R   0.417890 0.499980 0.617100 -0.558241
O7    O     O_R   0.417870 0.499940 0.382950 -0.520408
O8    O     O_R   0.500010 0.678080 0.617100 -0.557103
O9    O     O_R   0.499990 0.678040 0.382960 -0.561855
O10   O     O_R   0.582130 0.500060 0.617050 -0.597805
O11   O     O_R   0.582110 0.500020 0.382900 -0.552572
O12   O     O_2   0.851694 0.710803 0.575779 -0.503683
O13   O     O_3   0.942366 0.175839 0.450776 -0.628090
H7    H     H_    0.916899 0.160013 0.530448 0.361652
O14   O     O_3   0.673417 0.365846 0.717720 -0.743736
H8    H     H_    0.640273 0.325860 0.674937 0.322675
O15   O     O_3   0.675673 0.619268 0.290488 -0.564208
C37   C     C_3   0.683919 0.558327 0.167754 -0.231805
H9    H     H_    0.665852 0.463638 0.175522 0.162090
H10   H     H_    0.729488 0.556386 0.138817 0.164076
H11   H     H_    0.661334 0.609590 0.083292 0.163647
O16   O     O_3   0.409426 0.877252 0.437297 -0.754315
H12   H     H_    0.380887 0.941748 0.415706 0.343251
O17   O     O_3   0.562074 0.921903 0.459683 -0.603322
C38   C     C_3   0.607182 0.848801 0.511658 -0.290699
H13   H     H_    0.611467 0.764845 0.452816 0.190344
H14   H     H_    0.602017 0.826267 0.623264 0.136053
H15   H     H_    0.647347 0.902031 0.499167 0.211199
O18   O     O_3   0.513790 0.072239 0.644763 -0.570510
C39   C     C_3   0.569104 0.108340 0.684821 -0.238387
H16   H     H_    0.567161 0.188014 0.750962 0.174194
H17   H     H_    0.597785 0.128379 0.595781 0.152872
H18   H     H_    0.588245 0.031976 0.748157 0.184181
O19   O     O_3   0.449993 0.316234 0.868978 -0.580536
C40   C     C_3   0.466939 0.209868 0.946336 -0.288610
H19   H     H_    0.440631 0.194779 0.039822 0.194111
H20   H     H_    0.512956 0.212230 0.974447 0.128689
H21   H     H_    0.459842 0.129544 0.882607 0.237848
O20   O     O_3   0.509552 0.609155 0.898870 -0.529514
C41   C     C_3   0.568017 0.634797 0.883059 -0.150271
H22   H     H_    0.577416 0.673429 0.778976 0.187590
H23   H     H_    0.594771 0.552481 0.905652 0.123396
H24   H     H_    0.580494 0.705102 0.956474 0.143014
O21   O     O_3   0.414850 0.391047 0.145915 -0.558550
C42   C     C_3   0.364671 0.425011 0.074056 -0.299493
H25   H     H_    0.359462 0.374797 0.978208 0.200575
H26   H     H_    0.362831 0.525874 0.051267 0.155546
H27   H     H_    0.328016 0.398675 0.140164 0.183013
O22   O     O_3   0.056770 0.179925 0.437439 -0.500410
C43   C     C_3   0.064980 0.109408 0.561474 -0.126498
H28   H     H_    0.089666 0.161075 0.638340 0.140775
H29   H     H_    0.089805 0.027029 0.539000 0.203536
H30   H     H_    0.023811 0.077184 0.606085 0.170902
O23   O     O_3   0.948617 0.818337 0.643944 -0.681588
H31   H     H_    0.922549 0.791163 0.719088 0.356494
O24   O     O_3   0.205970 0.596087 0.277329 -0.551731
C44   C     C_3   0.217943 0.535470 0.156237 -0.232017
H32   H     H_    0.220661 0.434138 0.174782 0.165854
H33   H     H_    0.257378 0.573095 0.108014 0.152527
H34   H     H_    0.182733 0.553125 0.081453 0.211738
O25   O     O_3   0.215196 0.424167 0.747498 -0.724319
H35   H     H_    0.173556 0.434525 0.740166 0.326844
O26   O     O_3   0.792219 0.388799 0.732447 -0.706123
H36   H     H_    0.766194 0.351438 0.802305 0.372478

loop_
_geom_bond_atom_site_label_1
_geom_bond_atom_site_label_2
_ccdc_geom_bond_type
C37   H10   S    
O20   C41   S    
C42   H25   S    
C33   N1    A    
C32   N1    A    
C19   C20   A    
C9    O3    S    
C10   O4    S    
O22   C43   S    
C7    C8    A    
O18   C39   S    
C44   H33   S    
Cu1   Cu2   S    
C29   N3    D    
C18   C24   A    
C24   N1    S    
C32   C36   A    
C31   O10   A    
C30   N4    D    
C15   H6    S    
C18   C19   A    
C8    C36   A    
C5    C6    A    
C39   H17   S    
C23   C26   S    
C37   H11   S    
C15   C16   A    
C26   O17   S    
C34   C35   A    
C38   H13   S    
C7    H4    S    
C31   O11   A    
C1    O5    A    
Cu1   O8    S    
Cu2   O7    S    
C35   C36   A    
C19   O14   S    
C16   C17   A    
C10   N2    A    
C1    C28   S    
C11   O24   S    
Cu1   N3    S    
Cu2   N4    S    
Cu1   O10   S    
C2    O13   S    
C2    C34   A    
C37   H9    S    
C9    N2    A    
C42   H26   S    
C21   C22   A    
C38   H14   S    
O13   H7    S    
O24   C44   S    
C16   O25   S    
C44   H34   S    
C23   O8    A    
C17   N2    S    
C30   O21   S    
C39   H16   S    
C4    C5    A    
C33   O2    S    
Cu2   O11   S    
N3    O20   S    
C29   C30   S    
Cu2   O9    S    
Cu1   O1    S    
C3    O22   S    
C40   H19   S    
C41   H24   S    
C27   H2    S    
C20   C21   A    
C33   C34   A    
C18   O26   S    
C28   O18   S    
O16   H12   S    
Cu1   O6    S    
C40   H20   S    
C12   C14   S    
O19   C40   S    
C42   H27   S    
C43   H29   S    
C38   H15   S    
C22   C24   A    
C32   O12   S    
C3    C4    A    
C13   H5    S    
C23   O9    A    
C11   C17   A    
O26   H36   S    
C21   O15   S    
C41   H23   S    
O17   C38   S    
C6    C10   A    
C6    C7    A    
C25   C27   S    
C43   H30   S    
C44   H32   S    
C2    C3    A    
C25   C26   D    
C29   O19   S    
O25   H35   S    
C11   C13   A    
C39   H18   S    
Cu2   O5    S    
C8    O23   S    
C22   H1    S    
C5    C35   A    
O21   C42   S    
H3    N4    S    
O15   C37   S    
O23   H31   S    
C12   O7    A    
O14   H8    S    
C40   H21   S    
C41   H22   S    
C43   H28   S    
C27   C28   D    
C14   C15   A    
C25   O16   S    
C4    C9    A    
C13   C14   A    
C1    O1    A    
C12   O6    A    
C20   C31   S    
