data_mof_unit_27438.cif
_audit_creation_date              2012-12-10T20:51:43-0500
_audit_creation_method            fapswitch 2.2
_symmetry_space_group_name_H-M    P1
_symmetry_Int_Tables_number       1
_space_group_crystal_system       triclinic
_cell_length_a                    8.107412
_cell_length_b                    8.932406
_cell_length_c                    16.964149
_cell_angle_alpha                 89.538302
_cell_angle_beta                  94.564497
_cell_angle_gamma                 90.005444
_cell_volume                      1224.58519782

loop_
_atom_site_label
_atom_site_type_symbol
_atom_type_description
_atom_site_fract_x
_atom_site_fract_y
_atom_site_fract_z
_atom_type_partial_charge
C1    C     C_R   0.499972 0.218001 0.500013 0.936520
C2    C     C_R   0.500029 0.781998 0.499987 0.936007
C3    C     C_R   0.521446 0.496785 0.653284 0.930111
C4    C     C_R   0.478563 0.500451 0.346716 0.930246
C5    C     C_R   0.534613 0.487986 0.738469 -0.150696
C6    C     C_R   0.465449 0.491800 0.261597 -0.150340
C7    C     C_R   0.409065 0.417332 0.776164 -0.335353
C8    C     C_R   0.590799 0.420522 0.224598 -0.335138
C9    C     C_R   0.416663 0.409400 0.858126 0.458857
C10   C     C_R   0.582627 0.411264 0.142754 0.458459
C11   C     C_R   0.553882 0.474280 0.902429 0.138932
C12   C     C_R   0.445066 0.475491 0.097812 0.139172
C13   C     C_R   0.681421 0.543989 0.864641 0.462062
C14   C     C_R   0.317810 0.546071 0.134882 0.462386
C15   C     C_R   0.672696 0.546880 0.781864 -0.359728
C16   C     C_R   0.327126 0.550280 0.217648 -0.359896
C17   C     C_1   0.499979 0.065195 0.500004 -0.190997
C18   C     C_1   0.500022 0.934807 0.499996 -0.193050
H1    H     H_    0.692771 0.367734 0.259502 0.184904
H2    H     H_    0.307226 0.364327 0.741768 0.184555
H3    H     H_    0.771644 0.596020 0.751125 0.178324
H4    H     H_    0.228338 0.599830 0.247953 0.178063
N1    N     N_1   0.073640 0.500030 0.499990 -0.037679
N2    N     N_1   0.926360 0.499970 0.500010 -0.037700
N3    N     N_2   0.567189 0.474853 0.985592 -0.087826
N4    N     N_2   0.431370 0.474540 0.014649 -0.087230
O1    O     O_R   0.636850 0.285340 0.500000 -0.616764
O2    O     O_R   0.363150 0.714660 0.500000 -0.616483
O3    O     O_R   0.363100 0.285350 0.500000 -0.616708
O4    O     O_R   0.636900 0.714650 0.500000 -0.616516
O5    O     O_R   0.652140 0.498630 0.616140 -0.624265
O6    O     O_R   0.347860 0.501370 0.383860 -0.624021
O7    O     O_R   0.378390 0.498650 0.616130 -0.625265
O8    O     O_R   0.621610 0.501350 0.383870 -0.625305
Zn1   Zn    Zn3+2 0.682780 0.499990 0.500010 0.982535
Zn2   Zn    Zn3+2 0.317220 0.500010 0.499990 0.982655
O9    O     O_3   0.698765 0.327082 0.106813 -0.597241
C19   C     C_3   0.854071 0.399185 0.115893 -0.186696
H5    H     H_    0.845131 0.519415 0.098064 0.194336
H6    H     H_    0.938464 0.344278 0.076608 0.207495
H7    H     H_    0.910750 0.387904 0.177471 0.143417
O10   O     O_3   0.300212 0.326032 0.894953 -0.597280
C20   C     C_3   0.145062 0.398451 0.884826 -0.187194
H8    H     H_    0.154086 0.518816 0.901322 0.194199
H9    H     H_    0.060288 0.344160 0.924578 0.207786
H10   H     H_    0.088781 0.386725 0.823308 0.143280
O11   O     O_3   0.815510 0.601360 0.911164 -0.607757
C21   C     C_3   0.863362 0.743194 0.883477 -0.305095
H11   H     H_    0.755190 0.815645 0.864660 0.168340
H12   H     H_    0.946282 0.730882 0.834889 0.158338
H13   H     H_    0.935133 0.801379 0.932354 0.198093
O12   O     O_3   0.183437 0.602804 0.087755 -0.607728
C22   C     C_3   0.134422 0.744442 0.114068 -0.304355
H14   H     H_    0.062342 0.802149 0.064597 0.198025
H15   H     H_    0.242010 0.817489 0.132259 0.168875
H16   H     H_    0.051442 0.731796 0.162713 0.158334

loop_
_geom_bond_atom_site_label_1
_geom_bond_atom_site_label_2
_ccdc_geom_bond_type
C19   H6    S    
C20   H8    S    
O9    C19   S    
C14   C16   A    
C2    C18   S    
C11   C13   A    
C22   H15   S    
C1    C17   S    
O11   C21   S    
C2    O4    A    
N1    N2    T    
C13   O11   S    
C21   H12   S    
C17   C18   T    
C22   H14   S    
C3    O5    A    
C20   H9    S    
O3    Zn2   S    
C9    C11   A    
C9    O10   S    
C4    O6    A    
C10   C12   A    
O4    Zn1   S    
C10   O9    S    
O6    Zn2   S    
C1    O3    A    
C21   H11   S    
C12   C14   A    
O8    Zn1   S    
N1    Zn2   S    
C4    O8    A    
C13   C15   A    
C19   H5    S    
C21   H13   S    
C20   H10   S    
O5    Zn1   S    
C5    C15   A    
N2    Zn1   S    
C2    O2    A    
O10   C20   S    
C11   N3    S    
C6    C16   A    
C8    H1    S    
C7    C9    A    
C15   H3    S    
O7    Zn2   S    
O12   C22   S    
O2    Zn2   S    
C19   H7    S    
C1    O1    A    
C7    H2    S    
C22   H16   S    
C12   N4    S    
C5    C7    A    
C3    O7    A    
C6    C8    A    
O1    Zn1   S    
N3    N4    D    
C4    C6    S    
C8    C10   A    
C14   O12   S    
C16   H4    S    
C3    C5    S    
