data_mof_unit_29319.cif
_audit_creation_date              2012-12-11T16:24:17-0500
_audit_creation_method            fapswitch 2.2
_symmetry_space_group_name_H-M    P1
_symmetry_Int_Tables_number       1
_space_group_crystal_system       triclinic
_cell_length_a                    14.730384
_cell_length_b                    14.772173
_cell_length_c                    33.239876
_cell_angle_alpha                 95.39401
_cell_angle_beta                  95.970585
_cell_angle_gamma                 61.141887
_cell_volume                      6292.44595359

loop_
_atom_site_label
_atom_site_type_symbol
_atom_type_description
_atom_site_fract_x
_atom_site_fract_y
_atom_site_fract_z
_atom_type_partial_charge
C1    C     C_R   0.391227 0.699208 0.445660 0.575893
C2    C     C_1   0.307432 0.361544 0.228727 0.028521
C3    C     C_2   0.122905 0.505858 0.640255 0.295248
C4    C     C_2   0.468157 0.187723 0.672369 0.350036
C5    C     C_2   0.423121 0.167631 0.306124 0.277061
C6    C     C_2   0.279536 0.656473 0.619480 0.261349
C7    C     C_1   0.311739 0.365926 0.265012 0.057171
C8    C     C_R   0.405198 0.387070 0.434016 0.581328
C9    C     C_R   0.291599 0.287895 0.103155 -0.004099
C10   C     C_R   0.754668 0.375476 0.409757 0.016801
C11   C     C_R   0.782686 0.440199 0.392009 -0.113213
C12   C     C_R   0.809463 0.420745 0.351991 -0.109094
C13   C     C_R   0.809163 0.336001 0.329094 0.032179
C14   C     C_R   0.790729 0.265882 0.347985 -0.111413
C15   C     C_R   0.763559 0.285533 0.388037 -0.120738
C16   C     C_R   0.322468 0.363984 0.308290 0.019750
C17   C     C_R   0.826475 0.314747 0.203516 0.348337
C18   C     C_R   0.818919 0.326461 0.285095 0.348855
C19   C     C_R   0.826703 0.391879 0.140120 -0.107667
C20   C     C_R   0.700455 0.410528 0.447467 0.536794
C21   C     C_R   0.859273 0.379728 0.101243 -0.109917
C22   C     C_R   0.909379 0.197239 0.099445 -0.123858
C23   C     C_R   0.876850 0.209393 0.138437 -0.108482
C24   C     C_R   0.839999 0.305826 0.159813 0.032161
C25   C     C_R   0.905514 0.281368 0.081384 0.019041
C26   C     C_R   0.373865 0.746585 0.406348 0.031304
C27   C     C_R   0.382211 0.270425 0.328554 0.036697
C28   C     C_R   0.295291 0.745184 0.378788 -0.165223
C29   C     C_R   0.293465 0.759851 0.338019 -0.131857
C30   C     C_R   0.368760 0.778560 0.323785 -0.004768
C31   C     C_R   0.440650 0.791282 0.351615 -0.069886
C32   C     C_R   0.393892 0.699621 0.561716 0.564012
C33   C     C_R   0.443868 0.775462 0.392743 0.229906
C34   C     C_R   0.376574 0.786971 0.198783 0.317284
C35   C     C_R   0.373632 0.780494 0.279888 0.350229
C36   C     C_R   0.262810 0.830554 0.136252 -0.107495
C37   C     C_R   0.232882 0.873410 0.098657 -0.113119
C38   C     C_R   0.405104 0.275634 0.370906 0.185959
C39   C     C_R   0.401856 0.861494 0.095970 -0.093013
C40   C     C_R   0.433654 0.817115 0.133999 0.020536
C41   C     C_R   0.360629 0.807319 0.155334 -0.004431
C42   C     C_R   0.300034 0.894307 0.079146 -0.015610
C43   C     C_R   0.365761 0.362015 0.582808 -0.034754
C44   C     C_R   0.406535 0.387238 0.548649 0.535318
C45   C     C_R   0.265549 0.432705 0.594193 -0.165583
C46   C     C_R   0.231155 0.428362 0.631235 0.000019
C47   C     C_R   0.300044 0.352263 0.658242 0.026910
C48   C     C_R   0.397471 0.273221 0.645544 -0.014063
C49   C     C_R   0.363778 0.239391 0.171987 -0.071599
C50   C     C_R   0.428678 0.275896 0.606969 -0.025989
C51   C     C_R   0.264612 0.351275 0.780744 0.378846
C52   C     C_R   0.274881 0.358108 0.700366 0.424176
C53   C     C_R   0.216028 0.420010 0.852372 0.260148
C54   C     C_R   0.221029 0.399490 0.893407 0.246996
C55   C     C_R   0.346932 0.219914 0.878799 -0.175593
C56   C     C_R   0.701840 0.413008 0.562555 0.536467
C57   C     C_R   0.341170 0.239962 0.838477 -0.160955
C58   C     C_R   0.273627 0.338486 0.824559 -0.000981
C59   C     C_R   0.283559 0.297399 0.906338 -0.009086
C60   C     C_R   0.354433 0.210467 0.131321 -0.036846
C61   C     C_R   0.756532 0.378248 0.602471 -0.033864
C62   C     C_R   0.783098 0.443721 0.628519 -0.120770
C63   C     C_R   0.813057 0.422111 0.669176 -0.133628
C64   C     C_R   0.817359 0.334764 0.684247 0.036549
C65   C     C_R   0.798124 0.264941 0.657934 0.264608
C66   C     C_R   0.768163 0.286709 0.617189 -0.073294
C67   C     C_R   0.886389 0.213557 0.823200 -0.085804
C68   C     C_R   0.367729 0.373124 0.392098 0.029725
C69   C     C_R   0.912463 0.202915 0.864714 -0.114861
C70   C     C_R   0.876202 0.382017 0.872544 -0.103306
C71   C     C_R   0.241815 0.393185 0.117454 0.223397
C72   C     C_R   0.850045 0.392432 0.831068 -0.098296
C73   C     C_R   0.858103 0.307419 0.806248 0.032083
C74   C     C_1   0.844083 0.314942 0.763186 0.030002
C75   C     C_1   0.833152 0.322631 0.727128 0.060730
C76   C     C_R   0.911149 0.286089 0.889570 0.010615
C77   C     C_R   0.376221 0.751395 0.603014 -0.044493
C78   C     C_R   0.320026 0.730524 0.629869 -0.029893
C79   C     C_R   0.309590 0.773162 0.669377 -0.124204
C80   C     C_R   0.301191 0.463277 0.371390 -0.165813
C81   C     C_R   0.357277 0.832013 0.683898 -0.017844
C82   C     C_R   0.249340 0.419130 0.158846 -0.075959
C83   C     C_R   0.411365 0.855789 0.658025 0.278818
C84   C     C_R   0.419822 0.816736 0.617329 0.239890
C85   C     C_R   0.390285 0.916227 0.832317 -0.117656
C86   C     C_R   0.370646 0.933376 0.873200 -0.163746
C87   C     C_R   0.234282 0.884339 0.859822 0.235559
C88   C     C_R   0.255147 0.866937 0.818865 -0.065153
C89   C     C_R   0.330648 0.885802 0.804988 -0.008152
C90   C     C_1   0.345723 0.873635 0.762501 0.026017
C91   C     C_1   0.353754 0.859126 0.726549 0.067715
C92   C     C_R   0.279626 0.458701 0.330006 -0.148743
C93   C     C_R   0.308518 0.341721 0.185896 -0.031980
C94   C     C_R   0.289764 0.921977 0.887459 0.024218
C95   C     C_R   0.963242 0.264005 0.045431 0.534093
C96   C     C_R   0.272247 0.257420 0.060597 0.563592
C97   C     C_R   0.259620 0.958541 0.043581 0.536937
C98   C     C_R   0.962768 0.267954 0.930721 0.534683
C99   C     C_R   0.270344 0.263952 0.944876 0.581357
C100  C     C_R   0.256031 0.966068 0.928665 0.569302
C101  C     C_2   0.402525 0.097793 0.120969 0.261671
C102  C     C_2   0.542718 0.780025 0.150511 0.280540
C103  C     C_2   0.527488 0.189974 0.592395 0.261711
Cl1   Cl    Cl    0.538551 0.790243 0.425409 -0.507314
Cl2   Cl    Cl    0.148132 0.501914 0.928005 -0.430256
Cl3   Cl    Cl    0.131452 0.545686 0.835692 -0.416325
Cl4   Cl    Cl    0.804965 0.152959 0.675626 -0.472724
Cl5   Cl    Cl    0.476682 0.160622 0.397481 -0.553704
Cl6   Cl    Cl    0.469727 0.932627 0.676830 -0.507764
Cl7   Cl    Cl    0.484076 0.851542 0.584700 -0.463064
Cl8   Cl    Cl    0.137144 0.859149 0.874249 -0.480849
Cl9   Cl    Cl    0.168599 0.495401 0.084898 -0.520858
Cr1   Cr    Cr6+3 0.576280 0.580550 0.506370 1.144028
Cr2   Cr    Cr6+3 0.346780 0.572400 0.496520 1.036694
Cr3   Cr    Cr6+3 0.576960 0.347070 0.497150 1.077859
Cr4   Cr    Cr6+3 0.087320 0.083240 0.984860 1.080585
Cr5   Cr    Cr6+3 0.087720 0.316210 0.996740 1.142975
Cr6   Cr    Cr6+3 0.317350 0.090340 0.995890 1.042217
H1    H     H_    0.743110 0.233794 0.401040 0.156212
H2    H     H_    0.408588 0.180393 0.193676 0.209194
H3    H     H_    0.235001 0.752770 0.317391 0.149238
H4    H     H_    0.497405 0.808914 0.341218 0.175358
H5    H     H_    0.205945 0.822608 0.151676 0.157059
H6    H     H_    0.455416 0.873247 0.079935 0.181565
H7    H     H_    0.214544 0.494751 0.574575 0.139459
H8    H     H_    0.396163 0.141132 0.887665 0.152437
H9    H     H_    0.387884 0.176993 0.817718 0.171597
H10   H     H_    0.939575 0.127888 0.876825 0.173998
H11   H     H_    0.892511 0.147450 0.804126 0.165872
H12   H     H_    0.853848 0.446264 0.087746 0.161491
H13   H     H_    0.748769 0.234712 0.597647 0.193563
H14   H     H_    0.775117 0.514675 0.618114 0.176296
H15   H     H_    0.827772 0.465515 0.818123 0.142936
H16   H     H_    0.874466 0.447434 0.890831 0.165799
H17   H     H_    0.828335 0.476100 0.689269 0.160914
H18   H     H_    0.415826 0.960929 0.893278 0.145622
H19   H     H_    0.450040 0.929441 0.821914 0.151675
H20   H     H_    0.210734 0.840641 0.797614 0.170033
H21   H     H_    0.269154 0.754660 0.690060 0.186471
H22   H     H_    0.270442 0.539174 0.386720 0.145421
H23   H     H_    0.825470 0.475014 0.338463 0.150979
H24   H     H_    0.207452 0.499106 0.169943 0.161702
H25   H     H_    0.233184 0.530159 0.314602 0.132742
H26   H     H_    0.777553 0.509584 0.408109 0.167478
H27   H     H_    0.363453 0.066995 0.099262 0.131084
H28   H     H_    0.571909 0.734688 0.177205 0.129209
H29   H     H_    0.528694 0.155896 0.561946 0.161456
H30   H     H_    0.077960 0.569301 0.620398 0.152275
H31   H     H_    0.508753 0.108964 0.659740 0.202676
H32   H     H_    0.490083 0.100534 0.318574 0.175839
H33   H     H_    0.321182 0.588438 0.600159 0.132093
H34   H     H_    0.791172 0.199204 0.331207 0.149847
H35   H     H_    0.796401 0.467713 0.155510 0.151217
H36   H     H_    0.944187 0.120562 0.084704 0.140353
H37   H     H_    0.886830 0.141902 0.152680 0.150172
H38   H     H_    0.238980 0.725375 0.388034 0.143030
H39   H     H_    0.154376 0.896275 0.086163 0.154665
N1    N     N_R   0.815249 0.400965 0.225716 -0.220591
N2    N     N_R   0.423570 0.825555 0.264925 -0.196822
N3    N     N_R   0.424082 0.829622 0.225094 -0.203240
N4    N     N_R   0.269718 0.431194 0.766049 -0.128807
N5    N     N_R   0.274933 0.434435 0.726501 -0.149997
N6    N     N_R   0.267261 0.279535 0.714903 -0.166377
N7    N     N_R   0.262325 0.276212 0.754410 -0.202458
N8    N     N_R   0.811207 0.406837 0.265658 -0.219136
N9    N     N_R   0.829488 0.240307 0.262920 -0.216374
N10   N     N_R   0.833939 0.234272 0.222905 -0.214541
N11   N     N_R   0.328262 0.740513 0.213852 -0.218182
N12   N     N_R   0.327236 0.736946 0.253571 -0.225304
O1    O     O_R   0.679450 0.499830 0.463150 -0.491280
O2    O     O_R   0.340240 0.172500 0.045430 -0.525201
O3    O     O_R   0.309670 0.000990 0.032050 -0.519399
O4    O     O_R   0.480650 0.664000 0.464630 -0.430749
O5    O     O_R   0.168330 0.982130 0.939200 -0.438761
O6    O     O_R   0.000140 0.178170 0.944610 -0.499104
O7    O     O_R   0.983010 0.336750 0.948660 -0.495978
O8    O     O_R   0.181800 0.312190 0.959860 -0.439016
O9    O     O_R   0.338500 0.175680 0.956950 -0.518732
O10   O     O_R   0.308050 0.003930 0.950020 -0.517129
O11   O     O_3   0.164130 0.163270 0.992500 -0.281328
O12   O     O_R   0.356040 0.477400 0.534170 -0.514230
O13   O     O_R   0.323930 0.675950 0.455370 -0.527168
O14   O     O_R   0.354700 0.475360 0.451930 -0.518670
O15   O     O_R   0.494470 0.320860 0.448390 -0.444014
O16   O     O_R   0.662580 0.357570 0.460050 -0.504066
O17   O     O_R   0.680900 0.502040 0.551870 -0.495960
O18   O     O_R   0.481990 0.666040 0.546870 -0.439037
O19   O     O_R   0.325370 0.678160 0.544080 -0.518478
O20   O     O_2   0.485264 0.037754 0.137757 -0.445934
O21   O     O_2   0.602272 0.797904 0.134005 -0.448073
O22   O     O_2   0.608343 0.158459 0.613750 -0.446276
O23   O     O_R   0.495910 0.323070 0.537100 -0.504985
O24   O     O_2   0.081275 0.498900 0.668843 -0.462570
O25   O     O_2   0.485141 0.204880 0.708238 -0.438448
O26   O     O_2   0.381240 0.155730 0.273909 -0.495298
O27   O     O_2   0.200275 0.669772 0.633413 -0.498241
O28   O     O_R   0.663920 0.359620 0.542290 -0.500862
O29   O     O_3   0.500010 0.500010 0.500010 -0.279369
O30   O     O_R   0.170070 0.978950 0.027680 -0.497661
O31   O     O_R   0.001760 0.175230 0.026640 -0.505933
O32   O     O_R   0.984760 0.333570 0.037150 -0.496747
O33   O     O_R   0.183410 0.309240 0.041890 -0.432353

loop_
_geom_bond_atom_site_label_1
_geom_bond_atom_site_label_2
_ccdc_geom_bond_type
C68   C80   A    
C79   H21   S    
C87   C88   A    
C23   H37   S    
C33   Cl1   S    
C59   C99   S    
C73   C74   S    
C97   O30   A    
C20   O1    A    
C2    C7    T    
C82   H24   S    
C6    O27   D    
N4    N5    A    
C18   N9    A    
C103  H29   S    
C53   C54   A    
C4    O25   D    
C4    H31   S    
Cr3   O28   S    
C25   C95   S    
C101  H27   S    
C62   C63   A    
C97   O3    A    
C13   C18   S    
C28   C29   A    
C19   C21   A    
C99   O8    A    
C101  O20   D    
C10   C15   A    
N2    N3    A    
C85   C86   A    
C30   C31   A    
Cr4   O31   S    
Cr5   O32   S    
C6    C78   S    
C49   H2    S    
C87   Cl8   S    
C27   C38   A    
C76   C98   S    
Cr2   O14   S    
Cr1   O18   S    
C87   C94   A    
C34   N3    A    
Cr2   O19   S    
C12   H23   S    
C69   C76   A    
C37   H39   S    
C37   C42   A    
C92   H25   S    
C86   C94   A    
C32   C77   S    
C5    C27   S    
C53   Cl3   S    
N6    N7    A    
C69   H10   S    
C45   H7    S    
C95   O31   A    
C96   O2    A    
C29   H3    S    
Cr1   O29   S    
C31   C33   A    
C67   C73   A    
Cr6   O3    S    
C11   H26   S    
C32   O18   A    
Cr5   O11   S    
C77   C78   A    
C5    O26   D    
C71   C82   A    
Cr6   O10   S    
C8    O15   A    
C16   C27   A    
C48   C50   A    
C20   O16   A    
C50   C103  S    
C82   C93   A    
C13   C14   A    
C36   C41   A    
C67   H11   S    
C34   C41   S    
C34   N11   A    
C61   C66   A    
C81   C83   A    
C18   N8    A    
Cr5   O8    S    
Cr3   O15   S    
C39   C42   A    
C57   C58   A    
C54   C59   A    
Cr3   O29   S    
C17   C24   S    
C74   C75   T    
C32   O19   A    
C47   C48   A    
C62   H14   S    
C36   H5    S    
C99   O9    A    
C17   N10   A    
C42   C97   S    
C10   C20   S    
C39   C40   A    
C79   C81   A    
Cr4   O30   S    
C85   C89   A    
C78   C79   A    
C52   N6    A    
C77   C84   A    
Cr2   O13   S    
C22   C25   A    
C84   Cl7   S    
C5    H32   S    
C28   H38   S    
C67   C69   A    
C63   H17   S    
C80   C92   A    
C43   C44   S    
C29   C30   A    
C98   O7    A    
C26   C33   A    
C83   C84   A    
C14   C15   A    
C55   H8    S    
C94   C100  S    
C1    O13   A    
C1    O4    A    
C71   Cl9   S    
C83   Cl6   S    
C51   N7    A    
C56   C61   S    
C51   C58   S    
C3    O24   D    
C88   C89   A    
C81   C91   S    
C96   O33   A    
C17   N1    A    
C49   C60   A    
C9    C96   S    
C88   H20   S    
Cr1   O1    S    
C6    H33   S    
Cr6   O9    S    
Cr5   O7    S    
C86   H18   S    
N11   N12   A    
C56   O17   A    
C8    C68   S    
Cr4   O11   S    
C70   C76   A    
N9    N10   A    
C35   N12   A    
C103  O22   D    
Cr3   O23   S    
C90   C91   T    
C60   C101  S    
C85   H19   S    
C55   C59   A    
C8    O14   A    
Cr1   O4    S    
C66   H13   S    
C22   H36   S    
C4    C48   S    
C21   C25   A    
C46   C47   A    
C40   C41   A    
Cr4   O6    S    
C56   O28   A    
C2    C93   S    
C7    C16   S    
C9    C71   A    
C31   H4    S    
C38   C68   A    
C72   C73   A    
C57   H9    S    
C53   C58   A    
C43   C50   A    
C16   C92   A    
C47   C52   S    
C95   O32   A    
Cr2   O12   S    
C30   C35   S    
C3    C46   S    
C26   C28   A    
Cr4   O5    S    
C9    C60   A    
C64   C65   A    
C55   C57   A    
C19   C24   A    
C43   C45   A    
C80   H22   S    
C44   O23   A    
C100  O5    A    
C98   O6    A    
C72   H15   S    
C1    C26   S    
Cr6   O2    S    
C54   Cl2   S    
Cr3   O16   S    
Cr1   O17   S    
C102  O21   D    
C64   C75   S    
C15   H1    S    
C51   N4    A    
C38   Cl5   S    
C61   C62   A    
C35   N2    A    
C21   H12   S    
C10   C11   A    
C39   H6    S    
C23   C24   A    
C40   C102  S    
C63   C64   A    
C19   H35   S    
C45   C46   A    
C3    H30   S    
C12   C13   A    
N1    N8    A    
C36   C37   A    
C65   C66   A    
Cr2   O29   S    
C14   H34   S    
C70   H16   S    
C22   C23   A    
C70   C72   A    
C49   C93   A    
C89   C90   S    
C100  O10   A    
C44   O12   A    
C65   Cl4   S    
C102  H28   S    
Cr5   O33   S    
C11   C12   A    
C52   N5    A    
Cr6   O11   S    
