data_mof_unit_53901.cif
_audit_creation_date              2012-12-11T15:50:22-0500
_audit_creation_method            fapswitch 2.2
_symmetry_space_group_name_H-M    P1
_symmetry_Int_Tables_number       1
_space_group_crystal_system       triclinic
_cell_length_a                    19.138267
_cell_length_b                    11.086281
_cell_length_c                    18.778741
_cell_angle_alpha                 89.908498
_cell_angle_beta                  91.036611
_cell_angle_gamma                 89.985721
_cell_volume                      3983.66958832

loop_
_atom_site_label
_atom_site_type_symbol
_atom_type_description
_atom_site_fract_x
_atom_site_fract_y
_atom_site_fract_z
_atom_type_partial_charge
C1    C     C_R   0.288232 0.003423 0.861315 0.531646
C2    C     C_R   0.711662 0.003291 0.138727 0.531819
C3    C     C_R   0.788232 0.503423 0.861315 0.531646
C4    C     C_R   0.211662 0.503291 0.138727 0.531819
C5    C     C_3   0.521546 0.723129 0.965630 -0.128156
C6    C     C_3   0.478749 0.723156 0.034538 -0.127852
C7    C     C_3   0.021546 0.223129 0.965630 -0.128155
C8    C     C_3   0.978749 0.223156 0.034538 -0.127852
C9    C     C_R   0.224274 0.534686 0.064332 0.033635
C10   C     C_R   0.775599 0.534791 0.935700 0.034018
C11   C     C_R   0.724274 0.034686 0.064332 0.033635
C12   C     C_R   0.275599 0.034791 0.935700 0.034018
C13   C     C_R   0.290660 0.520106 0.034412 -0.004619
C14   C     C_R   0.709244 0.520187 0.965704 -0.005028
C15   C     C_R   0.790660 0.020106 0.034412 -0.004619
C16   C     C_R   0.209244 0.020187 0.965704 -0.005028
C17   C     C_R   0.301642 0.545604 0.963244 -0.041295
C18   C     C_R   0.698319 0.545615 0.036871 -0.041221
C19   C     C_R   0.801642 0.045604 0.963244 -0.041295
C20   C     C_R   0.198319 0.045615 0.036871 -0.041221
C21   C     C_R   0.180802 0.597884 0.947595 -0.117115
C22   C     C_R   0.819129 0.597991 0.052348 -0.117230
C23   C     C_R   0.680802 0.097884 0.947595 -0.117115
C24   C     C_R   0.319129 0.097991 0.052348 -0.117230
C25   C     C_R   0.169695 0.583671 0.020125 -0.023923
C26   C     C_R   0.830199 0.583698 0.979830 -0.023168
C27   C     C_R   0.669695 0.083671 0.020125 -0.023923
C28   C     C_R   0.330199 0.083698 0.979830 -0.023168
C29   C     C_3   0.339860 0.414900 0.032632 -0.189872
C30   C     C_3   0.660147 0.414894 0.967703 -0.189798
C31   C     C_3   0.839860 0.914900 0.032632 -0.189872
C32   C     C_3   0.160147 0.914894 0.967703 -0.189798
C33   C     C_3   0.350444 0.442668 0.953554 0.004167
C34   C     C_3   0.649709 0.442443 0.046778 0.003892
C35   C     C_3   0.850444 0.942668 0.953554 0.004167
C36   C     C_3   0.149709 0.942443 0.046778 0.003892
C37   C     C_R   0.246600 0.581502 0.918783 0.010622
C38   C     C_R   0.753363 0.581673 0.081237 0.010348
C39   C     C_R   0.746600 0.081502 0.918783 0.010622
C40   C     C_R   0.253363 0.081673 0.081237 0.010348
C41   C     C_R   0.517794 0.829478 0.430257 0.018241
C42   C     C_R   0.505444 0.829812 0.579364 0.019526
C43   C     C_R   0.017794 0.329478 0.430257 0.018241
C44   C     C_R   0.005444 0.329812 0.579364 0.019526
C45   C     C_R   0.443509 0.817230 0.862770 0.524523
C46   C     C_R   0.556591 0.817344 0.137238 0.524662
C47   C     C_R   0.943509 0.317230 0.862770 0.524523
C48   C     C_R   0.056591 0.317344 0.137238 0.524662
C49   C     C_R   0.524722 0.723508 0.469696 0.039061
C50   C     C_R   0.519280 0.722938 0.542384 0.029744
C51   C     C_R   0.024722 0.223508 0.469696 0.039061
C52   C     C_R   0.019280 0.222938 0.542384 0.029744
C53   C     C_R   0.511120 0.939604 0.542240 -0.168879
C54   C     C_R   0.516072 0.939440 0.467634 -0.165536
C55   C     C_R   0.011120 0.439604 0.542240 -0.168879
C56   C     C_R   0.016071 0.439440 0.467634 -0.165536
C57   C     C_3   0.487629 0.606208 0.460549 -0.276571
C58   C     C_3   0.482145 0.603733 0.540697 -0.268882
C59   C     C_3   0.987629 0.106208 0.460549 -0.276571
C60   C     C_3   0.982145 0.103733 0.540697 -0.268882
C61   C     C_R   0.252364 0.592630 0.420918 0.018962
C62   C     C_R   0.748551 0.604853 0.581757 0.022129
C63   C     C_R   0.752364 0.092630 0.420918 0.018962
C64   C     C_R   0.248551 0.104853 0.581757 0.022129
C65   C     C_R   0.215858 0.685749 0.453524 0.020414
C66   C     C_R   0.795749 0.678429 0.545481 0.024486
C67   C     C_R   0.715858 0.185749 0.453524 0.020414
C68   C     C_R   0.295749 0.178429 0.545481 0.024486
C69   C     C_R   0.216594 0.693656 0.526130 0.044387
C70   C     C_R   0.792257 0.685365 0.472967 0.035429
C71   C     C_R   0.716594 0.193656 0.526130 0.044387
C72   C     C_R   0.292257 0.185365 0.472967 0.035429
C73   C     C_R   0.299372 0.530735 0.536170 -0.173680
C74   C     C_R   0.685767 0.570361 0.470959 -0.154108
C75   C     C_R   0.799372 0.030735 0.536170 -0.173680
C76   C     C_R   0.185767 0.070361 0.470959 -0.154108
C77   C     C_R   0.299692 0.523029 0.462230 -0.167644
C78   C     C_R   0.688626 0.563646 0.545254 -0.155173
C79   C     C_R   0.799692 0.023029 0.462230 -0.167644
C80   C     C_R   0.188626 0.063646 0.545254 -0.155173
C81   C     C_3   0.140684 0.724451 0.448786 -0.268006
C82   C     C_3   0.874365 0.679452 0.544422 -0.268408
C83   C     C_3   0.640684 0.224451 0.448786 -0.268006
C84   C     C_3   0.374365 0.179452 0.544422 -0.268408
C85   C     C_3   0.141624 0.729661 0.529114 -0.267078
C86   C     C_3   0.869473 0.686727 0.464375 -0.276696
C87   C     C_3   0.641624 0.229661 0.529114 -0.267078
C88   C     C_3   0.369473 0.186727 0.464375 -0.276696
C89   C     C_R   0.260186 0.634943 0.850185 0.536168
C90   C     C_R   0.739803 0.635056 0.149804 0.536855
C91   C     C_R   0.760186 0.134943 0.850185 0.536168
C92   C     C_R   0.239803 0.135056 0.149804 0.536855
C93   C     C_R   0.253912 0.611604 0.568598 0.026158
C94   C     C_R   0.741773 0.621947 0.434217 0.022476
C95   C     C_R   0.753912 0.111604 0.568598 0.026158
C96   C     C_R   0.241773 0.121947 0.434217 0.022476
C97   C     C_R   0.271014 0.048035 0.647388 0.564351
C98   C     C_R   0.728865 0.045863 0.353338 0.568410
C99   C     C_R   0.771014 0.548035 0.647388 0.564351
C100  C     C_R   0.228865 0.545863 0.353338 0.568410
C101  C     C_R   0.470519 0.823211 0.647668 0.556909
C102  C     C_R   0.533449 0.823136 0.354799 0.556988
C103  C     C_R   0.970519 0.323211 0.647668 0.556909
C104  C     C_R   0.033449 0.323136 0.354799 0.556988
C105  C     C_R   0.260417 0.639765 0.642873 0.551510
C106  C     C_R   0.738162 0.643625 0.358727 0.552589
C107  C     C_R   0.760417 0.139765 0.642873 0.551510
C108  C     C_R   0.238162 0.143625 0.358727 0.552589
C109  C     C_3   0.478651 0.921001 0.034941 -0.121423
C110  C     C_3   0.521492 0.920980 0.964783 -0.121241
C111  C     C_3   0.978651 0.421001 0.034941 -0.121423
C112  C     C_3   0.021492 0.420980 0.964783 -0.121241
C113  C     C_3   0.431591 0.821612 0.003453 -0.037134
C114  C     C_3   0.568633 0.821693 0.996497 -0.037018
C115  C     C_3   0.931591 0.321612 0.003453 -0.037134
C116  C     C_3   0.068633 0.321693 0.996497 -0.037018
C117  C     C_3   0.473327 0.821956 0.935027 0.011847
C118  C     C_3   0.526892 0.822116 0.064924 0.011773
C119  C     C_3   0.973327 0.321956 0.935027 0.011847
C120  C     C_3   0.026892 0.322116 0.064924 0.011773
Cr1   Cr    Cr6+3 0.229640 0.835880 0.747370 1.026294
Cr2   Cr    Cr6+3 0.770360 0.835880 0.252630 1.025538
Cr3   Cr    Cr6+3 0.729640 0.335880 0.747370 1.026294
Cr4   Cr    Cr6+3 0.270360 0.335880 0.252630 1.025538
Cr5   Cr    Cr6+3 0.387390 0.989720 0.750850 1.023315
Cr6   Cr    Cr6+3 0.612610 0.989720 0.249150 1.024393
Cr7   Cr    Cr6+3 0.887390 0.489720 0.750850 1.023315
Cr8   Cr    Cr6+3 0.112610 0.489720 0.249150 1.024393
Cr9   Cr    Cr6+3 0.385770 0.677220 0.749340 1.023026
Cr10  Cr    Cr6+3 0.614230 0.677220 0.250660 1.025213
Cr11  Cr    Cr6+3 0.885770 0.177220 0.749340 1.023026
Cr12  Cr    Cr6+3 0.114230 0.177220 0.250660 1.025213
H1    H     H_    0.506418 0.024490 0.569912 0.116742
H2    H     H_    0.515727 0.024214 0.439265 0.118873
H3    H     H_    0.006418 0.524490 0.569912 0.116742
H4    H     H_    0.015727 0.524214 0.439265 0.118873
H5    H     H_    0.021464 0.033731 0.439531 0.133560
H6    H     H_    0.927527 0.110357 0.558449 0.172288
H7    H     H_    0.521464 0.533732 0.439531 0.133560
H8    H     H_    0.427527 0.610357 0.558449 0.172287
H9    H     H_    0.436393 0.616518 0.432377 0.146119
H10   H     H_    0.513518 0.530588 0.566204 0.127728
H11   H     H_    0.936393 0.116518 0.432377 0.146119
H12   H     H_    0.013518 0.030588 0.566204 0.127728
H13   H     H_    0.332979 0.472026 0.567723 0.125585
H14   H     H_    0.641726 0.531693 0.442476 0.127045
H15   H     H_    0.832979 0.972026 0.567723 0.125585
H16   H     H_    0.141726 0.031693 0.442476 0.127045
H17   H     H_    0.331401 0.454059 0.438302 0.138813
H18   H     H_    0.647908 0.516748 0.573170 0.121210
H19   H     H_    0.831401 0.954059 0.438302 0.138813
H20   H     H_    0.147908 0.016748 0.573170 0.121210
H21   H     H_    0.104316 0.654702 0.428368 0.163417
H22   H     H_    0.897709 0.593172 0.562382 0.169200
H23   H     H_    0.604316 0.154702 0.428368 0.163417
H24   H     H_    0.397709 0.093172 0.562382 0.169200
H25   H     H_    0.134460 0.814316 0.423227 0.131394
H26   H     H_    0.897003 0.761777 0.569466 0.130717
H27   H     H_    0.634460 0.314316 0.423227 0.131394
H28   H     H_    0.397003 0.261777 0.569466 0.130717
H29   H     H_    0.134296 0.821591 0.550289 0.139893
H30   H     H_    0.889299 0.773141 0.442801 0.136031
H31   H     H_    0.634296 0.321591 0.550289 0.139893
H32   H     H_    0.389299 0.273141 0.442801 0.136031
H33   H     H_    0.108685 0.659363 0.554119 0.138051
H34   H     H_    0.888980 0.604488 0.437325 0.141414
H35   H     H_    0.608685 0.159363 0.554119 0.138051
H36   H     H_    0.388980 0.104488 0.437325 0.141414
H37   H     H_    0.461148 0.999330 0.066488 0.153281
H38   H     H_    0.538949 0.999345 0.933107 0.153076
H39   H     H_    0.961148 0.499330 0.066488 0.153281
H40   H     H_    0.038949 0.499345 0.933107 0.153076
H41   H     H_    0.542412 0.643226 0.937422 0.151729
H42   H     H_    0.457893 0.643270 0.062904 0.151612
H43   H     H_    0.042412 0.143226 0.937422 0.151729
H44   H     H_    0.957893 0.143270 0.062904 0.151612
H45   H     H_    0.138075 0.628902 0.913567 0.172059
H46   H     H_    0.861866 0.628996 0.086297 0.171997
H47   H     H_    0.638075 0.128902 0.913567 0.172059
H48   H     H_    0.361866 0.128996 0.086297 0.171997
H49   H     H_    0.813604 0.829076 0.044135 0.174897
H50   H     H_    0.186421 0.829107 0.956214 0.175057
H51   H     H_    0.313604 0.329076 0.044135 0.174897
H52   H     H_    0.686421 0.329107 0.956214 0.175057
H53   H     H_    0.386894 0.431376 0.066819 0.187105
H54   H     H_    0.613033 0.431404 0.933604 0.187633
H55   H     H_    0.886894 0.931376 0.066819 0.187105
H56   H     H_    0.113033 0.931404 0.933604 0.187633
O1    O     O_R   0.214300 0.709080 0.827500 -0.532759
O2    O     O_R   0.785700 0.709080 0.172500 -0.532286
O3    O     O_R   0.714300 0.209080 0.827500 -0.532759
O4    O     O_R   0.285700 0.209080 0.172500 -0.532286
O5    O     O_R   0.445900 0.919370 0.676500 -0.505316
O6    O     O_R   0.554100 0.919370 0.323500 -0.503756
O7    O     O_R   0.945900 0.419370 0.676500 -0.505316
O8    O     O_R   0.054100 0.419370 0.323500 -0.503756
O9    O     O_R   0.456660 0.717710 0.669820 -0.516293
O10   O     O_R   0.543340 0.717710 0.330180 -0.511038
O11   O     O_R   0.956660 0.217710 0.669820 -0.516293
O12   O     O_R   0.043340 0.217710 0.330180 -0.511038
O13   O     O_R   0.320590 0.625770 0.672930 -0.508983
O14   O     O_R   0.679410 0.625770 0.327070 -0.507042
O15   O     O_R   0.820590 0.125770 0.672930 -0.508983
O16   O     O_R   0.179410 0.125770 0.327070 -0.507042
O17   O     O_3   0.334270 0.834280 0.749190 -0.291539
O18   O     O_3   0.665730 0.834280 0.250810 -0.294349
O19   O     O_3   0.834270 0.334280 0.749190 -0.291539
O20   O     O_3   0.165730 0.334280 0.250810 -0.294349
O21   O     O_R   0.236190 0.958390 0.823150 -0.488517
O22   O     O_R   0.763810 0.958390 0.176850 -0.488037
O23   O     O_R   0.736190 0.458390 0.823150 -0.488517
O24   O     O_R   0.263810 0.458390 0.176850 -0.488037
O25   O     O_R   0.332090 0.075280 0.831290 -0.511127
O26   O     O_R   0.667910 0.075280 0.168710 -0.511010
O27   O     O_R   0.832090 0.575280 0.831290 -0.511127
O28   O     O_R   0.167910 0.575280 0.168710 -0.511010
O29   O     O_R   0.446280 0.918040 0.826620 -0.530049
O30   O     O_R   0.553720 0.918040 0.173380 -0.529482
O31   O     O_R   0.946280 0.418040 0.826620 -0.530049
O32   O     O_R   0.053720 0.418040 0.173380 -0.529482
O33   O     O_R   0.457080 0.716270 0.831760 -0.517040
O34   O     O_R   0.542920 0.716270 0.168240 -0.517062
O35   O     O_R   0.957080 0.216270 0.831760 -0.517040
O36   O     O_R   0.042920 0.216270 0.168240 -0.517062
O37   O     O_R   0.320980 0.624440 0.823040 -0.522599
O38   O     O_R   0.679020 0.624440 0.176960 -0.522761
O39   O     O_R   0.820980 0.124440 0.823040 -0.522599
O40   O     O_R   0.179020 0.124440 0.176960 -0.522761
O41   O     O_R   0.213880 0.710510 0.665560 -0.517468
O42   O     O_R   0.786120 0.710510 0.334440 -0.518149
O43   O     O_R   0.713880 0.210510 0.665560 -0.517468
O44   O     O_R   0.286120 0.210510 0.334440 -0.518149
O45   O     O_R   0.235800 0.959720 0.673040 -0.502199
O46   O     O_R   0.764200 0.959720 0.326960 -0.506453
O47   O     O_R   0.735800 0.459720 0.673040 -0.502199
O48   O     O_R   0.264200 0.459720 0.326960 -0.506453
O49   O     O_R   0.331670 0.076720 0.669350 -0.517519
O50   O     O_R   0.668330 0.076720 0.330650 -0.516738
O51   O     O_R   0.831670 0.576720 0.669350 -0.517519
O52   O     O_R   0.168330 0.576720 0.330650 -0.516738
C121  C     C_1   0.357147 0.809779 0.011845 0.159776
N1    N     N_1   0.298204 0.797881 0.019893 -0.335088
C122  C     C_1   0.643074 0.809945 0.988067 0.159820
N2    N     N_1   0.702014 0.798109 0.979974 -0.335125
C123  C     C_1   0.857147 0.309779 0.011845 0.159776
N3    N     N_1   0.798204 0.297881 0.019893 -0.335088
C124  C     C_1   0.143074 0.309945 0.988067 0.159820
N4    N     N_1   0.202014 0.298109 0.979974 -0.335125
C125  C     C_2   0.100049 0.621754 0.045274 0.230314
H57   H     H_    0.076005 0.583076 0.091167 0.163418
O53   O     O_2   0.067066 0.698498 0.012625 -0.426556
C126  C     C_2   0.899855 0.621624 0.954599 0.230318
H58   H     H_    0.923932 0.582696 0.908864 0.163374
O54   O     O_2   0.932813 0.698482 0.987005 -0.426772
C127  C     C_2   0.600049 0.121754 0.045274 0.230314
H59   H     H_    0.576005 0.083076 0.091167 0.163418
O55   O     O_2   0.567066 0.198498 0.012625 -0.426556
C128  C     C_2   0.399855 0.121624 0.954599 0.230318
H60   H     H_    0.423932 0.082696 0.908864 0.163374
O56   O     O_2   0.432813 0.198482 0.987005 -0.426772
C129  C     C_2   0.421801 0.483464 0.934578 0.250009
H61   H     H_    0.429263 0.576309 0.921937 0.121385
O57   O     O_2   0.470244 0.412637 0.929850 -0.430496
C130  C     C_2   0.578322 0.482851 0.065932 0.249612
H62   H     H_    0.570742 0.575559 0.078719 0.121756
O58   O     O_2   0.529993 0.411816 0.070686 -0.430811
C131  C     C_2   0.921801 0.983464 0.934578 0.250009
H63   H     H_    0.929263 0.076309 0.921937 0.121385
O59   O     O_2   0.970244 0.912637 0.929850 -0.430496
C132  C     C_2   0.078322 0.982851 0.065932 0.249612
H64   H     H_    0.070742 0.075559 0.078719 0.121756
O60   O     O_2   0.029993 0.911816 0.070686 -0.430811
C133  C     C_1   0.321548 0.359540 0.899790 0.291196
N5    N     N_1   0.297246 0.299748 0.855561 -0.236281
C134  C     C_1   0.678916 0.359249 0.100509 0.290318
N6    N     N_1   0.703494 0.299426 0.144692 -0.235890
C135  C     C_1   0.821548 0.859540 0.899790 0.291196
N7    N     N_1   0.797246 0.799748 0.855561 -0.236281
C136  C     C_1   0.178916 0.859249 0.100509 0.290318
N8    N     N_1   0.203494 0.799426 0.144692 -0.235890

loop_
_geom_bond_atom_site_label_1
_geom_bond_atom_site_label_2
_ccdc_geom_bond_type
C127  O55   D    
C107  O43   A    
Cr2   O18   S    
C73   C93   A    
C75   C95   A    
C48   C120  S    
C63   C98   S    
C69   C93   A    
C5    C6    S    
C20   C40   A    
C71   C95   A    
C3    O27   A    
C22   C38   A    
C29   C33   S    
Cr3   O23   S    
Cr7   O19   S    
C25   C125  S    
C87   H35   S    
C12   C16   A    
C88   H36   S    
C23   H47   S    
Cr10  O14   S    
C21   H45   S    
C96   C108  S    
C59   C60   S    
C123  N3    T    
C31   H49   S    
C102  O6    A    
C41   C49   A    
C109  C118  S    
C125  O53   D    
C9    C25   A    
C51   C52   A    
C7    C119  S    
C53   H1    S    
C30   C34   S    
C6    H42   S    
C91   O3    A    
C106  O42   A    
C36   C136  S    
Cr7   O7    S    
C66   C82   S    
C116  C124  S    
Cr5   O5    S    
C68   C72   A    
Cr4   O44   S    
C64   C97   S    
Cr2   O46   S    
C2    O26   A    
C132  O60   D    
C100  O48   A    
Cr6   O50   S    
C58   H8    S    
C47   O35   A    
C90   O38   A    
C84   C88   S    
C37   C89   S    
C97   O49   A    
C34   C134  S    
C38   C90   S    
C46   O34   A    
C85   H33   S    
C18   C38   A    
C19   C35   S    
C76   C96   A    
C84   H24   S    
C44   C55   A    
Cr7   O27   S    
C66   C70   A    
Cr5   O17   S    
C35   C135  S    
C62   C99   S    
C72   C96   A    
C61   C65   A    
Cr4   O20   S    
Cr10  O38   S    
C31   H55   S    
C73   C77   A    
Cr8   O20   S    
C35   C131  S    
C75   C79   A    
Cr9   O9    S    
Cr6   O30   S    
C60   H6    S    
C126  H58   S    
C54   H2    S    
C67   C83   S    
C4    O28   A    
C128  O56   D    
C111  C112  S    
Cr11  O19   S    
C7    C8    S    
C53   C54   A    
C46   C118  S    
C125  H57   S    
C64   C68   A    
C42   C53   A    
Cr1   O1    S    
C129  H61   S    
C82   H26   S    
C101  O9    A    
C83   H23   S    
Cr12  O12   S    
C49   C57   S    
C41   C102  S    
C121  N1    T    
C43   C104  S    
C9    C13   A    
C52   C60   S    
C61   C77   A    
C130  H62   S    
C24   H48   S    
Cr2   O22   S    
Cr8   O32   S    
Cr9   O13   S    
C44   C52   A    
C59   H11   S    
C135  N7    T    
C104  O12   A    
C1    C12   S    
Cr5   O25   S    
C2    C11   S    
C56   H4    S    
C44   C103  S    
C109  H37   S    
C3    O23   A    
Cr1   O41   S    
C62   C66   A    
C1    O21   A    
C10   C14   A    
C17   C37   A    
C48   O36   A    
C88   H32   S    
C116  C120  S    
C73   H13   S    
Cr4   O48   S    
C7    C116  S    
C107  O15   A    
Cr10  O18   S    
C105  O13   A    
C98   O46   A    
C50   C58   S    
Cr3   O43   S    
C76   H16   S    
C26   C126  S    
Cr8   O28   S    
C113  C117  S    
C42   C50   A    
C28   C128  S    
C74   C78   A    
C61   C100  S    
C42   C101  S    
C112  C116  S    
C69   C85   S    
C90   O2    A    
C45   C117  S    
C21   C25   A    
C36   C132  S    
C5    H41   S    
C62   C78   A    
C76   C80   A    
C131  H63   S    
C8    H44   S    
C15   C31   S    
C16   C32   S    
C113  C121  S    
C13   C17   A    
C45   O33   A    
C128  H60   S    
C34   C130  S    
C57   C58   S    
C33   C133  S    
C29   H53   S    
C100  O52   A    
C111  H39   S    
C49   C50   A    
Cr9   O37   S    
Cr11  O35   S    
C4    C9    S    
C81   C85   S    
C83   C87   S    
C55   C56   A    
Cr7   O51   S    
C46   O30   A    
C85   H29   S    
C74   C94   A    
C134  N6    T    
C86   H34   S    
Cr1   O17   S    
C11   C27   A    
C84   H28   S    
Cr7   O31   S    
C15   C19   A    
C8    C120  S    
C17   C33   S    
C12   C28   A    
C13   C29   S    
C70   C94   A    
Cr12  O40   S    
C108  O44   A    
C122  N2    T    
C33   C129  S    
C57   H7    S    
C39   C91   S    
Cr6   O26   S    
C136  N8    T    
Cr11  O15   S    
C99   O51   A    
C11   C15   A    
C64   C80   A    
C103  O7    A    
C110  C117  S    
C101  O5    A    
Cr2   O2    S    
Cr12  O16   S    
C81   H25   S    
C68   C84   S    
C24   C28   A    
Cr10  O34   S    
C77   H17   S    
Cr4   O24   S    
C75   H15   S    
C82   C86   S    
C115  C119  S    
C105  O41   A    
Cr9   O17   S    
Cr6   O6    S    
C65   C81   S    
C104  O8    A    
C95   C107  S    
Cr3   O47   S    
C110  H38   S    
Cr1   O45   S    
C1    O25   A    
C31   C35   S    
Cr3   O3    S    
C32   C36   S    
Cr4   O4    S    
Cr5   O49   S    
C126  O54   D    
C48   O32   A    
C91   O39   A    
Cr12  O36   S    
C74   H14   S    
C89   O37   A    
C112  C119  S    
C98   O50   A    
Cr8   O52   S    
C57   H9    S    
C109  C110  S    
C60   H12   S    
C131  O59   D    
C43   C51   A    
C112  H40   S    
Cr6   O18   S    
C65   C69   A    
C67   C71   A    
C20   C36   S    
Cr11  O39   S    
C21   C37   A    
C92   O40   A    
C130  O58   D    
C22   C26   A    
C89   O1    A    
C132  H64   S    
C27   C127  S    
C92   O4    A    
C115  C123  S    
Cr5   O29   S    
C87   H31   S    
C5    C114  S    
C45   O29   A    
C14   C18   A    
C22   H46   S    
C81   H21   S    
C63   C79   A    
C30   H54   S    
C32   H50   S    
C102  O10   A    
C23   C39   A    
C59   H5    S    
C58   H10   S    
C8    C115  S    
C93   C105  S    
C7    H43   S    
C86   H30   S    
C23   C27   A    
C16   C20   A    
C10   C26   A    
C47   C119  S    
C114  C122  S    
C14   C30   S    
C72   C88   S    
Cr2   O42   S    
C63   C67   A    
C2    O22   A    
C32   H56   S    
Cr9   O33   S    
C129  O57   D    
C47   O31   A    
C5    C117  S    
C111  C120  S    
Cr11  O11   S    
C6    C113  S    
C106  O14   A    
C99   O47   A    
C97   O45   A    
C133  N5    T    
Cr3   O19   S    
C103  O11   A    
C40   C92   S    
C18   C34   S    
C114  C118  S    
C19   C39   A    
Cr12  O20   S    
Cr1   O21   S    
C71   C87   S    
C51   C59   S    
C127  H59   S    
C70   C86   S    
C78   H18   S    
C79   H19   S    
C80   H20   S    
C110  C114  S    
C94   C106  S    
C29   H51   S    
C30   H52   S    
Cr8   O8    S    
C124  N4    T    
C109  C113  S    
C4    O24   A    
C108  O16   A    
C3    C10   S    
C55   H3    S    
C24   C40   A    
C41   C54   A    
C82   H22   S    
C43   C56   A    
C83   H27   S    
C111  C115  S    
Cr10  O10   S    
C6    C118  S    
