data_mof_unit_36215.cif
_audit_creation_date              2013-03-05T15:50:07-0500
_audit_creation_method            fapswitch 2.2
_symmetry_space_group_name_H-M    P1
_symmetry_Int_Tables_number       1
_space_group_crystal_system       triclinic
_cell_length_a                    12.074051
_cell_length_b                    12.84122
_cell_length_c                    15.404389
_cell_angle_alpha                 86.084383
_cell_angle_beta                  116.152497
_cell_angle_gamma                 92.268583
_cell_volume                      2138.7447485

loop_
_atom_site_label
_atom_site_type_symbol
_atom_site_description
_atom_site_fract_x
_atom_site_fract_y
_atom_site_fract_z
_atom_type_partial_charge
O1    O     O_R   0.580150 0.341050 0.504560 -0.578347
O2    O     O_R   0.419850 0.658950 0.495440 -0.575624
O3    O     O_R   0.388090 0.353760 0.493600 -0.616692
O4    O     O_R   0.611910 0.646240 0.506400 -0.615284
C1    C     C_R   0.480128 0.299862 0.502511 0.978542
C2    C     C_R   0.519826 0.700113 0.497402 0.956845
O5    O     O_R   0.650890 0.490020 0.640860 -0.566058
O6    O     O_R   0.349110 0.509980 0.359140 -0.562328
O7    O     O_R   0.458830 0.502730 0.629890 -0.550793
O8    O     O_R   0.541170 0.497270 0.370110 -0.593182
C3    C     C_R   0.578068 0.499820 0.681697 0.978847
C4    C     C_R   0.421943 0.502762 0.318560 0.992925
Zn1   Zn    Zn3+2 0.628240 0.491510 0.507320 1.089995
Zn2   Zn    Zn3+2 0.371760 0.508490 0.492680 1.113083
C5    C     C_R   0.631132 0.511764 0.788489 -0.316770
C6    C     C_R   0.371650 0.514311 0.211989 -0.260484
C7    C     C_R   0.791871 0.471838 0.952843 0.247336
C8    C     C_R   0.256851 0.630885 0.071416 0.254032
C9    C     C_R   0.752051 0.477434 0.851990 0.196297
C10   C     C_R   0.264734 0.574180 0.155867 0.225921
C11   C     C_R   0.557519 0.554274 0.827881 0.243306
C12   C     C_R   0.447682 0.487059 0.169995 0.197808
C13   C     C_R   0.600135 0.554025 0.929745 -0.044315
C14   C     C_R   0.450333 0.552908 0.093790 -0.031132
C15   C     C_R   0.714280 0.505784 0.991507 -0.045701
C16   C     C_R   0.352548 0.623947 0.043137 -0.047010
C17   C     C_R   0.526387 0.590111 0.972335 0.099102
C18   C     C_R   0.545933 0.547981 0.064664 0.132075
C19   C     C_R   0.662732 0.507580 0.126585 -0.119458
C20   C     C_R   0.436138 0.667645 0.928161 -0.097474
C21   C     C_R   0.748068 0.491559 0.091310 -0.050449
C22   C     C_R   0.351109 0.685000 0.963573 -0.044384
H1    H     H_    0.837380 0.461830 0.142120 0.210209
H2    H     H_    0.282180 0.744322 0.926280 0.213364
H3    H     H_    0.689146 0.489312 0.202770 0.166151
H4    H     H_    0.432530 0.717768 0.867870 0.215132
C23   C     C_R   0.527134 0.811254 0.488373 -0.207060
C24   C     C_R   0.472738 0.188674 0.511432 -0.214762
C25   C     C_R   0.429440 0.028507 0.582748 0.266510
C26   C     C_R   0.569755 0.971345 0.416612 0.257762
C27   C     C_R   0.428387 0.137524 0.573754 0.217401
C28   C     C_R   0.570758 0.862344 0.425584 0.230849
C29   C     C_R   0.517148 0.134096 0.459042 -0.127167
C30   C     C_R   0.483075 0.865836 0.540972 -0.146840
C31   C     C_R   0.522236 0.026582 0.468775 -0.027791
C32   C     C_R   0.477454 0.973318 0.530898 -0.025299
H5    H     H_    0.452658 0.822900 0.589680 0.232760
H6    H     H_    0.548332 0.177037 0.410800 0.237269
N1    N     N_R   0.799120 0.480200 0.517090 -0.153997
N2    N     N_R   0.200880 0.519800 0.482910 -0.153818
C33   C     C_R   0.020888 0.626076 0.446228 -0.260721
C34   C     C_R   0.979067 0.374002 0.553341 -0.231904
C35   C     C_R   0.136435 0.612088 0.446561 0.463382
C36   C     C_R   0.863280 0.387631 0.552567 0.458779
C37   C     C_R   0.149614 0.441293 0.518557 0.024110
C38   C     C_R   0.850564 0.558955 0.481742 -0.032231
C39   C     C_R   0.032544 0.453371 0.518154 0.010713
C40   C     C_R   0.967605 0.546924 0.481942 0.004673
H7    H     H_    0.800060 0.630639 0.452074 0.196401
H8    H     H_    0.200201 0.369687 0.548432 0.194337
H9    H     H_    0.972538 0.699065 0.417167 0.220424
H10   H     H_    0.027240 0.300864 0.581976 0.222384
N3    N     N_R   0.814326 0.301065 0.588403 0.222288
O9    O     O_R   0.822771 0.207070 0.565360 -0.324211
O10   O     O_R   0.784201 0.312491 0.658186 -0.286309
N4    N     N_R   0.184720 0.697776 0.409053 0.223900
O11   O     O_R   0.176308 0.792375 0.430792 -0.313211
O12   O     O_R   0.214438 0.684756 0.339268 -0.313153
N5    N     N_R   0.501476 0.383982 0.191459 0.224693
O13   O     O_R   0.506083 0.334243 0.122261 -0.283181
O14   O     O_R   0.519036 0.330450 0.271165 -0.370541
N6    N     N_R   0.434131 0.586997 0.764305 0.205971
O15   O     O_R   0.340294 0.530438 0.760292 -0.322185
O16   O     O_R   0.415754 0.670071 0.706499 -0.388055
N7    N     N_R   0.160763 0.568130 0.178854 0.267063
O17   O     O_R   0.135168 0.480550 0.214259 -0.321826
O18   O     O_R   0.079989 0.642427 0.150406 -0.273598
N8    N     N_R   0.833447 0.441651 0.815392 0.267312
O19   O     O_R   0.883859 0.509258 0.776429 -0.292235
O20   O     O_R   0.880559 0.348844 0.842707 -0.226404
N9    N     N_R   0.909564 0.426530 0.015243 0.246985
O21   O     O_R   0.008056 0.460205 0.007563 -0.266834
O22   O     O_R   0.914436 0.339238 0.064895 -0.285789
N10   N     N_R   0.152287 0.695136 0.014295 0.237722
O23   O     O_R   0.148747 0.789327 0.039087 -0.265453
O24   O     O_R   0.071453 0.666185 0.930184 -0.284406
N11   N     N_R   0.612298 0.804358 0.369092 0.224592
O25   O     O_R   0.717679 0.827027 0.367980 -0.320719
O26   O     O_R   0.540359 0.734800 0.312337 -0.405405
N12   N     N_R   0.385926 0.195470 0.629690 0.228987
O27   O     O_R   0.280203 0.172651 0.630133 -0.306181
O28   O     O_R   0.457064 0.265543 0.686249 -0.352238
N13   N     N_R   0.387053 0.974776 0.647525 0.228179
O29   O     O_R   0.441088 0.991136 0.739524 -0.276214
O30   O     O_R   0.288301 0.916286 0.613515 -0.272131
N14   N     N_R   0.611172 0.024975 0.351224 0.236902
O31   O     O_R   0.555465 0.009169 0.259114 -0.245681
O32   O     O_R   0.710651 0.082640 0.384660 -0.270281

loop_
_geom_bond_atom_site_label_1
_geom_bond_atom_site_label_2
_geom_bond_distance
_ccdc_geom_bond_type
C15   C21   1.406433 A    
N4    O12   1.296785 A    
N11   O25   1.301216 A    
N3    O10   1.296083 A    
C16   C22   1.402934 A    
N13   O29   1.301139 A    
C33   H9    1.084117 S    
O7    Zn2   1.898461 S    
N9    O21   1.300580 A    
C39   C40   1.402374 A    
C25   C27   1.397305 A    
C31   C32   1.418952 A    
C5    C9    1.419803 A    
O1    C1    1.287368 A    
C18   C19   1.404386 A    
C14   C16   1.418065 A    
N8    O20   1.301950 A    
C36   N3    1.428842 S    
N1    C36   1.386635 A    
O4    Zn1   2.002910 S    
C23   C28   1.406563 A    
N5    O14   1.300706 A    
C25   N13   1.435918 S    
C8    C16   1.410649 A    
C3    C5    1.495945 S    
C4    C6    1.476781 S    
C30   C32   1.379319 A    
N14   O32   1.300999 A    
C8    N10   1.432802 S    
C21   H1    1.081188 S    
C13   C17   1.423800 A    
C29   H6    1.082740 S    
C12   N5    1.449889 S    
C8    C10   1.413724 A    
C30   H5    1.082696 S    
C6    C10   1.417346 A    
C26   C28   1.397088 A    
C27   N12   1.437406 S    
N13   O30   1.300939 A    
C1    C24   1.428061 S    
C17   C20   1.407633 A    
O2    C2    1.287223 A    
C26   N14   1.435611 S    
N9    O22   1.301323 A    
C34   C36   1.410538 A    
C26   C31   1.412249 A    
N2    C35   1.386267 A    
C11   N6    1.436097 S    
N10   O23   1.300848 A    
C24   C27   1.406803 A    
N6    O16   1.301922 A    
N8    O19   1.301333 A    
O6    Zn2   1.950883 S    
C10   N7    1.444893 S    
C33   C35   1.411402 A    
C22   H2    1.082547 S    
C9    N8    1.433317 S    
O5    C3    1.300688 A    
N7    O17   1.301935 A    
C29   C31   1.379372 A    
N12   O28   1.301047 A    
C5    C11   1.419601 A    
O6    C4    1.292916 A    
N14   O31   1.301584 A    
C2    C23   1.427489 S    
C33   C40   1.390502 A    
C35   N4    1.429613 S    
O7    C3    1.303210 A    
O3    Zn2   2.002908 S    
O8    C4    1.304048 A    
C25   C32   1.412191 A    
Zn1   N1    2.011866 S    
O4    C2    1.282931 A    
C11   C13   1.419399 A    
C12   C14   1.410477 A    
O1    Zn1   1.993130 S    
C6    C12   1.401274 A    
C14   C18   1.415581 A    
N10   O24   1.300717 A    
N6    O15   1.301621 A    
O3    C1    1.283051 A    
O8    Zn1   1.898462 S    
N1    C38   1.370497 A    
C19   H3    1.082790 S    
N2    C37   1.369536 A    
C38   H7    1.081371 S    
C20   H4    1.078725 S    
C7    C15   1.407870 A    
C23   C30   1.384854 A    
C37   C39   1.425340 A    
C24   C29   1.385098 A    
C19   C21   1.387374 A    
C34   H10   1.084180 S    
C20   C22   1.389108 A    
N12   O27   1.301223 A    
Zn2   N2    2.011867 S    
C7    C9    1.406753 A    
C38   C40   1.426279 A    
N4    O11   1.301306 A    
C7    N9    1.437627 S    
C13   C15   1.421114 A    
N5    O13   1.302059 A    
O2    Zn2   1.993130 S    
C34   C39   1.389403 A    
N3    O9    1.301312 A    
O5    Zn1   1.950883 S    
N7    O18   1.301247 A    
C17   C18   1.407256 A    
N11   O26   1.300947 A    
C28   N11   1.437400 S    
C37   H8    1.081304 S    
