data_mof_unit_61535.cif
_audit_creation_date              2012-10-26T18:45:07-0400
_audit_creation_method            fapswitch 2.2
_symmetry_space_group_name_H-M    P1
_symmetry_Int_Tables_number       1
_space_group_crystal_system       triclinic
_cell_length_a                    15.98916
_cell_length_b                    14.75837
_cell_length_c                    10.811908
_cell_angle_alpha                 89.587691
_cell_angle_beta                  89.878653
_cell_angle_gamma                 89.997772
_cell_volume                      2551.25673976

loop_
_atom_site_label
_atom_site_type_symbol
_atom_type_description
_atom_site_fract_x
_atom_site_fract_y
_atom_site_fract_z
_atom_type_partial_charge
C1    C     C_R   0.340845 0.500001 0.499243 0.527385
C2    C     C_1   0.176689 0.500053 0.499168 -0.059058
C3    C     C_1   0.251742 0.500013 0.499146 -0.034847
C4    C     C_1   0.748257 0.500027 0.499755 -0.033825
C5    C     C_R   0.501050 0.951505 0.611655 -0.110634
C6    C     C_R   0.501050 0.047329 0.611661 -0.105946
C7    C     C_R   0.499789 0.500357 0.259526 0.545268
C8    C     C_R   0.499988 0.902868 0.500067 0.002732
C9    C     C_R   0.499986 0.097139 0.500077 0.004109
C10   C     C_R   0.498930 0.952683 0.388487 -0.103324
C11   C     C_R   0.498927 0.048504 0.388492 -0.110237
C12   C     C_3   0.511735 0.399032 0.931510 0.424670
C13   C     C_1   0.499982 0.802733 0.500051 0.137942
C14   C     C_1   0.499982 0.197269 0.500068 0.125470
C15   C     C_R   0.659150 0.499995 0.499861 0.528136
C16   C     C_R   0.501646 0.499408 0.740406 0.571711
C17   C     C_3   0.575130 0.564076 0.071831 0.226535
C18   C     C_3   0.411887 0.534847 0.071626 0.211856
C19   C     C_3   0.576886 0.559439 0.925151 -0.132099
C20   C     C_3   0.418812 0.543538 0.926791 -0.078660
C21   C     C_3   0.515053 0.403125 0.073880 -0.198838
C22   C     C_3   0.500399 0.501653 0.121743 0.041137
C23   C     C_R   0.956275 0.504669 0.611522 -0.103896
C24   C     C_3   0.502426 0.498478 0.878003 0.070499
C25   C     C_3   0.660239 0.535847 0.130567 -0.295408
C26   C     C_3   0.339859 0.469205 0.113014 -0.375046
C27   C     C_3   0.663407 0.538596 0.865965 -0.389268
C28   C     C_3   0.337989 0.518436 0.855430 -0.387582
C29   C     C_R   0.956448 0.495706 0.387382 -0.104150
C30   C     C_R   0.912773 0.500182 0.499515 0.041003
C31   C     C_R   0.043728 0.495667 0.387266 -0.104085
C32   C     C_R   0.043554 0.504633 0.611406 -0.104082
C33   C     C_R   0.087228 0.500118 0.499274 0.040942
C34   C     C_1   0.823312 0.500103 0.499650 -0.058422
Cu1   Cu    Cu3+1 0.500000 0.589220 0.500040 0.996237
Cu2   Cu    Cu3+1 0.500000 0.410780 0.500040 0.984514
H1    H     H_    0.498101 0.917430 0.300981 0.126160
H2    H     H_    0.923086 0.492233 0.300398 0.107088
H3    H     H_    0.501882 0.082589 0.699166 0.111930
H4    H     H_    0.501883 0.915327 0.699158 0.110559
H5    H     H_    0.657492 0.538398 0.232913 0.149206
H6    H     H_    0.680978 0.467133 0.104291 0.089547
H7    H     H_    0.709974 0.584457 0.102896 0.143729
H8    H     H_    0.342885 0.454485 0.213675 0.117168
H9    H     H_    0.277936 0.500991 0.096279 0.137265
H10   H     H_    0.340994 0.403840 0.063530 0.148851
H11   H     H_    0.522235 0.685914 0.056932 0.352736
H12   H     H_    0.498095 0.084682 0.300989 0.109645
H13   H     H_    0.371319 0.616540 0.203566 0.349645
H14   H     H_    0.690629 0.473591 0.897323 0.190365
H15   H     H_    0.659510 0.537279 0.763724 0.149013
H16   H     H_    0.708290 0.593396 0.888625 0.120540
H17   H     H_    0.324382 0.444976 0.857709 0.191011
H18   H     H_    0.283696 0.555465 0.894481 0.132739
H19   H     H_    0.342390 0.540187 0.757358 0.140990
H20   H     H_    0.574911 0.319586 0.817617 0.361341
H21   H     H_    0.452864 0.282733 0.924062 0.322565
H22   H     H_    0.564674 0.628812 0.888362 0.131440
H23   H     H_    0.424741 0.617295 0.905500 0.158871
H24   H     H_    0.575367 0.375743 0.108172 0.141847
H25   H     H_    0.468689 0.355318 0.114510 0.120422
H26   H     H_    0.076916 0.508099 0.698390 0.107485
H27   H     H_    0.077220 0.492167 0.300190 0.107229
H28   H     H_    0.922784 0.508157 0.698598 0.107972
N1    N     N_1   0.499980 0.276710 0.500040 -0.193037
N2    N     N_1   0.499980 0.723290 0.500040 -0.183060
O1    O     O_R   0.380310 0.575320 0.500060 -0.502576
O2    O     O_3   0.392504 0.621922 0.117472 -0.704991
O3    O     O_3   0.586785 0.358665 0.889744 -0.734638
O4    O     O_3   0.442583 0.345873 0.895445 -0.725765
O5    O     O_R   0.380310 0.424680 0.500060 -0.485832
O6    O     O_R   0.499990 0.575340 0.317720 -0.434701
O7    O     O_R   0.499990 0.424660 0.317720 -0.534641
O8    O     O_R   0.619690 0.575360 0.500000 -0.491282
O9    O     O_R   0.619690 0.424640 0.500000 -0.492904
O10   O     O_R   0.500010 0.575340 0.682340 -0.535179
O11   O     O_R   0.500010 0.424660 0.682340 -0.451600
O12   O     O_3   0.563256 0.654591 0.110684 -0.657891

loop_
_geom_bond_atom_site_label_1
_geom_bond_atom_site_label_2
_ccdc_geom_bond_type
C15   O9    A    
C12   O3    S    
Cu1   O8    S    
C8    C13   S    
H13   O2    S    
Cu1   Cu2   S    
C18   C26   S    
C25   H7    S    
C6    C9    A    
C26   H8    S    
C7    O7    A    
C1    O5    A    
C10   H1    S    
Cu2   O11   S    
C5    C6    A    
C18   O2    S    
C16   O11   A    
C26   H9    S    
C17   C19   S    
C20   C24   S    
C29   H2    S    
C31   C33   A    
H21   O4    S    
C19   C27   S    
C21   H25   S    
C27   H14   S    
C16   C24   S    
C16   O10   A    
C21   C22   S    
C11   H12   S    
C28   H19   S    
C27   H15   S    
C13   N2    T    
C19   H22   S    
C4    C34   T    
Cu1   O10   S    
C30   C34   S    
C23   C30   A    
C31   H27   S    
C21   H24   S    
C10   C11   A    
C25   H5    S    
C7    O6    A    
C28   H18   S    
Cu2   N1    S    
C20   C28   S    
Cu1   N2    S    
C12   C21   S    
C1    C3    S    
C9    C14   S    
C29   C30   A    
Cu2   O9    S    
Cu1   O1    S    
C20   H23   S    
C9    C11   A    
C2    C33   S    
C23   H28   S    
Cu1   O6    S    
C27   H16   S    
C12   O4    S    
C18   C22   S    
C25   H6    S    
C5    C8    A    
C28   H17   S    
Cu2   O5    S    
C7    C22   S    
C12   C24   S    
C17   C22   S    
C17   C25   S    
C32   C33   A    
C4    C15   S    
C2    C3    T    
C32   H26   S    
C29   C31   A    
C23   C32   A    
C17   O12   S    
C1    O1    A    
C14   N1    T    
C19   C24   S    
C18   C20   S    
Cu2   O7    S    
C26   H10   S    
C15   O8    A    
C8    C10   A    
H20   O3    S    
C5    H4    S    
C6    H3    S    
H11   O12   S    
