data_mof_unit_61643.cif
_audit_creation_date              2012-12-10T17:54:48-0500
_audit_creation_method            fapswitch 2.2
_symmetry_space_group_name_H-M    P1
_symmetry_Int_Tables_number       1
_space_group_crystal_system       triclinic
_cell_length_a                    19.635459
_cell_length_b                    19.6355
_cell_length_c                    60.082103
_cell_angle_alpha                 90.000291
_cell_angle_beta                  90.000349
_cell_angle_gamma                 89.999963
_cell_volume                      23164.7782913

loop_
_atom_site_label
_atom_site_type_symbol
_atom_type_description
_atom_site_fract_x
_atom_site_fract_y
_atom_site_fract_z
_atom_type_partial_charge
C1    C     C_R   0.500000 1.000000 0.189496 0.817894
C2    C     C_R   0.561168 0.005806 0.559285 -0.019509
C3    C     C_R   0.870728 0.629272 0.250000 0.829818
C4    C     C_R   0.370728 0.870728 0.750000 0.829787
C5    C     C_R   0.629272 0.129272 0.250000 0.829938
C6    C     C_R   0.870728 0.629272 0.750000 0.830013
C7    C     C_R   0.129272 0.370728 0.250000 0.829822
C8    C     C_1   0.318946 0.818947 0.250000 -0.139612
C9    C     C_1   0.681053 0.181053 0.750000 -0.139811
C10   C     C_1   0.181053 0.318947 0.250000 -0.139833
C11   C     C_1   0.818947 0.681053 0.750000 -0.139588
C12   C     C_1   0.681053 0.181053 0.250000 -0.139622
C13   C     C_R   0.994316 0.437873 0.440708 -0.019126
C14   C     C_1   0.318947 0.818947 0.750000 -0.139965
C15   C     C_1   0.818947 0.681053 0.250000 -0.139836
C16   C     C_1   0.181053 0.318947 0.750000 -0.139656
C17   C     C_1   0.318947 0.181053 0.750000 -0.139819
C18   C     C_1   0.681053 0.818947 0.250000 -0.139725
C19   C     C_1   0.181053 0.681053 0.750000 -0.140012
C20   C     C_1   0.818947 0.318947 0.250000 -0.139509
C21   C     C_1   0.681053 0.818947 0.750000 -0.139705
C22   C     C_1   0.318947 0.181053 0.250000 -0.139719
C23   C     C_1   0.818947 0.318947 0.750000 -0.139919
C24   C     C_R   0.994249 0.562114 0.559292 -0.019129
C25   C     C_1   0.181053 0.681053 0.250000 -0.139502
C26   C     C_1   0.275471 0.775471 0.250000 0.011202
C27   C     C_1   0.724529 0.224529 0.750000 0.010945
C28   C     C_1   0.224529 0.275471 0.250000 0.010978
C29   C     C_1   0.775471 0.724529 0.750000 0.011165
C30   C     C_1   0.724529 0.224529 0.250000 0.011190
C31   C     C_1   0.275471 0.775471 0.750000 0.010780
C32   C     C_1   0.775471 0.724528 0.250000 0.010971
C33   C     C_1   0.224529 0.275471 0.750000 0.011067
C34   C     C_1   0.275471 0.224528 0.750000 0.010994
C35   C     C_R   0.561688 0.994098 0.440732 -0.019365
C36   C     C_1   0.724529 0.775471 0.250000 0.011017
C37   C     C_1   0.224529 0.724529 0.750000 0.010764
C38   C     C_1   0.775471 0.275471 0.250000 0.011238
C39   C     C_1   0.724529 0.775471 0.750000 0.011123
C40   C     C_1   0.275471 0.224529 0.250000 0.011026
C41   C     C_1   0.775471 0.275471 0.750000 0.010894
C42   C     C_1   0.224529 0.724529 0.250000 0.011248
C43   C     C_R   0.439252 0.005510 0.417135 0.533514
C44   C     C_R   0.559657 0.005376 0.582800 0.535597
C45   C     C_R   0.994717 0.439536 0.417172 0.533549
C46   C     C_R   0.436688 0.994185 0.559319 -0.052427
C47   C     C_R   0.994653 0.560452 0.582828 0.533532
C48   C     C_R   0.560139 0.994508 0.417196 0.533789
C49   C     C_R   0.438731 0.994623 0.582908 0.514021
C50   C     C_R   0.005282 0.560457 0.417172 0.533559
C51   C     C_R   0.005339 0.439542 0.582828 0.533534
C52   C     C_R   0.939547 0.505367 0.917173 0.533514
C53   C     C_R   0.060460 0.505289 0.082827 0.533515
C54   C     C_R   0.505341 0.939545 0.917173 0.533515
C55   C     C_R   0.505315 0.060458 0.082827 0.533515
C56   C     C_R   0.060454 0.494635 0.917173 0.533515
C57   C     C_R   0.005680 0.562120 0.440708 -0.019114
C58   C     C_R   0.939540 0.494709 0.082827 0.533515
C59   C     C_R   0.494661 0.060456 0.917173 0.533515
C60   C     C_R   0.494683 0.939542 0.082827 0.533515
C61   C     C_R   0.501614 0.061927 0.370281 0.030245
C62   C     C_R   0.497982 0.061927 0.629721 0.028888
C63   C     C_R   0.938075 0.501644 0.370285 0.030247
C64   C     C_R   0.061923 0.501657 0.629715 0.030325
C65   C     C_R   0.498172 0.938079 0.370281 0.030219
C66   C     C_R   0.501386 0.938077 0.629717 0.029679
C67   C     C_R   0.061926 0.498351 0.370285 0.030214
C68   C     C_R   0.005741 0.437879 0.559292 -0.019116
C69   C     C_R   0.938072 0.498339 0.629715 0.030222
C70   C     C_R   0.001662 0.561926 0.870285 0.030259
C71   C     C_R   0.001644 0.438074 0.129714 0.030253
C72   C     C_R   0.561926 0.001654 0.870285 0.030260
C73   C     C_R   0.561925 0.998348 0.129715 0.030254
C74   C     C_R   0.998338 0.438076 0.870285 0.030258
C75   C     C_R   0.998356 0.561925 0.129715 0.030253
C76   C     C_R   0.438075 0.998346 0.870285 0.030257
C77   C     C_R   0.438074 0.001652 0.129714 0.030254
C78   C     C_R   0.501616 0.061686 0.346981 -0.239745
C79   C     C_R   0.937884 0.505770 0.940709 -0.019141
C80   C     C_R   0.498203 0.061687 0.653021 -0.241284
C81   C     C_R   0.938314 0.501591 0.346984 -0.239737
C82   C     C_R   0.061684 0.501603 0.653016 -0.240138
C83   C     C_R   0.498288 0.938317 0.346980 -0.239751
C84   C     C_R   0.501495 0.938317 0.653018 -0.241470
C85   C     C_R   0.061686 0.498406 0.346984 -0.239725
C86   C     C_R   0.938313 0.498394 0.653016 -0.239892
C87   C     C_R   0.001607 0.561686 0.846984 -0.239787
C88   C     C_R   0.001589 0.438314 0.153016 -0.239781
C89   C     C_R   0.561686 0.001599 0.846984 -0.239788
C90   C     C_R   0.062124 0.505688 0.059291 -0.019141
C91   C     C_R   0.561685 0.998402 0.153016 -0.239782
C92   C     C_R   0.998393 0.438315 0.846984 -0.239787
C93   C     C_R   0.998410 0.561685 0.153016 -0.239781
C94   C     C_R   0.438315 0.998401 0.846984 -0.239782
C95   C     C_R   0.438314 0.001598 0.153016 -0.239783
C96   C     C_R   0.499856 0.000004 0.382083 0.227816
C97   C     C_R   0.499593 0.000003 0.617917 0.237960
C98   C     C_R   0.000000 0.499997 0.382088 0.227871
C99   C     C_R   0.999997 0.499997 0.617912 0.227940
C100  C     C_R   0.000000 0.500001 0.882088 0.227873
C101  C     C_R   0.505743 0.937882 0.940709 -0.019141
C102  C     C_R   0.000000 0.499999 0.117912 0.227884
C103  C     C_R   0.500001 0.000000 0.882088 0.227876
C104  C     C_R   0.499999 0.000000 0.117912 0.227880
C105  C     C_R   0.499527 0.000005 0.452578 -0.131766
C106  C     C_R   0.498968 0.999993 0.547428 -0.110472
C107  C     C_R   0.999998 0.499996 0.452588 -0.130503
C108  C     C_R   0.999995 0.499996 0.547412 -0.130513
C109  C     C_R   0.000000 0.500001 0.952588 -0.130554
C110  C     C_R   0.000000 0.499999 0.047412 -0.130553
C111  C     C_R   0.500001 0.000000 0.952588 -0.130554
C112  C     C_R   0.500000 0.000000 0.810503 0.817928
C113  C     C_R   0.505716 0.062121 0.059291 -0.019141
C114  C     C_R   0.499999 0.000000 0.047412 -0.130554
C115  C     C_1   0.496135 0.873902 0.381945 0.203319
C116  C     C_1   0.503246 0.873900 0.618051 0.201752
C117  C     C_1   0.126106 0.496435 0.381950 0.203304
C118  C     C_1   0.873892 0.496407 0.618051 0.203098
C119  C     C_1   0.503578 0.126105 0.381946 0.203267
C120  C     C_1   0.495897 0.126104 0.618058 0.202739
C121  C     C_1   0.873895 0.503558 0.381949 0.203200
C122  C     C_1   0.126102 0.503588 0.618050 0.202711
C123  C     C_1   0.996403 0.373896 0.881949 0.203165
C124  C     C_R   0.062116 0.494231 0.940709 -0.019141
C125  C     C_1   0.996444 0.626105 0.118050 0.203158
C126  C     C_1   0.373896 0.996421 0.881949 0.203162
C127  C     C_1   0.373894 0.003574 0.118050 0.203163
C128  C     C_1   0.003597 0.626105 0.881950 0.203166
C129  C     C_1   0.003556 0.373893 0.118050 0.203159
C130  C     C_1   0.626106 0.003579 0.881950 0.203161
C131  C     C_1   0.626104 0.996425 0.118050 0.203162
C132  C     C_R   0.937877 0.494310 0.059291 -0.019141
C133  C     C_R   0.494259 0.062119 0.940709 -0.019141
C134  C     C_R   0.494282 0.937879 0.059291 -0.019141
C135  C     C_R   0.375935 0.012678 0.452622 0.147451
C136  C     C_R   0.622699 0.012460 0.547309 0.143042
C137  C     C_R   0.987818 0.376353 0.452689 0.145677
C138  C     C_R   0.987686 0.623627 0.547310 0.145630
C139  C     C_R   0.623122 0.987368 0.452748 0.145829
C140  C     C_R   1.000000 0.500000 0.189497 0.817894
C141  C     C_R   0.375130 0.987498 0.547114 0.122086
C142  C     C_R   0.012177 0.623640 0.452690 0.145580
C143  C     C_R   0.012302 0.376366 0.547310 0.145578
C144  C     C_R   0.876373 0.512355 0.952690 0.145792
C145  C     C_R   0.123643 0.512192 0.047310 0.145793
C146  C     C_R   0.512299 0.876368 0.952690 0.145793
C147  C     C_R   0.512248 0.123637 0.047310 0.145792
C148  C     C_R   0.123627 0.487647 0.952691 0.145791
C149  C     C_R   0.876357 0.487806 0.047309 0.145792
C150  C     C_R   0.487703 0.123632 0.952691 0.145793
C151  C     C_R   0.000000 0.500000 0.810503 0.817916
C152  C     C_R   0.487750 0.876363 0.047309 0.145793
C153  C     C_R   0.499975 0.000001 0.335134 -0.042971
C154  C     C_R   0.499917 0.000001 0.664866 -0.042901
C155  C     C_R   0.000000 0.499999 0.335136 -0.042995
C156  C     C_R   0.999999 0.499999 0.664864 -0.042966
C157  C     C_R   1.000000 0.500000 0.835136 -0.042999
C158  C     C_R   1.000000 0.499999 0.164864 -0.042992
C159  C     C_R   0.500000 0.000000 0.835136 -0.043005
C160  C     C_R   0.499999 1.000000 0.164864 -0.042993
C161  C     C_R   0.937566 0.497599 0.011837 0.045762
C162  C     C_R   1.000000 0.500000 0.689497 0.817799
C163  C     C_R   0.062431 0.497518 0.988163 0.045762
C164  C     C_R   0.497571 0.937567 0.011836 0.045762
C165  C     C_R   0.497546 0.062432 0.988163 0.045762
C166  C     C_R   0.062434 0.502401 0.011837 0.045762
C167  C     C_R   0.937569 0.502482 0.988163 0.045761
C168  C     C_R   0.502429 0.062433 0.011837 0.045762
C169  C     C_R   0.502454 0.937568 0.988163 0.045762
C170  C     C_R   0.436852 0.997543 0.511792 0.013731
C171  C     C_R   0.561755 0.997436 0.488183 0.046940
C172  C     C_R   0.002464 0.437564 0.511837 0.045699
C173  C     C_R   0.000000 0.500000 0.310503 0.817917
C174  C     C_R   0.002400 0.562430 0.488163 0.045689
C175  C     C_R   0.561619 0.002424 0.511854 0.047232
C176  C     C_R   0.436956 0.002554 0.488120 0.043818
C177  C     C_R   0.997526 0.562428 0.511837 0.045674
C178  C     C_R   0.997592 0.437562 0.488163 0.045739
C179  C     C_R   0.000000 0.500000 0.023647 0.072543
C180  C     C_R   0.000000 0.500000 0.976353 0.072542
C181  C     C_R   0.500000 0.000000 0.023647 0.072542
C182  C     C_R   0.500000 0.000000 0.976353 0.072542
C183  C     C_R   0.499138 0.999989 0.523650 0.072361
C184  C     C_R   0.499997 0.000000 0.689497 0.817976
C185  C     C_R   0.499413 0.999997 0.476339 0.077732
C186  C     C_R   0.999995 0.499996 0.523647 0.072615
C187  C     C_R   0.999997 0.499996 0.476352 0.072637
C188  C     C_R   0.876882 0.489317 0.024094 -0.269609
C189  C     C_R   0.123104 0.489157 0.975906 -0.269609
C190  C     C_R   0.489261 0.876887 0.024094 -0.269610
C191  C     C_R   0.489213 0.123109 0.975906 -0.269609
C192  C     C_R   0.123118 0.510682 0.024095 -0.269609
C193  C     C_R   0.876896 0.510844 0.975905 -0.269609
C194  C     C_R   0.510738 0.123113 0.024095 -0.269609
C195  C     C_R   0.500000 0.000000 0.310503 0.817939
C196  C     C_R   0.510788 0.876891 0.975905 -0.269610
C197  C     C_R   0.376159 0.989008 0.523976 -0.187061
C198  C     C_R   0.622479 0.988904 0.475963 -0.271061
C199  C     C_R   0.010801 0.376889 0.524095 -0.269299
C200  C     C_R   0.010675 0.623115 0.475905 -0.269189
C201  C     C_R   0.622229 0.010892 0.524108 -0.271372
C202  C     C_R   0.376356 0.011135 0.475838 -0.271222
C203  C     C_R   0.989187 0.623103 0.524095 -0.269024
C204  C     C_R   0.989318 0.376878 0.475904 -0.269343
C205  C     C_R   0.629272 0.870728 0.250000 0.829913
C206  C     C_R   0.437480 0.005924 0.440669 -0.019294
C207  C     C_R   0.370728 0.129272 0.750000 0.829817
C208  C     C_R   0.129272 0.629272 0.250000 0.830047
C209  C     C_R   0.870728 0.370728 0.750000 0.829787
C210  C     C_R   0.370728 0.129272 0.250000 0.829930
C211  C     C_R   0.629272 0.870728 0.750000 0.829965
C212  C     C_R   0.870728 0.370728 0.250000 0.830045
C213  C     C_R   0.129272 0.629272 0.750000 0.829775
C214  C     C_R   0.629272 0.129272 0.750000 0.829932
C215  C     C_R   0.370728 0.870728 0.250000 0.829951
C216  C     C_R   0.129272 0.370728 0.750000 0.830012
H1    H     H_    0.496950 0.890260 0.338107 0.174159
H2    H     H_    0.997114 0.609744 0.161889 0.174146
H3    H     H_    0.390257 0.997096 0.838111 0.174142
H4    H     H_    0.390255 0.002901 0.161889 0.174145
H5    H     H_    0.002918 0.609744 0.838111 0.174141
H6    H     H_    0.002886 0.390255 0.161889 0.174146
H7    H     H_    0.609744 0.002904 0.838111 0.174140
H8    H     H_    0.609743 0.997099 0.161889 0.174146
H9    H     H_    0.828362 0.481629 0.016101 0.139026
H10   H     H_    0.171614 0.481405 0.983899 0.139027
H11   H     H_    0.481551 0.828371 0.016101 0.139028
H12   H     H_    0.502884 0.890259 0.661890 0.174379
H13   H     H_    0.481483 0.171622 0.983899 0.139026
H14   H     H_    0.171638 0.518370 0.016102 0.139026
H15   H     H_    0.828387 0.518595 0.983899 0.139027
H16   H     H_    0.518448 0.171629 0.016101 0.139027
H17   H     H_    0.518518 0.828378 0.983899 0.139026
H18   H     H_    0.327788 0.981063 0.515901 0.154731
H19   H     H_    0.670917 0.981010 0.483992 0.139474
H20   H     H_    0.018537 0.328375 0.516103 0.139419
H21   H     H_    0.018360 0.671636 0.483897 0.139541
H22   H     H_    0.670733 0.018722 0.516116 0.139804
H23   H     H_    0.109745 0.497108 0.338111 0.174157
H24   H     H_    0.327849 0.019078 0.483817 0.138975
H25   H     H_    0.981451 0.671616 0.516103 0.139359
H26   H     H_    0.981633 0.328356 0.483896 0.139245
H27   H     H_    0.279532 0.982109 0.446213 0.188330
H28   H     H_    0.290586 0.067567 0.446784 0.187394
H29   H     H_    0.708166 0.067238 0.553097 0.186926
H30   H     H_    0.719099 0.981759 0.553676 0.187659
H31   H     H_    0.018849 0.280065 0.446331 0.187610
H32   H     H_    0.933338 0.290722 0.446882 0.186764
H33   H     H_    0.018611 0.719949 0.553668 0.188067
H34   H     H_    0.890255 0.497086 0.661889 0.174136
H35   H     H_    0.933112 0.709198 0.553118 0.186784
H36   H     H_    0.708560 0.932534 0.446996 0.186808
H37   H     H_    0.719567 0.018000 0.446439 0.187383
H38   H     H_    0.310462 0.934277 0.567094 0.238809
H39   H     H_    0.298401 0.021189 0.567072 0.240408
H40   H     H_    0.066658 0.709270 0.446883 0.187244
H41   H     H_    0.981148 0.719928 0.446332 0.187462
H42   H     H_    0.981373 0.280045 0.553668 0.187487
H43   H     H_    0.066872 0.290792 0.553117 0.187069
H44   H     H_    0.780037 0.481473 0.946331 0.187372
H45   H     H_    0.502992 0.109742 0.338108 0.174157
H46   H     H_    0.790826 0.566967 0.946885 0.186303
H47   H     H_    0.219937 0.481182 0.053669 0.187376
H48   H     H_    0.209264 0.566690 0.053115 0.186299
H49   H     H_    0.481374 0.780046 0.946331 0.187373
H50   H     H_    0.566873 0.790795 0.946885 0.186300
H51   H     H_    0.566785 0.209233 0.053115 0.186303
H52   H     H_    0.481282 0.219946 0.053669 0.187374
H53   H     H_    0.219963 0.518529 0.946332 0.187372
H54   H     H_    0.209176 0.433035 0.946885 0.186303
H55   H     H_    0.780063 0.518816 0.053668 0.187375
H56   H     H_    0.496910 0.109744 0.661895 0.174391
H57   H     H_    0.790737 0.433308 0.053114 0.186299
H58   H     H_    0.433130 0.209206 0.946885 0.186300
H59   H     H_    0.518629 0.219954 0.946332 0.187374
H60   H     H_    0.433212 0.790768 0.053114 0.186303
H61   H     H_    0.518716 0.780054 0.053668 0.187374
H62   H     H_    0.890256 0.502890 0.338111 0.174153
H63   H     H_    0.109743 0.502912 0.661889 0.174070
H64   H     H_    0.997082 0.390257 0.838111 0.174141
N1    N     N_R   0.499748 0.000007 0.406093 -0.365859
N2    N     N_1   0.504732 0.822461 0.608663 -0.179814
N3    N     N_1   0.177547 0.494904 0.391335 -0.177693
N4    N     N_1   0.822451 0.494863 0.608666 -0.178018
N5    N     N_1   0.505150 0.177545 0.391331 -0.177798
N6    N     N_1   0.494229 0.177543 0.608674 -0.178937
N7    N     N_1   0.822453 0.505089 0.391334 -0.177866
N8    N     N_1   0.177543 0.505132 0.608665 -0.178366
N9    N     N_1   0.994856 0.322455 0.891334 -0.177958
N10   N     N_1   0.994915 0.677546 0.108665 -0.177951
N11   N     N_1   0.322455 0.994882 0.891334 -0.177958
N12   N     N_R   0.499322 0.000001 0.593901 -0.354533
N13   N     N_1   0.322452 0.005112 0.108665 -0.177951
N14   N     N_1   0.005144 0.677546 0.891334 -0.177958
N15   N     N_1   0.005085 0.322452 0.108665 -0.177951
N16   N     N_1   0.677548 0.005118 0.891335 -0.177958
N17   N     N_1   0.677545 0.994888 0.108665 -0.177951
N18   N     N_3   0.312051 0.021664 0.441428 -0.370929
N19   N     N_3   0.686657 0.021371 0.558468 -0.370600
N20   N     N_3   0.979149 0.312378 0.441524 -0.371046
N21   N     N_3   0.978948 0.687593 0.558475 -0.371121
N22   N     N_3   0.687118 0.978426 0.441619 -0.371029
N23   N     N_R   1.000000 0.499996 0.406099 -0.365892
N24   N     N_3   0.309851 0.978467 0.557397 -0.448297
N25   N     N_3   0.020847 0.687615 0.441525 -0.370978
N26   N     N_3   0.021038 0.312400 0.558475 -0.371205
N27   N     N_3   0.812412 0.521124 0.941525 -0.371190
N28   N     N_3   0.187616 0.520877 0.058475 -0.371190
N29   N     N_3   0.521040 0.812402 0.941525 -0.371190
N30   N     N_3   0.520962 0.187607 0.058475 -0.371190
N31   N     N_3   0.187589 0.478878 0.941526 -0.371189
N32   N     N_3   0.812384 0.479121 0.058474 -0.371189
N33   N     N_3   0.478963 0.187598 0.941526 -0.371190
N34   N     N_R   0.999996 0.499997 0.593901 -0.365820
N35   N     N_3   0.479036 0.812394 0.058474 -0.371191
N36   N     N_R   0.000000 0.500001 0.906100 -0.365868
N37   N     N_R   0.000000 0.499999 0.093900 -0.365868
N38   N     N_R   0.500001 0.000000 0.906100 -0.365868
N39   N     N_R   0.499999 0.000000 0.093900 -0.365868
N40   N     N_1   0.494506 0.822464 0.391330 -0.177712
O1    O     O_3   0.500000 0.000000 0.250000 -0.478114
O2    O     O_R   0.444160 0.000000 0.799680 -0.642798
O3    O     O_R   0.000000 0.555840 0.200320 -0.642823
O4    O     O_R   1.000000 0.444160 0.799680 -0.642814
O5    O     O_R   0.944160 0.500000 0.700320 -0.642831
O6    O     O_R   0.055840 0.500000 0.299680 -0.642813
O7    O     O_R   0.500000 0.944160 0.700320 -0.642929
O8    O     O_R   0.500000 0.055840 0.299680 -0.642827
O9    O     O_R   0.055840 0.500000 0.700320 -0.642891
O10   O     O_R   0.944160 0.500000 0.299680 -0.642818
O11   O     O_R   0.500000 0.055840 0.700320 -0.642905
O12   O     O_3   0.500000 0.000000 0.750000 -0.478037
O13   O     O_R   0.500000 0.944160 0.299680 -0.642825
O14   O     O_R   0.634020 0.921800 0.237170 -0.632228
O15   O     O_R   0.365980 0.078200 0.762830 -0.631868
O16   O     O_R   0.078200 0.634020 0.237170 -0.631923
O17   O     O_R   0.921800 0.365980 0.762830 -0.632185
O18   O     O_R   0.365980 0.078200 0.237170 -0.632229
O19   O     O_R   0.634020 0.921800 0.762830 -0.631867
O20   O     O_R   0.921800 0.365980 0.237170 -0.631923
O21   O     O_R   0.078200 0.634020 0.762830 -0.632165
O22   O     O_R   0.634020 0.078200 0.762830 -0.632228
O23   O     O_3   0.000000 0.500000 0.250000 -0.478113
O24   O     O_R   0.365980 0.921800 0.237170 -0.631871
O25   O     O_R   0.078200 0.365980 0.762830 -0.631913
O26   O     O_R   0.921800 0.634020 0.237170 -0.632174
O27   O     O_R   0.365980 0.921800 0.762830 -0.632216
O28   O     O_R   0.634020 0.078200 0.237170 -0.631868
O29   O     O_R   0.921800 0.634020 0.762830 -0.631934
O30   O     O_R   0.078200 0.365980 0.237170 -0.632176
O31   O     O_R   0.134020 0.421800 0.737170 -0.632026
O32   O     O_R   0.865980 0.578200 0.262830 -0.632117
O33   O     O_R   0.578200 0.134020 0.737170 -0.631882
O34   O     O_3   1.000000 0.500000 0.750000 -0.478055
O35   O     O_R   0.421800 0.865980 0.262830 -0.632200
O36   O     O_R   0.865980 0.578200 0.737170 -0.631985
O37   O     O_R   0.134020 0.421800 0.262830 -0.632114
O38   O     O_R   0.421800 0.865980 0.737170 -0.632003
O39   O     O_R   0.578200 0.134020 0.262830 -0.632211
O40   O     O_R   0.134020 0.578200 0.262830 -0.631967
O41   O     O_R   0.865980 0.421800 0.737170 -0.632132
O42   O     O_R   0.578200 0.865980 0.262830 -0.631882
O43   O     O_R   0.421800 0.134020 0.737170 -0.632297
O44   O     O_R   0.865980 0.421800 0.262830 -0.631971
O45   O     O_R   0.444160 0.000000 0.200320 -0.642824
O46   O     O_R   0.134020 0.578200 0.737170 -0.632188
O47   O     O_R   0.421800 0.134020 0.262830 -0.631875
O48   O     O_R   0.578200 0.865980 0.737170 -0.632207
O49   O     O_2   0.381242 0.010346 0.405214 -0.521422
O50   O     O_2   0.617796 0.010065 0.594663 -0.523661
O51   O     O_2   0.990081 0.381456 0.405279 -0.521402
O52   O     O_2   0.989960 0.618528 0.594720 -0.521684
O53   O     O_2   0.618260 0.989670 0.405333 -0.521475
O54   O     O_2   0.381121 0.989950 0.594999 -0.578793
O55   O     O_2   0.009919 0.618537 0.405280 -0.521381
O56   O     O_R   0.555840 0.000000 0.799680 -0.642814
O57   O     O_2   0.010032 0.381466 0.594720 -0.521725
O58   O     O_2   0.881472 0.510082 0.905280 -0.521478
O59   O     O_2   0.118541 0.509932 0.094720 -0.521475
O60   O     O_2   0.510032 0.881468 0.905280 -0.521477
O61   O     O_2   0.509983 0.118536 0.094720 -0.521476
O62   O     O_2   0.118528 0.489920 0.905280 -0.521477
O63   O     O_2   0.881460 0.490065 0.094720 -0.521475
O64   O     O_2   0.489971 0.118532 0.905280 -0.521478
O65   O     O_2   0.490014 0.881464 0.094720 -0.521476
O66   O     O_R   0.000000 0.444160 0.200320 -0.642825
O67   O     O_R   1.000000 0.555840 0.799680 -0.642814
O68   O     O_R   0.555840 0.000000 0.200320 -0.642821
Zn1   Zn    Zn3+2 0.500000 0.920580 0.268960 0.989506
Zn2   Zn    Zn3+2 1.000000 0.579420 0.231040 0.989485
Zn3   Zn    Zn3+2 0.579420 1.000000 0.768960 0.989494
Zn4   Zn    Zn3+2 0.420580 0.000000 0.231040 0.989489
Zn5   Zn    Zn3+2 1.000000 0.579420 0.768960 0.989449
Zn6   Zn    Zn3+2 0.000000 0.420580 0.231040 0.989484
Zn7   Zn    Zn3+2 0.420580 1.000000 0.768960 0.989390
Zn8   Zn    Zn3+2 0.579420 0.000000 0.231040 0.989480
Zn9   Zn    Zn3+2 0.500000 0.079420 0.731040 0.989234
Zn10  Zn    Zn3+2 0.079420 0.500000 0.268960 0.989514
Zn11  Zn    Zn3+2 0.920580 0.500000 0.731040 0.989388
Zn12  Zn    Zn3+2 0.500000 0.079420 0.268960 0.989505
Zn13  Zn    Zn3+2 0.500000 0.920580 0.731040 0.989194
Zn14  Zn    Zn3+2 0.920580 0.500000 0.268960 0.989503
Zn15  Zn    Zn3+2 0.079420 0.500000 0.731040 0.989264
Zn16  Zn    Zn3+2 0.000000 0.420580 0.768960 0.989454

loop_
_geom_bond_atom_site_label_1
_geom_bond_atom_site_label_2
_ccdc_geom_bond_type
C209  O17   A    
C214  O22   A    
C94   C159  A    
C60   C134  A    
O34   Zn11  S    
C149  N32   S    
C4    O27   A    
C8    C26   T    
C15   C32   T    
C51   N34   A    
C170  C176  A    
H59   N33   S    
C128  N14   T    
C66   C97   A    
C108  C186  A    
C63   C98   A    
O38   Zn13  S    
C196  H17   S    
C28   C40   S    
C130  N16   T    
C216  O25   A    
O35   Zn1   S    
C68   C143  A    
C85   C155  A    
C74   C92   A    
H50   N29   S    
C86   C156  A    
C200  H21   S    
C139  N22   S    
C152  C190  A    
C19   C37   T    
C35   C139  A    
O1    Zn8   S    
C84   C154  A    
O12   Zn3   S    
C65   C96   A    
H33   N21   S    
O2    Zn7   S    
C49   O54   S    
C48   O53   S    
C88   C158  A    
H46   N27   S    
C135  C202  A    
O19   Zn3   S    
O12   Zn9   S    
C76   C103  A    
C167  C180  A    
C151  O67   A    
C142  C200  A    
C115  N40   T    
C205  O42   A    
C46   C141  A    
C3    O26   A    
C67   C85   A    
C79   C109  A    
C176  C185  A    
C5    C12   S    
C7    O37   A    
C135  N18   S    
C6    C11   S    
C214  O33   A    
C74   C100  A    
H40   N25   S    
C91   H8    S    
C111  C182  A    
C177  C186  A    
C31   C37   S    
C80   H56   S    
O67   Zn5   S    
H58   N33   S    
C1    O68   A    
C174  C177  A    
O24   Zn4   S    
C91   C160  A    
C66   C116  S    
C135  C206  A    
C145  N28   S    
C137  C204  A    
C71   C102  A    
O12   Zn13  S    
C152  N35   S    
O30   Zn6   S    
C88   H6    S    
O68   Zn8   S    
C17   C34   T    
O28   Zn8   S    
O21   Zn5   S    
H38   N24   S    
C75   C93   A    
C175  C183  A    
C50   C57   A    
C99   N34   S    
C55   O61   S    
C173  O10   A    
O36   Zn11  S    
O14   Zn8   S    
O41   Zn11  S    
C78   C153  A    
C3    O32   A    
C72   C103  A    
O5    Zn11  S    
C114  C181  A    
C55   C113  A    
C23   C41   T    
H55   N32   S    
C184  O7    A    
C138  N21   S    
C58   O63   S    
C13   C45   A    
C162  O5    A    
C112  O2    A    
C140  O66   A    
H27   N18   S    
C83   H1    S    
C22   C210  S    
C147  N30   S    
C94   H3    S    
C77   C95   A    
C20   C212  S    
C4    C14   S    
C211  O19   A    
C169  C182  A    
C50   O55   S    
C87   C157  A    
C149  C188  A    
C168  C181  A    
C53   O59   S    
C90   C145  A    
C54   N38   A    
C210  O18   A    
C59   O64   S    
O1    Zn1   S    
C56   N36   A    
O25   Zn16  S    
O15   Zn7   S    
C45   O51   S    
C54   C101  A    
C14   C31   T    
C6    O29   A    
O39   Zn12  S    
C61   C96   A    
H28   N18   S    
C105  C206  A    
C120  N6    T    
C30   C38   S    
C57   C142  A    
C172  C199  A    
C32   C36   S    
C62   C80   A    
H61   N35   S    
C161  C188  A    
C198  H19   S    
C202  H24   S    
O26   Zn2   S    
C207  O15   A    
C129  N15   T    
C162  O9    A    
C7    O30   A    
C54   O60   S    
C211  O48   A    
C59   N38   A    
C164  C181  A    
C67   C98   A    
C140  C158  S    
C43   N1    A    
C64   C99   A    
C2    C44   A    
C27   C41   S    
C215  O24   A    
C161  C179  A    
C25   C208  S    
C195  O13   A    
C144  N27   S    
C127  N13   T    
C76   C94   A    
O20   Zn6   S    
C103  N38   S    
C205  O14   A    
C43   O49   S    
C43   C206  A    
O18   Zn4   S    
C167  C193  A    
O13   Zn1   S    
C208  O40   A    
C164  C190  A    
C70   C87   A    
C136  C201  A    
C89   C159  A    
O44   Zn14  S    
C106  C183  A    
O6    Zn10  S    
C151  C157  S    
C176  C202  A    
C195  O8    A    
O1    Zn12  S    
C2    C106  A    
C71   C88   A    
C19   C213  S    
C92   H64   S    
C35   C105  A    
C174  C187  A    
C62   C97   A    
C191  H13   S    
O33   Zn9   S    
C114  C134  A    
C184  O11   A    
H60   N35   S    
C161  C167  A    
O47   Zn12  S    
C208  O16   A    
C145  C192  A    
O46   Zn15  S    
C26   C42   S    
C172  C178  A    
O8    Zn12  S    
C104  N39   S    
C52   O58   S    
C133  C150  A    
C89   H7    S    
C204  H26   S    
C48   N1    A    
C83   C153  A    
C96   N1    S    
C81   C155  A    
H31   N20   S    
C58   N37   A    
C65   C115  S    
C207  O43   A    
C109  C180  A    
H30   N19   S    
C46   C106  A    
H35   N21   S    
C74   C123  S    
C45   N23   A    
C93   C158  A    
O29   Zn5   S    
C102  N37   S    
H32   N20   S    
C49   N12   A    
C173  O6    A    
H41   N25   S    
C170  C197  A    
C7    C10   S    
O23   Zn14  S    
C213  O21   A    
C76   C126  S    
C116  N2    T    
C189  H10   S    
C139  C198  A    
C201  H22   S    
C192  H14   S    
C124  C148  A    
C46   C49   A    
C141  C197  A    
C18   C205  S    
C165  C182  A    
C56   C124  A    
H47   N28   S    
C171  C198  A    
C51   O57   S    
O34   Zn15  S    
H37   N22   S    
C69   C118  S    
O48   Zn13  S    
C147  C194  A    
C16   C216  S    
C150  C191  A    
C58   C132  A    
C177  C203  A    
C110  C132  A    
C24   C108  A    
O43   Zn9   S    
C62   C120  S    
C136  N19   S    
C119  N5    T    
H54   N31   S    
C210  O47   A    
C47   N34   A    
C132  C149  A    
O23   Zn2   S    
C35   C48   A    
C100  N36   S    
C5    O28   A    
H44   N27   S    
C81   H62   S    
C17   C207  S    
C163  C166  A    
C171  C185  A    
C146  N29   S    
C55   N39   A    
C92   C157  A    
C75   C125  S    
C71   C129  S    
C138  C203  A    
C153  C195  S    
C134  C152  A    
C95   H4    S    
C163  C189  A    
C98   N23   S    
C67   C117  S    
C148  N31   S    
C178  C187  A    
C69   C99   A    
O7    Zn13  S    
C63   C81   A    
C215  O35   A    
C140  O3    A    
C193  H15   S    
O23   Zn6   S    
O66   Zn6   S    
C87   H5    S    
C9    C27   T    
C113  C114  A    
C10   C28   T    
C52   N36   A    
C12   C30   T    
C53   N37   A    
C1    C160  S    
C4    O38   A    
C25   C42   T    
C80   C154  A    
C56   O62   S    
C9    C214  S    
C101  C111  A    
O32   Zn14  S    
C174  C200  A    
O56   Zn3   S    
C113  C147  A    
C199  H20   S    
C165  C191  A    
C166  C192  A    
C47   O52   S    
C123  N9    T    
C44   O50   S    
C53   C90   A    
C112  O56   A    
C131  N17   T    
C77   C104  A    
C18   C36   T    
C86   H34   S    
C141  N24   S    
C73   C131  S    
C112  C159  S    
C178  C204  A    
C170  C183  A    
C61   C119  S    
C82   H63   S    
C13   C107  A    
C8    C215  S    
O9    Zn15  S    
C110  C179  A    
C212  O44   A    
C65   C83   A    
H49   N29   S    
C107  C187  A    
O16   Zn2   S    
C121  N7    T    
C105  C185  A    
H39   N24   S    
C122  N8    T    
H42   N26   S    
C73   C104  A    
C172  C186  A    
C154  C184  S    
C60   O65   S    
C75   C102  A    
O11   Zn9   S    
H48   N28   S    
C125  N10   T    
O4    Zn16  S    
C82   C156  A    
C155  C173  S    
C150  N33   S    
C73   C91   A    
C156  C162  S    
C168  C194  A    
C164  C169  A    
C63   C121  S    
H43   N26   S    
C70   C100  A    
C169  C196  A    
O42   Zn1   S    
C101  C146  A    
C142  N25   S    
O34   Zn5   S    
C190  H11   S    
C194  H16   S    
O3    Zn2   S    
O31   Zn15  S    
C175  C201  A    
C188  H9    S    
C143  N26   S    
C111  C133  A    
C144  C193  A    
C23   C209  S    
C24   C138  A    
C171  C175  A    
C59   C133  A    
C2    C136  A    
C21   C211  S    
C93   H2    S    
C85   H23   S    
C13   C137  A    
C117  N3    T    
C5    O39   A    
C118  N4    T    
C16   C33   T    
C20   C38   T    
O37   Zn10  S    
H29   N19   S    
C79   C144  A    
C21   C39   T    
C61   C78   A    
O17   Zn16  S    
C22   C40   T    
C29   C39   S    
C33   C34   S    
C216  O31   A    
H57   N32   S    
C64   C82   A    
H51   N30   S    
O27   Zn7   S    
C57   C107  A    
C165  C168  A    
C60   N39   A    
C78   H45   S    
O40   Zn10  S    
C90   C110  A    
C146  C196  A    
C95   C160  A    
C84   H12   S    
C3    C15   S    
C213  O46   A    
O12   Zn7   S    
C70   C128  S    
C148  C189  A    
C44   N12   A    
C1    O45   A    
C24   C47   A    
O10   Zn14  S    
C50   N23   A    
C77   C127  S    
C151  O4    A    
C197  H18   S    
C212  O20   A    
C109  C124  A    
C72   C130  S    
C203  H25   S    
C143  C199  A    
C97   N12   S    
C72   C89   A    
O34   Zn16  S    
C64   C122  S    
C209  O41   A    
C51   C68   A    
O23   Zn10  S    
O1    Zn4   S    
C66   C84   A    
C126  N11   T    
O22   Zn3   S    
H36   N22   S    
C11   C29   T    
C163  C180  A    
C137  N20   S    
C166  C179  A    
C68   C108  A    
H53   N31   S    
H52   N30   S    
C69   C86   A    
O45   Zn4   S    
C52   C79   A    
C6    O36   A    
