data_mof_unit_12223.cif
_audit_creation_date              2012-10-26T19:06:48-0400
_audit_creation_method            fapswitch 2.2
_symmetry_space_group_name_H-M    P1
_symmetry_Int_Tables_number       1
_space_group_crystal_system       triclinic
_cell_length_a                    12.311475
_cell_length_b                    13.175779
_cell_length_c                    27.813426
_cell_angle_alpha                 77.729409
_cell_angle_beta                  101.181805
_cell_angle_gamma                 116.542584
_cell_volume                      3918.62772814

loop_
_atom_site_label
_atom_site_type_symbol
_atom_type_description
_atom_site_fract_x
_atom_site_fract_y
_atom_site_fract_z
_atom_type_partial_charge
C1    C     C_R   0.854878 0.286554 0.504272 0.532332
C2    C     C_R   0.907136 0.409284 0.026917 0.017262
C3    C     C_R   0.099824 0.585957 0.025054 0.017659
C4    C     C_R   0.999257 0.499607 0.592402 0.550252
C5    C     C_R   0.004259 0.497595 0.051295 0.032569
C6    C     C_R   0.812103 0.325915 0.054509 -0.142543
C7    C     C_R   0.814188 0.327460 0.104441 -0.115099
C8    C     C_R   0.910493 0.412359 0.128928 0.024713
C9    C     C_R   0.005755 0.497665 0.102551 -0.028085
C10   C     C_R   0.102528 0.583052 0.127569 0.022339
C11   C     C_R   0.101302 0.582624 0.177961 0.377111
C12   C     C_R   0.088840 0.483520 0.730574 -0.058087
C13   C     C_R   0.913210 0.414526 0.179385 0.406432
C14   C     C_R   0.917606 0.528589 0.268562 0.032086
C15   C     C_R   0.916350 0.526267 0.319057 -0.154404
C16   C     C_R   0.145095 0.713432 0.492728 0.551529
C17   C     C_R   0.089218 0.477143 0.339374 -0.151694
C18   C     C_R   0.090491 0.478049 0.289355 -0.069647
C19   C     C_R   0.005330 0.503364 0.253740 0.235793
C20   C     C_R   0.907627 0.407489 0.976014 0.017696
C21   C     C_R   0.000617 0.498313 0.949345 0.033239
C22   C     C_R   0.095498 0.588655 0.973366 0.017434
C23   C     C_R   0.995933 0.498450 0.746035 0.241820
C24   C     C_R   0.818314 0.317391 0.950617 -0.141671
C25   C     C_R   0.179060 0.679454 0.894300 -0.113574
C26   C     C_R   0.197234 0.668517 0.051764 -0.144874
C27   C     C_R   0.198097 0.667091 0.101884 -0.120128
C28   C     C_R   0.000606 0.500230 0.407595 0.549019
C29   C     C_R   0.182542 0.679491 0.944481 -0.141906
C30   C     C_R   0.275460 0.021269 0.433836 -0.126169
C31   C     C_R   0.227972 0.834534 0.482458 -0.000160
C32   C     C_R   0.815519 0.085204 0.536534 -0.128442
C33   C     C_R   0.736764 0.970280 0.546188 -0.134054
C34   C     C_R   0.998749 0.498793 0.898001 -0.027362
C35   C     C_R   0.613396 0.932564 0.528779 -0.116498
C36   C     C_R   0.566593 0.009350 0.499386 0.033931
C37   C     C_R   0.650080 0.123760 0.484740 0.024901
C38   C     C_R   0.439910 0.976069 0.483570 0.030028
C39   C     C_R   0.400215 0.053233 0.449748 0.051978
C40   C     C_R   0.907567 0.410372 0.823180 0.396621
C41   C     C_R   0.485553 0.160321 0.431230 -0.135309
C42   C     C_R   0.608709 0.194502 0.447835 -0.118208
C43   C     C_R   0.351051 0.868514 0.500704 -0.131098
C44   C     C_R   0.189642 0.911963 0.449851 -0.132297
C45   C     C_R   0.907207 0.408658 0.873801 0.024572
C46   C     C_R   0.773073 0.163540 0.507003 -0.001264
C47   C     C_R   0.346791 0.328743 0.578906 -0.144767
C48   C     C_R   0.759412 0.645160 0.433036 0.047330
C49   C     C_R   0.662752 0.676729 0.418503 -0.157388
C50   C     C_R   0.559320 0.622001 0.443680 -0.136310
C51   C     C_R   0.551354 0.534477 0.484006 -0.006517
C52   C     C_R   0.085227 0.588064 0.820124 0.396696
C53   C     C_R   0.653050 0.505273 0.497632 0.179565
C54   C     C_R   0.447020 0.475138 0.511349 -0.012858
C55   C     C_R   0.446881 0.388306 0.551462 0.036338
C56   C     C_R   0.818204 0.318329 0.900593 -0.114022
C57   C     C_R   0.546702 0.361439 0.564155 -0.173250
C58   C     C_R   0.647413 0.418754 0.537988 -0.101061
C59   C     C_R   0.341990 0.497741 0.500901 0.039397
C60   C     C_R   0.246783 0.355239 0.566771 0.042509
C61   C     C_R   0.903592 0.513160 0.711139 -0.058289
C62   C     C_R   0.904430 0.513497 0.661035 -0.149406
C63   C     C_R   0.089808 0.483619 0.680552 -0.143818
C64   C     C_R   0.826743 0.557260 0.232075 0.052718
C65   C     C_R   0.701351 0.495423 0.237001 -0.070939
C66   C     C_R   0.615300 0.521512 0.202426 -0.102304
C67   C     C_R   0.088495 0.589371 0.870721 0.024256
C68   C     C_R   0.653636 0.609700 0.162847 -0.095399
C69   C     C_R   0.778141 0.672303 0.157901 -0.113212
C70   C     C_R   0.864509 0.646640 0.192431 -0.087969
C71   C     C_R   0.997772 0.498933 0.645277 0.003064
C72   C     C_R   0.001990 0.500967 0.354690 -0.007284
Cu1   Cu    Cu3+1 0.098270 0.475420 0.511360 0.932463
Cu2   Cu    Cu3+1 0.901730 0.524580 0.488640 0.917383
H1    H     H_    0.162795 0.472063 0.669556 0.132365
H2    H     H_    0.457034 0.218118 0.403733 0.109235
H3    H     H_    0.244722 0.079728 0.407922 0.110922
H4    H     H_    0.160258 0.471745 0.757417 0.131054
H5    H     H_    0.374963 0.808306 0.528024 0.121495
H6    H     H_    0.909485 0.113203 0.553256 0.130760
H7    H     H_    0.557949 0.842265 0.538061 0.106690
H8    H     H_    0.770836 0.910437 0.568650 0.125248
H9    H     H_    0.670847 0.275973 0.430193 0.152327
H10   H     H_    0.169127 0.309645 0.587776 0.121943
H11   H     H_    0.547313 0.295333 0.594892 0.120895
H12   H     H_    0.831589 0.524900 0.722876 0.131055
H13   H     H_    0.346026 0.262203 0.609592 0.103027
H14   H     H_    0.334007 0.562061 0.471094 0.119355
H15   H     H_    0.839355 0.688134 0.413301 0.125438
H16   H     H_    0.747647 0.247262 0.882989 0.164819
H17   H     H_    0.487317 0.649940 0.430840 0.104475
H18   H     H_    0.668016 0.743861 0.387616 0.113315
H19   H     H_    0.719066 0.392137 0.551033 0.185051
H20   H     H_    0.849191 0.545822 0.330373 0.123873
H21   H     H_    0.739073 0.261642 0.123766 0.163924
H22   H     H_    0.732974 0.258714 0.038597 0.108566
H23   H     H_    0.248166 0.750940 0.873993 0.165734
H24   H     H_    0.747607 0.243230 0.968353 0.108304
H25   H     H_    0.832099 0.525112 0.634737 0.130732
H26   H     H_    0.670223 0.426256 0.267275 0.115835
H27   H     H_    0.518846 0.473201 0.206271 0.114944
H28   H     H_    0.586895 0.629737 0.136100 0.116041
H29   H     H_    0.807791 0.741024 0.127389 0.115689
H30   H     H_    0.960641 0.697075 0.188463 0.139344
H31   H     H_    0.275882 0.735065 0.035337 0.107058
H32   H     H_    0.156309 0.457316 0.366023 0.131176
H33   H     H_    0.274535 0.732719 0.120452 0.162371
H34   H     H_    0.157458 0.458183 0.278139 0.130085
H35   H     H_    0.254060 0.753597 0.959187 0.108877
H36   H     H_    0.094448 0.886575 0.435238 0.124497
N1    N     N_R   0.995900 0.499172 0.797513 -0.397576
N2    N     N_R   0.006684 0.499979 0.202587 -0.398674
N3    N     N_R   0.246290 0.438210 0.528570 -0.234437
N4    N     N_R   0.754320 0.561170 0.471730 -0.236466
O1    O     O_R   0.972510 0.318140 0.514280 -0.500849
O2    O     O_R   0.082990 0.479230 0.439860 -0.503423
O3    O     O_R   0.917010 0.520730 0.420680 -0.515603
O4    O     O_2   0.821085 0.323520 0.799880 -0.501619
O5    O     O_2   0.823301 0.331911 0.205123 -0.502575
O6    O     O_2   0.170270 0.675169 0.793635 -0.499300
O7    O     O_2   0.192897 0.665121 0.202019 -0.513710
O8    O     O_R   0.806530 0.359640 0.495100 -0.528409
O9    O     O_R   0.082990 0.479270 0.579320 -0.501773
O10   O     O_R   0.917010 0.520770 0.560140 -0.519012
O11   O     O_R   0.193470 0.640360 0.504900 -0.507277
O12   O     O_R   0.027490 0.681860 0.485720 -0.501490

loop_
_geom_bond_atom_site_label_1
_geom_bond_atom_site_label_2
_ccdc_geom_bond_type
C10   C27   A    
C40   O4    S    
C8    C13   A    
C22   C29   A    
Cu1   Cu2   S    
C66   C68   A    
C35   C36   A    
C25   C67   A    
C15   H20   S    
C35   H7    S    
C7    C8    A    
C39   C41   A    
C28   C72   S    
C19   N2    S    
C16   C31   S    
C15   C72   A    
C12   C23   A    
C26   C27   A    
Cu1   O2    S    
C31   C43   A    
C24   H24   S    
C29   H35   S    
C36   C37   A    
C58   H19   S    
C68   H28   S    
C13   N2    A    
C28   O3    A    
C38   C39   A    
C70   H30   S    
C1    C46   S    
C43   H5    S    
Cu2   N4    S    
Cu1   N3    S    
C4    O10   A    
C18   C19   A    
C41   C42   A    
C37   C42   A    
C59   H14   S    
C28   O2    A    
C47   C60   A    
C1    O8    A    
C30   H3    S    
C20   C24   A    
C45   C56   A    
C8    C9    A    
Cu1   O9    S    
C12   H4    S    
C30   C39   A    
C64   C70   A    
C9    C10   A    
C61   C62   A    
C56   H16   S    
C47   C55   A    
C21   C22   A    
C66   H27   S    
C30   C44   A    
C60   N3    A    
C11   O7    S    
C26   H31   S    
C13   O5    S    
C50   C51   A    
C40   N1    A    
C54   C59   A    
C69   H29   S    
C25   C29   A    
C40   C45   A    
C31   C44   A    
C2    C20   A    
C61   H12   S    
C12   C63   A    
C68   C69   A    
C21   C34   A    
C52   N1    A    
C2    C6    A    
C4    O9    A    
C51   C53   A    
C47   H13   S    
C5    C9    A    
C32   H6    S    
C27   H33   S    
C59   N3    A    
C14   C64   S    
C17   C18   A    
C34   C45   A    
C52   C67   A    
C52   O6    S    
C25   H23   S    
C48   C49   A    
Cu2   O8    S    
C63   C71   A    
C49   C50   A    
C6    H22   S    
C48   H15   S    
C55   C57   A    
C2    C5    A    
C49   H18   S    
C7    H21   S    
C53   N4    A    
C48   N4    A    
C16   O11   A    
Cu2   O3    S    
C54   C55   A    
C11   N2    A    
C32   C46   A    
C14   C19   A    
C3    C26   A    
C42   H9    S    
C65   H26   S    
C3    C5    A    
C34   C67   A    
C53   C58   A    
C6    C7    A    
C24   C56   A    
C23   N1    S    
Cu1   O1    S    
C51   C54   A    
C64   C65   A    
C36   C38   A    
C38   C43   A    
C17   H32   S    
C32   C33   A    
C41   H2    S    
C60   H10   S    
C57   C58   A    
Cu2   O12   S    
C63   H1    S    
Cu1   O11   S    
C33   C35   A    
C57   H11   S    
C62   C71   A    
C69   C70   A    
C33   H8    S    
C18   H34   S    
C10   C11   A    
C62   H25   S    
C50   H17   S    
C23   C61   A    
C20   C21   A    
C17   C72   A    
C65   C66   A    
C14   C15   A    
C3    C22   A    
C1    O1    A    
C37   C46   A    
C16   O12   A    
C4    C71   S    
Cu2   O10   S    
C44   H36   S    
