data_mof_unit_44800.cif
_audit_creation_date              2012-12-10T19:10:03-0500
_audit_creation_method            fapswitch 2.2
_symmetry_space_group_name_H-M    P1
_symmetry_Int_Tables_number       1
_space_group_crystal_system       triclinic
_cell_length_a                    10.827011
_cell_length_b                    10.756327
_cell_length_c                    9.574037
_cell_angle_alpha                 91.008556
_cell_angle_beta                  90.52765
_cell_angle_gamma                 90.564288
_cell_volume                      1114.70564911

loop_
_atom_site_label
_atom_site_type_symbol
_atom_type_description
_atom_site_fract_x
_atom_site_fract_y
_atom_site_fract_z
_atom_type_partial_charge
C1    C     C_R   0.501409 0.262642 0.498783 0.846697
C2    C     C_R   0.243439 0.748668 0.056119 -0.104292
C3    C     C_R   0.933197 0.550894 0.388938 -0.224649
C4    C     C_R   0.871938 0.497588 0.501885 -0.060670
C5    C     C_R   0.939996 0.449920 0.615262 0.019267
C6    C     C_R   0.067734 0.455127 0.612086 -0.236662
C7    C     C_R   0.128816 0.507355 0.498947 -0.070808
C8    C     C_R   0.061353 0.558748 0.387401 0.014811
C9    C     C_R   0.884288 0.455868 0.867386 -0.164270
C10   C     C_R   0.826508 0.403706 0.982624 -0.186366
C11   C     C_R   0.765133 0.289342 0.968598 -0.093371
C12   C     C_R   0.262596 0.503627 0.499458 0.799639
C13   C     C_R   0.765817 0.224138 0.841224 0.210384
C14   C     C_R   0.824077 0.275730 0.725844 -0.142062
C15   C     C_R   0.881823 0.392821 0.737829 0.098370
C16   C     C_R   0.399632 0.064728 0.547505 0.097762
C17   C     C_R   0.500327 0.129257 0.493748 -0.098669
C18   C     C_R   0.594050 0.062509 0.424865 0.141903
C19   C     C_R   0.591805 0.932783 0.426726 -0.203372
C20   C     C_R   0.498976 0.870363 0.499511 -0.098434
C21   C     C_R   0.399009 0.936945 0.550639 0.078218
C22   C     C_3   0.336546 0.934933 0.688883 -0.451899
C23   C     C_R   0.498673 0.737271 0.500777 0.797307
C24   C     C_3   0.336443 0.076286 0.684968 -0.423612
C25   C     C_R   0.584512 0.569560 0.075793 0.195350
C26   C     C_R   0.424898 0.421209 0.069812 0.245611
C27   C     C_R   0.425233 0.422216 0.921812 -0.098904
C28   C     C_R   0.584684 0.569248 0.928923 0.255594
C29   C     C_3   0.604358 0.706323 0.925589 -0.446891
C30   C     C_3   0.603770 0.706921 0.084226 -0.473845
C31   C     C_R   0.737703 0.498068 0.500691 0.805578
C32   C     C_R   0.252315 0.795442 0.193033 -0.099178
C33   C     C_R   0.191372 0.734780 0.300890 -0.108960
C34   C     C_R   0.121411 0.626372 0.272302 0.124154
C35   C     C_R   0.111667 0.580919 0.134255 -0.130108
C36   C     C_R   0.172966 0.641679 0.026664 -0.140966
Cu1   Cu    Cu3+1 0.499990 0.499980 0.640670 0.951183
Cu2   Cu    Cu3+1 0.500010 0.500020 0.359330 0.985223
H1    H     H_    0.291396 0.795126 0.972979 0.124635
H2    H     H_    0.716727 0.251466 0.056274 0.186830
H3    H     H_    0.824442 0.225014 0.627558 0.163112
H4    H     H_    0.665909 0.881113 0.378229 0.163467
H5    H     H_    0.242486 0.892817 0.681628 0.190631
H6    H     H_    0.396437 0.898412 0.772985 0.211633
H7    H     H_    0.242327 0.115628 0.674378 0.197386
H8    H     H_    0.395456 0.121137 0.767443 0.230392
H9    H     H_    0.307108 0.878198 0.215780 0.143638
H10   H     H_    0.363114 0.361375 0.862870 0.155145
H11   H     H_    0.695702 0.731380 0.881486 0.216926
H12   H     H_    0.524479 0.755644 0.880176 0.213246
H13   H     H_    0.694779 0.732623 0.131675 0.198563
H14   H     H_    0.523577 0.757098 0.128635 0.225264
H15   H     H_    0.199739 0.771227 0.406774 0.101664
H16   H     H_    0.059425 0.496753 0.110846 0.149960
H17   H     H_    0.166781 0.605188 0.920692 0.135923
H18   H     H_    0.880999 0.591212 0.304041 0.143912
H19   H     H_    0.119731 0.415610 0.697708 0.156751
H20   H     H_    0.928872 0.546117 0.878255 0.132810
H21   H     H_    0.827033 0.453078 0.082081 0.150575
N1    N     N_R   0.500790 0.500930 0.147930 -0.197622
N2    N     N_R   0.500790 0.500890 0.852020 -0.201089
O1    O     O_R   0.500000 0.319640 0.618810 -0.581161
O2    O     O_R   0.500010 0.319680 0.381230 -0.539225
O3    O     O_R   0.319640 0.499990 0.618790 -0.601911
O4    O     O_R   0.319650 0.500030 0.381210 -0.543768
O5    O     O_R   0.499990 0.680320 0.618770 -0.579561
O6    O     O_R   0.500000 0.680360 0.381190 -0.589471
O7    O     O_R   0.680350 0.499970 0.618790 -0.570284
O8    O     O_R   0.680360 0.500010 0.381210 -0.580343
I1    I     I_    0.681479 0.047050 0.825041 -0.441073
I2    I     I_    0.750173 0.149026 0.335059 -0.409838
I3    I     I_    0.298872 0.291680 0.155601 -0.366182

loop_
_geom_bond_atom_site_label_1
_geom_bond_atom_site_label_2
_ccdc_geom_bond_type
C27   H10   S    
Cu1   N2    S    
C30   H13   S    
Cu2   O4    S    
C19   H4    S    
C16   C21   A    
C25   N1    A    
C26   I3    S    
C12   O4    A    
C1    C17   S    
C22   H5    S    
C20   C23   S    
C24   H8    S    
C32   C33   A    
C20   C21   A    
C19   C20   A    
Cu2   O2    S    
Cu1   O1    S    
C9    C15   A    
Cu2   O8    S    
C7    C8    A    
C16   C24   S    
C36   H17   S    
C8    C34   S    
C13   C14   A    
C28   N2    A    
C35   H16   S    
C5    C6    A    
C11   C13   A    
C6    H19   S    
C26   C27   A    
C29   C30   S    
C26   N1    A    
C14   H3    S    
Cu2   N1    S    
C24   H7    S    
C1    O2    A    
C23   O5    A    
C2    C32   A    
C28   C29   S    
Cu1   Cu2   S    
C13   I1    S    
C33   C34   A    
C6    C7    A    
C29   H12   S    
Cu1   O5    S    
C33   H15   S    
C31   O7    A    
C12   O3    A    
C32   H9    S    
C22   C24   S    
C7    C12   S    
C5    C15   S    
C4    C31   S    
C16   C17   A    
C10   C11   A    
C2    C36   A    
C11   H2    S    
Cu1   O7    S    
C31   O8    A    
Cu1   O3    S    
C18   C19   A    
Cu2   O6    S    
C3    C8    A    
C1    O1    A    
C17   C18   A    
C34   C35   A    
C3    H18   S    
C23   O6    A    
C18   I2    S    
C30   H14   S    
C14   C15   A    
C9    H20   S    
C29   H11   S    
C25   C30   S    
C21   C22   S    
C10   H21   S    
C2    H1    S    
C22   H6    S    
C3    C4    A    
C9    C10   A    
C4    C5    A    
C25   C28   A    
C35   C36   A    
C27   N2    A    
