data_mof_unit_47704.cif
_audit_creation_date              2012-12-10T17:54:28-0500
_audit_creation_method            fapswitch 2.2
_symmetry_space_group_name_H-M    P1
_symmetry_Int_Tables_number       1
_space_group_crystal_system       triclinic
_cell_length_a                    27.725378
_cell_length_b                    10.714736
_cell_length_c                    9.933709
_cell_angle_alpha                 88.765941
_cell_angle_beta                  90.280649
_cell_angle_gamma                 93.878831
_cell_volume                      2943.54781432

loop_
_atom_site_label
_atom_site_type_symbol
_atom_type_description
_atom_site_fract_x
_atom_site_fract_y
_atom_site_fract_z
_atom_type_partial_charge
C1    C     C_R   0.501658 0.260827 0.501778 0.976071
C2    C     C_R   0.970931 0.365219 0.482375 0.081647
C3    C     C_R   0.976919 0.592881 0.518194 0.053366
C4    C     C_R   0.406103 0.498444 0.499679 0.898293
C5    C     C_R   0.948672 0.478901 0.501182 0.074414
C6    C     C_R   0.941152 0.255799 0.456339 -0.211642
C7    C     C_R   0.891159 0.257116 0.455517 -0.131161
C8    C     C_R   0.868996 0.367437 0.480023 -0.031309
C9    C     C_R   0.897596 0.478684 0.502899 -0.056902
C10   C     C_R   0.875022 0.589804 0.527308 -0.017040
C11   C     C_R   0.824562 0.587728 0.527847 0.502624
C12   C     C_R   0.277678 0.489015 0.619640 -0.112899
C13   C     C_R   0.818598 0.369635 0.481141 0.525459
C14   C     C_R   0.721676 0.491121 0.624828 -0.062523
C15   C     C_R   0.671788 0.496523 0.623738 -0.100100
C16   C     C_R   0.504018 0.739964 0.498617 0.827404
C17   C     C_R   0.671276 0.478441 0.380248 -0.220230
C18   C     C_R   0.721185 0.472869 0.381733 -0.097170
C19   C     C_R   0.746340 0.479677 0.503884 0.306789
C20   C     C_R   0.021993 0.364715 0.489179 -0.034456
C21   C     C_R   0.050306 0.479842 0.497409 0.072138
C22   C     C_R   0.027859 0.594280 0.507034 0.052721
C23   C     C_R   0.252708 0.479744 0.497419 0.314357
C24   C     C_R   0.045771 0.252355 0.489541 -0.309665
C25   C     C_R   0.107279 0.708725 0.499278 0.113480
C26   C     C_R   0.953097 0.701780 0.547363 -0.218372
C27   C     C_R   0.903099 0.700106 0.551238 -0.132750
C28   C     C_R   0.593752 0.496171 0.500240 0.908093
C29   C     C_R   0.057083 0.707149 0.503151 -0.262272
C30   C     C_R   0.587614 0.146977 0.612855 0.469480
C31   C     C_R   0.630847 0.094423 0.642357 0.606722
C32   C     C_R   0.635915 0.970253 0.616712 -0.278849
C33   C     C_R   0.597191 0.895055 0.567290 -0.012815
C34   C     C_R   0.101494 0.480420 0.496181 -0.165258
C35   C     C_R   0.551404 0.945113 0.539832 -0.012340
C36   C     C_R   0.548054 0.075326 0.554433 -0.145080
C37   C     C_R   0.505732 0.129221 0.506310 -0.035692
C38   C     C_R   0.467072 0.057848 0.451921 -0.195079
C39   C     C_R   0.468352 0.930634 0.448809 -0.170141
C40   C     C_R   0.174678 0.368433 0.492976 0.546620
C41   C     C_R   0.509190 0.873763 0.494487 -0.028436
C42   C     C_R   0.433805 0.341078 0.147983 -0.261188
C43   C     C_R   0.398449 0.264219 0.085504 0.034319
C44   C     C_R   0.397579 0.260136 0.946359 0.019082
C45   C     C_R   0.124092 0.366073 0.492947 -0.156111
C46   C     C_R   0.431609 0.333609 0.870083 0.536296
C47   C     C_R   0.466686 0.419417 0.930645 0.026623
C48   C     C_R   0.467090 0.420902 0.075106 0.087854
C49   C     C_R   0.531477 0.575716 0.069876 -0.086022
C50   C     C_R   0.531458 0.575761 0.926988 -0.083590
C51   C     C_R   0.180734 0.591535 0.498588 0.522609
C52   C     C_R   0.277675 0.475170 0.376074 -0.099707
C53   C     C_R   0.327872 0.481323 0.376613 -0.235267
C54   C     C_R   0.327871 0.494923 0.620647 -0.191845
C55   C     C_R   0.095726 0.252736 0.491149 0.687096
C56   C     C_R   0.130093 0.595058 0.498379 0.009793
C57   C     C_R   0.353317 0.492109 0.498945 -0.035957
C58   C     C_R   0.646271 0.490724 0.501294 -0.014488
F1    F     F_    0.585096 0.266785 0.647875 -0.647799
F2    F     F_    0.668374 0.165125 0.695614 -0.613408
F3    F     F_    0.428881 0.312338 0.738511 -0.668612
F4    F     F_    0.115878 0.140655 0.491427 -0.646210
H1    H     H_    0.346641 0.502385 0.716317 0.165139
H2    H     H_    0.670232 0.930893 0.637582 0.219425
H3    H     H_    0.436880 0.875712 0.412025 0.153901
H4    H     H_    0.557248 0.637769 0.122264 0.139117
H5    H     H_    0.434208 0.335552 0.254389 0.226226
H6    H     H_    0.557191 0.637812 0.872278 0.130805
H7    H     H_    0.653318 0.505790 0.718448 0.171193
H8    H     H_    0.741286 0.496503 0.719296 0.142893
H9    H     H_    0.869920 0.170886 0.435283 0.195920
H10   H     H_    0.955310 0.167760 0.432657 0.145731
H11   H     H_    0.026699 0.161378 0.492290 0.164524
H12   H     H_    0.258125 0.468194 0.281600 0.136516
H13   H     H_    0.346637 0.477916 0.281528 0.165311
H14   H     H_    0.125796 0.876672 0.580863 0.233036
H15   H     H_    0.123916 0.877796 0.410554 0.231292
H16   H     H_    0.588769 0.715818 0.617843 0.207370
H17   H     H_    0.595832 0.746140 0.446101 0.190094
H18   H     H_    0.370206 0.197113 0.266093 0.175000
H19   H     H_    0.329753 0.220993 0.144330 0.211051
H20   H     H_    0.380064 0.114800 0.824553 0.232538
H21   H     H_    0.341911 0.231710 0.815778 0.213985
H22   H     H_    0.972059 0.789624 0.571316 0.145902
H23   H     H_    0.652379 0.473260 0.284651 0.171569
H24   H     H_    0.886539 0.786088 0.573231 0.192312
H25   H     H_    0.740441 0.464485 0.288127 0.147081
H26   H     H_    0.042016 0.797255 0.499148 0.148704
H27   H     H_    0.435178 0.100922 0.414666 0.141250
H28   H     H_    0.258114 0.492700 0.713401 0.137360
N1    N     N_R   0.201386 0.479731 0.496179 -0.375644
N2    N     N_R   0.797668 0.478778 0.504664 -0.359394
N3    N     N_R   0.499540 0.498800 0.142780 -0.098497
N4    N     N_R   0.499520 0.498720 0.857170 -0.089977
N5    N     N_3   0.134568 0.827348 0.495657 -0.338942
N6    N     N_3   0.606980 0.769459 0.543471 -0.450317
N7    N     N_3   0.363742 0.187363 0.162943 -0.399920
N8    N     N_3   0.362085 0.178063 0.881549 -0.406307
O1    O     O_R   0.500000 0.316780 0.614690 -0.477457
O2    O     O_R   0.571250 0.499990 0.614680 -0.589208
O3    O     O_R   0.571240 0.499970 0.385350 -0.641716
O4    O     O_2   0.197323 0.260906 0.490202 -0.466973
O5    O     O_2   0.790653 0.263772 0.459653 -0.522615
O6    O     O_2   0.209508 0.698196 0.501417 -0.510121
O7    O     O_2   0.802421 0.693766 0.550098 -0.552168
O8    O     O_R   0.500000 0.316750 0.385360 -0.659486
O9    O     O_R   0.428760 0.500030 0.614650 -0.554873
O10   O     O_R   0.428750 0.500010 0.385320 -0.656089
O11   O     O_R   0.500000 0.683250 0.614640 -0.627149
O12   O     O_R   0.500000 0.683220 0.385310 -0.616453
Zn1   Zn    Zn3+2 0.500000 0.500020 0.653130 1.036933
Zn2   Zn    Zn3+2 0.500000 0.499980 0.346870 0.950160

loop_
_geom_bond_atom_site_label_1
_geom_bond_atom_site_label_2
_ccdc_geom_bond_type
C10   C27   A    
C34   C56   A    
C8    C13   A    
C22   C29   A    
H18   N7    S    
C39   H3    S    
C35   C36   A    
C25   C56   A    
C1    O1    A    
C16   O12   A    
C7    C8    A    
C39   C41   A    
C2    C6    A    
C24   C55   A    
C6    H10   S    
C4    O10   A    
C12   C23   A    
C26   C27   A    
C17   H23   S    
C12   H28   S    
C36   C37   A    
C18   C19   A    
C52   H12   S    
O11   Zn1   S    
H14   N5    S    
C7    H9    S    
C30   C31   A    
C31   C32   A    
C24   H11   S    
C54   H1    S    
C55   F4    S    
N4    Zn1   S    
C51   C56   A    
C29   H26   S    
C19   N2    S    
C51   N1    A    
C44   N8    S    
C11   N2    A    
C20   C24   A    
H16   N6    S    
C8    C9    A    
H21   N8    S    
C4    C57   S    
C11   O7    S    
C13   O5    S    
C9    C10   A    
C1    C37   S    
C17   C58   A    
C28   O2    A    
C21   C22   A    
C14   H8    S    
C53   H13   S    
C28   O3    A    
C44   C46   A    
C16   O11   A    
C25   C29   A    
C40   C45   A    
C15   H7    S    
C4    O9    A    
C49   H4    S    
H20   N8    S    
C46   F3    S    
C2    C20   A    
C32   H2    S    
C48   N3    A    
C53   C57   A    
C50   N4    A    
O8    Zn2   S    
C21   C34   A    
C51   O6    S    
H15   N5    S    
O10   Zn2   S    
O3    Zn2   S    
C31   F2    S    
C27   H24   S    
C43   C44   A    
C5    C9    A    
C37   C38   A    
C47   C48   A    
C38   H27   S    
O1    Zn1   S    
C30   F1    S    
C17   C18   A    
C34   C45   A    
C42   C48   A    
C25   N5    S    
C13   N2    A    
C42   H5    S    
C15   C58   A    
C23   N1    S    
C2    C5    A    
C42   C43   A    
C33   N6    S    
C52   C53   A    
C46   C47   A    
C26   H22   S    
O9    Zn1   S    
C14   C19   A    
C3    C26   A    
C43   N7    S    
C3    C5    A    
C6    C7    A    
C28   C58   S    
C1    O8    A    
C18   H25   S    
C30   C36   A    
C32   C33   A    
H17   N6    S    
C23   C52   A    
C38   C39   A    
H19   N7    S    
C33   C35   A    
C47   N4    A    
C40   N1    A    
C35   C41   A    
O12   Zn2   S    
C10   C11   A    
N3    Zn2   S    
C40   O4    S    
C20   C21   A    
C45   C55   A    
O2    Zn1   S    
C49   C50   A    
C14   C15   A    
C3    C22   A    
C49   N3    A    
C50   H6    S    
C16   C41   S    
C12   C54   A    
C54   C57   A    
