data_mof_unit_59547.cif
_audit_creation_date              2012-12-10T20:28:45-0500
_audit_creation_method            fapswitch 2.2
_symmetry_space_group_name_H-M    P1
_symmetry_Int_Tables_number       1
_space_group_crystal_system       triclinic
_cell_length_a                    10.721949
_cell_length_b                    10.687121
_cell_length_c                    9.830979
_cell_angle_alpha                 90.046168
_cell_angle_beta                  90.69441
_cell_angle_gamma                 89.789284
_cell_volume                      1126.40941563

loop_
_atom_site_label
_atom_site_type_symbol
_atom_type_description
_atom_site_fract_x
_atom_site_fract_y
_atom_site_fract_z
_atom_type_partial_charge
C1    C     C_R   0.497485 0.259956 0.500141 0.884611
C2    C     C_R   0.444870 0.935214 0.383868 -0.211782
C3    C     C_R   0.484146 0.871542 0.501461 -0.075837
C4    C     C_R   0.260510 0.513007 0.499864 0.868984
C5    C     C_R   0.503209 0.936451 0.622637 0.066653
C6    C     C_3   0.606262 0.930399 0.726989 -0.001181
C7    C     C_3   0.603075 0.072628 0.727407 -0.500580
C8    C     C_R   0.396698 0.462484 0.069829 0.209985
C9    C     C_R   0.596473 0.549959 0.073384 -0.131699
C10   C     C_R   0.596144 0.550534 0.929187 -0.154037
C11   C     C_R   0.396691 0.462633 0.927122 0.215113
C12   C     C_R   0.064063 0.541748 0.625707 0.109694
C13   C     C_3   0.336012 0.337700 0.919458 -0.491426
C14   C     C_3   0.336776 0.336920 0.073984 -0.518623
C15   C     C_R   0.497781 0.739969 0.500078 0.914071
C16   C     C_R   0.740452 0.491110 0.501780 0.909479
C17   C     C_R   0.119669 0.593084 0.744786 -0.137127
C18   C     C_R   0.064169 0.577906 0.871088 -0.139637
C19   C     C_R   0.953591 0.511337 0.880349 -0.158912
C20   C     C_R   0.892708 0.471037 0.762104 -0.157735
C21   C     C_R   0.941655 0.498299 0.631934 0.122040
C22   C     C_R   0.127411 0.527622 0.501162 -0.126057
C23   C     C_R   0.062507 0.503621 0.380179 -0.207562
C24   C     C_R   0.936192 0.486905 0.382685 -0.205459
C25   C     C_R   0.874550 0.484983 0.507104 -0.122590
C26   C     C_R   0.500652 0.063760 0.623271 0.074841
C27   C     C_R   0.482453 0.128462 0.501844 -0.070410
C28   C     C_R   0.444326 0.064605 0.384010 -0.207939
H1    H     H_    0.109313 0.495718 0.283436 0.162352
H2    H     H_    0.205729 0.645436 0.741381 0.152001
H3    H     H_    0.109233 0.613900 0.962088 0.133313
H4    H     H_    0.913807 0.492624 0.978947 0.129783
H5    H     H_    0.810168 0.415003 0.775176 0.159831
H6    H     H_    0.887119 0.474314 0.286638 0.162060
H7    H     H_    0.420594 0.113635 0.291051 0.157693
H8    H     H_    0.421144 0.885916 0.290804 0.166858
H9    H     H_    0.574357 0.889107 0.824276 0.145946
H10   H     H_    0.569935 0.112405 0.825049 0.182346
H11   H     H_    0.688342 0.117444 0.686833 0.220295
H12   H     H_    0.675283 0.588251 0.128816 0.156287
H13   H     H_    0.674072 0.590266 0.875794 0.176841
H14   H     H_    0.240632 0.343215 0.874228 0.215607
H15   H     H_    0.397291 0.264961 0.874435 0.214559
H16   H     H_    0.241808 0.340906 0.117927 0.200775
H17   H     H_    0.399434 0.264256 0.118069 0.211450
I1    I     I_    0.779936 0.855802 0.654390 -0.393576
N1    N     N_R   0.499160 0.499140 0.142800 -0.107176
N2    N     N_R   0.499160 0.499180 0.857150 -0.111857
O1    O     O_R   0.500020 0.316790 0.614690 -0.620115
O2    O     O_R   0.500000 0.316760 0.385350 -0.623018
O3    O     O_R   0.316770 0.500020 0.614690 -0.630152
O4    O     O_R   0.316760 0.499980 0.385350 -0.622632
O5    O     O_R   0.500000 0.683240 0.614650 -0.617074
O6    O     O_R   0.499980 0.683210 0.385310 -0.622051
O7    O     O_R   0.683240 0.500020 0.614650 -0.625854
O8    O     O_R   0.683230 0.499980 0.385310 -0.622207
Zn1   Zn    Zn3+2 0.500010 0.500020 0.653130 0.943193
Zn2   Zn    Zn3+2 0.499990 0.499980 0.346870 0.947645

loop_
_geom_bond_atom_site_label_1
_geom_bond_atom_site_label_2
_ccdc_geom_bond_type
C12   C17   A    
C2    C28   A    
C23   C24   A    
C16   O8    A    
C6    C7    S    
O3    Zn1   S    
C12   C22   A    
C4    C22   S    
C9    C10   A    
C19   C20   A    
O6    Zn2   S    
C17   C18   A    
C11   N2    A    
C8    N1    A    
O1    Zn1   S    
N2    Zn1   S    
C13   C14   S    
C24   C25   A    
N1    Zn2   S    
C17   H2    S    
C11   C13   S    
C26   C27   A    
C7    C26   S    
O4    Zn2   S    
C4    O4    A    
C8    C11   A    
C20   H5    S    
C23   H1    S    
C27   C28   A    
C13   H14   S    
C7    H10   S    
O8    Zn2   S    
C9    N1    A    
C14   H17   S    
C2    C3    A    
O7    Zn1   S    
C10   N2    A    
C5    C6    S    
C16   O7    A    
C19   H4    S    
C4    O3    A    
C5    C26   A    
O2    Zn2   S    
C15   O6    A    
C15   O5    A    
C13   H15   S    
C3    C15   S    
C20   C21   A    
C14   H16   S    
C21   C25   A    
C1    O2    A    
C2    H8    S    
C16   C25   S    
C1    C27   S    
C7    H11   S    
C22   C23   A    
C18   C19   A    
C8    C14   S    
C18   H3    S    
C6    I1    S    
C3    C5    A    
C1    O1    A    
C12   C21   A    
C9    H12   S    
C24   H6    S    
C28   H7    S    
C6    H9    S    
C10   H13   S    
O5    Zn1   S    
