data_mof_unit_62306.cif
_audit_creation_date              2012-12-10T18:50:21-0500
_audit_creation_method            fapswitch 2.2
_symmetry_space_group_name_H-M    P1
_symmetry_Int_Tables_number       1
_space_group_crystal_system       triclinic
_cell_length_a                    15.877097
_cell_length_b                    19.409459
_cell_length_c                    18.177017
_cell_angle_alpha                 89.31393
_cell_angle_beta                  89.442322
_cell_angle_gamma                 91.051083
_cell_volume                      5599.91459074

loop_
_atom_site_label
_atom_site_type_symbol
_atom_type_description
_atom_site_fract_x
_atom_site_fract_y
_atom_site_fract_z
_atom_type_partial_charge
C1    C     C_R   0.499968 0.367443 0.500407 0.831004
C2    C     C_R   0.500034 0.632556 0.499592 0.831004
C3    C     C_R   0.495999 0.816757 0.430736 0.304834
C4    C     C_R   0.503993 0.183237 0.569250 0.304827
C5    C     C_R   0.498157 0.852629 0.497441 0.061970
C6    C     C_R   0.501853 0.147371 0.502541 0.061977
C7    C     C_R   0.501305 0.816296 0.564301 -0.127994
C8    C     C_R   0.498722 0.183708 0.435683 -0.127992
C9    C     C_R   0.502015 0.744613 0.565038 -0.161891
C10   C     C_R   0.498011 0.255391 0.434952 -0.161885
C11   C     C_R   0.499696 0.708283 0.498742 -0.092031
C12   C     C_R   0.500310 0.291717 0.501253 -0.092035
C13   C     C_R   0.425731 0.963652 0.519903 0.306822
C14   C     C_R   0.574276 0.036348 0.480069 0.306805
C15   C     C_R   0.428059 0.035446 0.521233 -0.178530
C16   C     C_R   0.571948 0.964554 0.478738 -0.178530
C17   C     C_R   0.501934 0.071971 0.501542 -0.019531
C18   C     C_R   0.498073 0.928029 0.498431 -0.019525
C19   C     C_R   0.446526 0.457522 0.724254 0.454012
C20   C     C_R   0.553477 0.542475 0.275745 0.454010
C21   C     C_R   0.446489 0.458701 0.801369 -0.199051
C22   C     C_R   0.553515 0.541296 0.198631 -0.199050
C23   C     C_R   0.339706 0.499889 0.500274 0.838606
C24   C     C_R   0.660294 0.500110 0.499726 0.838600
C25   C     C_R   0.500304 0.503651 0.838869 0.095019
C26   C     C_R   0.499695 0.496349 0.161131 0.095020
C27   C     C_R   0.555723 0.545828 0.796743 -0.244135
C28   C     C_R   0.444272 0.454176 0.203257 -0.244138
C29   C     C_R   0.554230 0.543477 0.719225 0.047306
C30   C     C_R   0.445765 0.456527 0.280775 0.047302
C31   C     C_R   0.574064 0.489884 0.959773 -0.220131
C32   C     C_R   0.425935 0.510116 0.040226 -0.220132
C33   C     C_R   0.574796 0.485497 0.037114 0.286428
C34   C     C_R   0.425203 0.514503 0.962886 0.286432
C35   C     C_R   0.500232 0.495967 0.078537 -0.003431
C36   C     C_R   0.499767 0.504033 0.921462 -0.003434
C37   C     C_3   0.970343 0.436689 0.515845 0.265226
C38   C     C_3   0.029657 0.563302 0.484156 0.265225
C39   C     C_3   0.028064 0.455408 0.449129 -0.296310
C40   C     C_3   0.971936 0.544582 0.550871 -0.296310
C41   C     C_1   0.250109 0.499799 0.500798 -0.095775
C42   C     C_1   0.749892 0.500197 0.499202 -0.095775
C43   C     C_3   0.026260 0.480695 0.566560 0.273151
C44   C     C_3   0.973740 0.519296 0.433441 0.273151
C45   C     C_3   0.083061 0.499851 0.500351 -0.065607
C46   C     C_3   0.916940 0.500140 0.499650 -0.065606
C47   C     C_1   0.174643 0.499770 0.500744 0.113532
C48   C     C_1   0.825357 0.500223 0.499257 0.113532
C49   C     C_R   0.496676 0.744889 0.431701 -0.159631
C50   C     C_R   0.503313 0.255106 0.568291 -0.159642
Cu1   Cu    Cu3+1 0.499980 0.500000 0.573360 1.013862
Cu2   Cu    Cu3+1 0.500020 0.500000 0.426640 1.013858
H1    H     H_    0.631589 0.480526 0.929254 0.194393
H2    H     H_    0.368409 0.519474 0.070745 0.194392
H3    H     H_    0.504440 0.717730 0.617509 0.172830
H4    H     H_    0.495600 0.282277 0.382481 0.172838
N1    N     N_R   0.499990 0.500020 0.683620 -0.203660
N2    N     N_R   0.500010 0.499980 0.316380 -0.203661
O1    O     O_R   0.499960 0.400180 0.561980 -0.557786
O2    O     O_R   0.500040 0.599820 0.438020 -0.557790
O3    O     O_R   0.500000 0.400190 0.438070 -0.595778
O4    O     O_R   0.500000 0.599810 0.561930 -0.595775
O5    O     O_R   0.379060 0.499990 0.561940 -0.531375
O6    O     O_R   0.620940 0.500010 0.438060 -0.531376
O7    O     O_R   0.379100 0.500000 0.438040 -0.592094
O8    O     O_R   0.620900 0.500000 0.561960 -0.592092
H5    H     H_    0.051727 0.418910 0.407512 0.210559
H6    H     H_    0.948273 0.581080 0.592489 0.210559
Br1   Br    Br    0.368915 0.393837 0.680428 -0.405142
Br2   Br    Br    0.631089 0.606159 0.319572 -0.405137
H7    H     H_    0.404541 0.424088 0.832069 0.196005
H8    H     H_    0.595465 0.575907 0.167931 0.196007
H9    H     H_    0.599171 0.580847 0.823539 0.167719
H10   H     H_    0.400819 0.419160 0.176461 0.167719
H11   H     H_    0.596565 0.576814 0.687537 0.143468
H12   H     H_    0.403427 0.423192 0.312463 0.143473
Br3   Br    Br    0.678555 0.460856 0.083013 -0.396275
Br4   Br    Br    0.321443 0.539140 0.916985 -0.396270
Br5   Br    Br    0.926326 0.345022 0.538343 -0.337251
Br6   Br    Br    0.073674 0.654969 0.461658 -0.337254
Br7   Br    Br    0.934426 0.546833 0.337096 -0.312305
Br8   Br    Br    0.065574 0.453157 0.662905 -0.312302
H13   H     H_    0.494440 0.717844 0.379975 0.203010
H14   H     H_    0.505536 0.282147 0.620019 0.203016
Br9   Br    Br    0.490072 0.863788 0.337525 -0.391077
Br10  Br    Br    0.509904 0.136198 0.662457 -0.391081
H15   H     H_    0.503293 0.843620 0.615907 0.179052
H16   H     H_    0.496749 0.156388 0.384074 0.179052
Br11  Br    Br    0.322335 0.916390 0.546044 -0.370696
Br12  Br    Br    0.677677 0.083610 0.453937 -0.370704
H17   H     H_    0.372164 0.062948 0.537334 0.198691
H18   H     H_    0.627845 0.937054 0.462639 0.198690

loop_
_geom_bond_atom_site_label_1
_geom_bond_atom_site_label_2
_ccdc_geom_bond_type
C27   C29   A    
C24   C42   S    
C28   H10   S    
C3    C49   A    
C50   H14   S    
C19   N1    A    
C40   C46   S    
C37   Br5   S    
C13   C18   A    
C21   H7    S    
Cu1   O4    S    
C19   C21   A    
Cu2   O3    S    
C1    O1    A    
C2    O2    A    
C3    Br9   S    
C15   C17   A    
C22   H8    S    
C33   Br3   S    
C14   Br12  S    
C38   C45   S    
Cu2   O2    S    
C40   C43   S    
C7    H15   S    
C31   C33   A    
C9    H3    S    
C10   H4    S    
C24   O8    A    
C39   C45   S    
C23   O5    A    
C24   O6    A    
C14   C17   A    
C20   Br2   S    
C1    C12   S    
C2    C11   S    
C32   H2    S    
C44   C46   S    
C45   C47   S    
Cu2   N2    S    
C46   C48   S    
Cu1   Cu2   S    
C32   C35   A    
Cu1   O5    S    
C4    C6    A    
C44   Br7   S    
Cu2   O6    S    
C5    C7    A    
C6    C8    A    
C5    C18   S    
C4    C50   A    
C8    H16   S    
Cu1   O8    S    
C32   C34   A    
C37   C43   S    
C38   C44   S    
C11   C49   A    
C30   H12   S    
C41   C47   T    
C42   C48   T    
C31   H1    S    
C43   C45   S    
C9    C11   A    
C10   C12   A    
Cu1   N1    S    
C8    C10   A    
C29   N1    A    
C16   H18   S    
C13   C15   A    
C40   H6    S    
C14   C16   A    
C19   Br1   S    
Cu1   O1    S    
C20   N2    A    
C7    C9    A    
C6    C17   S    
C21   C25   A    
C13   Br11  S    
C39   H5    S    
C20   C22   A    
C3    C5    A    
C1    O3    A    
C12   C50   A    
C39   C44   S    
C29   H11   S    
C25   C27   A    
C26   C28   A    
C23   C41   S    
C49   H13   S    
C28   C30   A    
C37   C39   S    
C34   Br4   S    
C38   C40   S    
C23   O7    A    
C38   Br6   S    
C30   N2    A    
C33   C35   A    
C34   C36   A    
C25   C36   S    
C15   H17   S    
C26   C35   S    
C4    Br10  S    
C16   C18   A    
C22   C26   A    
C43   Br8   S    
C31   C36   A    
C37   C46   S    
C27   H9    S    
Cu2   O7    S    
C2    O4    A    
