data_mof_unit_49703.cif
_audit_creation_date              2012-10-26T18:59:59-0400
_audit_creation_method            fapswitch 2.2
_symmetry_space_group_name_H-M    P1
_symmetry_Int_Tables_number       1
_space_group_crystal_system       triclinic
_cell_length_a                    9.552466
_cell_length_b                    10.903803
_cell_length_c                    17.068883
_cell_angle_alpha                 87.294838
_cell_angle_beta                  94.462041
_cell_angle_gamma                 91.580187
_cell_volume                      1769.99038944

loop_
_atom_site_label
_atom_site_type_symbol
_atom_type_description
_atom_site_fract_x
_atom_site_fract_y
_atom_site_fract_z
_atom_type_partial_charge
C1    C     C_R   0.498815 0.262876 0.503349 0.541802
C2    C     C_R   0.495069 0.130710 0.503668 -0.004615
C3    C     C_R   0.399822 0.059679 0.546043 -0.156405
C4    C     C_R   0.518073 0.497788 0.651050 0.552573
C5    C     C_R   0.405653 0.930777 0.548379 -0.024977
C6    C     C_R   0.500514 0.872037 0.502497 -0.009365
C7    C     C_R   0.579657 0.946415 0.452088 -0.018398
C8    C     C_3   0.731454 0.949416 0.434328 -0.105631
C9    C     C_3   0.737008 0.086173 0.448049 -0.019963
C10   C     C_R   0.066870 0.549978 0.437118 0.191176
C11   C     C_R   0.080754 0.443612 0.559630 -0.005071
C12   C     C_R   0.659986 0.482301 0.780331 -0.149593
C13   C     C_R   0.932245 0.445279 0.560230 -0.020394
C14   C     C_R   0.918363 0.542414 0.434793 0.083705
C15   C     C_3   0.900839 0.666783 0.397099 -0.107822
C16   C     C_R   0.501354 0.737945 0.500466 0.553483
C17   C     C_3   0.060371 0.683905 0.410005 0.160031
C18   C     C_R   0.481356 0.487444 0.349754 0.569701
C19   C     C_R   0.528945 0.492915 0.737404 0.008591
C20   C     C_R   0.406788 0.496063 0.777671 -0.147161
C21   C     C_R   0.414879 0.487149 0.859286 -0.079824
C22   C     C_R   0.546224 0.474565 0.902665 0.231429
C23   C     C_R   0.577368 0.419829 0.144844 -0.030503
C24   C     C_R   0.668172 0.473354 0.862389 -0.099098
C25   C     C_1   0.322962 0.862360 0.603690 0.239345
C26   C     C_1   0.745511 0.929976 0.350559 0.179755
C27   C     C_1   0.844622 0.660863 0.314443 0.219558
C28   C     C_1   0.199777 0.486048 0.089655 0.231553
C29   C     C_R   0.584337 0.420598 0.226554 0.061481
C30   C     C_R   0.453142 0.450381 0.099629 0.162262
C31   C     C_R   0.467738 0.460494 0.264558 0.029903
C32   C     C_R   0.335510 0.467081 0.220274 0.048626
C33   C     C_R   0.330427 0.467638 0.137311 0.010750
C34   C     C_R   0.583555 0.071736 0.458371 0.005174
Cu1   Cu    Cu3+1 0.640670 0.499980 0.500000 0.923324
Cu2   Cu    Cu3+1 0.359330 0.500020 0.500000 0.983810
H1    H     H_    0.801014 0.895519 0.477226 0.133691
H2    H     H_    0.304367 0.504803 0.746190 0.139571
H3    H     H_    0.328452 0.104235 0.581465 0.129916
H4    H     H_    0.666591 0.298782 0.309512 0.232301
H5    H     H_    0.765331 0.429415 0.298763 0.267973
H6    H     H_    0.842258 0.206791 0.522096 0.257194
H7    H     H_    0.772060 0.083921 0.570327 0.244264
H8    H     H_    0.241537 0.710549 0.353523 0.281263
H9    H     H_    0.106815 0.655114 0.295549 0.254317
H10   H     H_    0.072493 0.856133 0.453591 0.243882
H11   H     H_    0.046899 0.744299 0.522590 0.228946
H12   H     H_    0.762549 0.147621 0.396973 0.153474
H13   H     H_    0.118087 0.473763 0.222434 0.239401
H14   H     H_    0.199146 0.375631 0.287668 0.246045
H15   H     H_    0.141541 0.398904 0.608366 0.116149
H16   H     H_    0.882288 0.402668 0.609671 0.115649
H17   H     H_    0.838902 0.723318 0.432043 0.123568
H18   H     H_    0.668859 0.392464 0.116862 0.178694
H19   H     H_    0.769772 0.464579 0.894769 0.140552
H20   H     H_    0.755930 0.479772 0.750618 0.130316
H21   H     H_    0.317954 0.489955 0.888016 0.153265
N1    N     N_2   0.559737 0.464381 0.986203 -0.231963
N2    N     N_3   0.133539 0.716790 0.339255 -0.567149
N3    N     N_3   0.101822 0.767446 0.473036 -0.555718
N4    N     N_3   0.208214 0.463150 0.260470 -0.626734
N5    N     N_1   0.095510 0.500750 0.051510 -0.285520
N6    N     N_2   0.444698 0.457336 0.016154 -0.236992
N7    N     N_R   0.147870 0.500930 0.499500 -0.225068
N8    N     N_R   0.851960 0.500890 0.499500 -0.250823
N9    N     N_3   0.703184 0.364354 0.268910 -0.619780
N10   N     N_1   0.257167 0.807610 0.648211 -0.290198
N11   N     N_1   0.755480 0.918707 0.284182 -0.237726
N12   N     N_3   0.823730 0.112219 0.520454 -0.638367
N13   N     N_1   0.801385 0.657104 0.249305 -0.252882
O1    O     O_R   0.618810 0.319640 0.500000 -0.516426
O2    O     O_R   0.381230 0.319680 0.499990 -0.506174
O3    O     O_R   0.631790 0.498830 0.613930 -0.510085
O4    O     O_R   0.394210 0.498870 0.613920 -0.506241
O5    O     O_R   0.618770 0.680320 0.500010 -0.513740
O6    O     O_R   0.381190 0.680360 0.500000 -0.457677
O7    O     O_R   0.605790 0.501130 0.386080 -0.510182
O8    O     O_R   0.368210 0.501170 0.386070 -0.480201

loop_
_geom_bond_atom_site_label_1
_geom_bond_atom_site_label_2
_ccdc_geom_bond_type
C16   O5    A    
C8    C26   S    
Cu2   N7    S    
C19   C20   A    
C25   N10   T    
C7    C8    S    
C13   N8    A    
C24   H19   S    
Cu1   O5    S    
C1    O1    A    
C15   H17   S    
C9    N12   S    
C32   N4    S    
C5    C6    A    
Cu1   N8    S    
H8    N2    S    
C1    C2    S    
Cu2   O6    S    
H11   N3    S    
C4    C19   S    
H9    N2    S    
Cu1   Cu2   S    
C8    C9    S    
C4    O4    A    
C2    C34   A    
Cu1   O1    S    
H7    N12   S    
H4    N9    S    
C21   C22   A    
C1    O2    A    
H13   N4    S    
C23   C30   A    
C11   N7    A    
C10   C14   A    
H5    N9    S    
C6    C16   S    
Cu1   O7    S    
H6    N12   S    
C21   H21   S    
C13   H16   S    
C20   H2    S    
C15   C27   S    
C31   C32   A    
C18   O8    A    
C4    O3    A    
C12   H20   S    
C27   N13   T    
Cu2   O4    S    
C17   N2    S    
C5    C25   S    
C28   C33   S    
C9    C34   S    
C7    C34   A    
C22   C24   A    
C8    H1    S    
C23   C29   A    
C23   H18   S    
N1    N6    D    
C15   C17   S    
Cu1   O3    S    
C30   C33   A    
H10   N3    S    
C16   O6    A    
C10   N7    A    
C3    C5    A    
C22   N1    S    
C6    C7    A    
C12   C24   A    
C26   N11   T    
C32   C33   A    
C2    C3    A    
C29   C31   A    
Cu2   O8    S    
C11   C13   A    
C18   O7    A    
C12   C19   A    
C14   N8    A    
C11   H15   S    
C17   N3    S    
C3    H3    S    
C29   N9    S    
C20   C21   A    
C9    H12   S    
H14   N4    S    
C14   C15   S    
C18   C31   S    
C10   C17   S    
C30   N6    S    
Cu2   O2    S    
C28   N5    T    
