data_mof_unit_19585.cif
_audit_creation_date              2012-12-10T18:57:12-0500
_audit_creation_method            fapswitch 2.2
_symmetry_space_group_name_H-M    P1
_symmetry_Int_Tables_number       1
_space_group_crystal_system       triclinic
_cell_length_a                    10.616151
_cell_length_b                    9.886071
_cell_length_c                    10.705588
_cell_angle_alpha                 89.36303
_cell_angle_beta                  90.814304
_cell_angle_gamma                 89.719061
_cell_volume                      1123.37582171

loop_
_atom_site_label
_atom_site_type_symbol
_atom_type_description
_atom_site_fract_x
_atom_site_fract_y
_atom_site_fract_z
_atom_type_partial_charge
C1    C     C_R   0.260486 0.500177 0.502180 0.862372
C2    C     C_R   0.739607 0.499771 0.501814 0.906116
C3    C     C_R   0.588322 0.071006 0.567693 0.092763
C4    C     C_R   0.409664 0.074321 0.434739 0.113036
C5    C     C_R   0.589179 0.926183 0.566670 0.094214
C6    C     C_R   0.406550 0.929143 0.438519 0.087540
C7    C     C_R   0.504367 0.500666 0.260001 0.863670
C8    C     C_R   0.502637 0.499393 0.739896 0.867351
C9    C     C_R   0.528042 0.623345 0.061942 0.037220
C10   C     C_R   0.521412 0.621282 0.934438 0.042295
C11   C     C_R   0.524707 0.501520 0.128752 -0.108221
C12   C     C_R   0.519814 0.499014 0.871466 -0.096065
C13   C     C_R   0.544272 0.378914 0.066490 -0.212619
C14   C     C_R   0.542520 0.377806 0.937211 -0.214248
C15   C     C_3   0.436965 0.743672 0.925510 -0.090152
C16   C     C_3   0.446257 0.747631 0.067449 -0.107758
C17   C     C_R   0.066716 0.437271 0.607012 0.038478
C18   C     C_R   0.936110 0.437865 0.606670 0.101898
C19   C     C_R   0.872023 0.499966 0.506044 -0.048489
C20   C     C_R   0.128235 0.500802 0.506967 -0.058862
C21   C     C_R   0.934060 0.566415 0.409753 -0.247129
C22   C     C_R   0.063129 0.567105 0.410367 -0.202366
H1    H     H_    0.480042 0.831210 0.876090 0.168799
H2    H     H_    0.355285 0.730973 0.115004 0.160950
N1    N     N_R   0.500000 0.857200 0.500000 -0.096114
N2    N     N_R   0.500000 0.142810 0.500000 -0.088359
O1    O     O_R   0.316770 0.614620 0.499990 -0.601528
O2    O     O_R   0.683230 0.614620 0.500010 -0.604455
O3    O     O_R   0.316800 0.385290 0.500000 -0.607762
O4    O     O_R   0.683200 0.385290 0.500000 -0.589520
O5    O     O_R   0.500000 0.614690 0.316780 -0.640936
O6    O     O_R   0.500000 0.614690 0.683220 -0.612086
O7    O     O_R   0.500020 0.385360 0.316780 -0.603124
O8    O     O_R   0.499980 0.385360 0.683220 -0.608900
Zn1   Zn    Zn3+2 0.500000 0.653120 0.500000 0.952593
Zn2   Zn    Zn3+2 0.500000 0.346880 0.500000 0.973394
H3    H     H_    0.552353 0.283360 0.116569 0.175522
H4    H     H_    0.550513 0.281917 0.889906 0.170909
N3    N     N_3   0.308164 0.714834 0.882301 -0.458057
H5    H     H_    0.279587 0.619622 0.914562 0.181465
H6    H     H_    0.306782 0.712859 0.784775 0.214194
N4    N     N_3   0.514946 0.866393 0.112138 -0.468380
H7    H     H_    0.601266 0.874491 0.066608 0.183883
H8    H     H_    0.536332 0.851580 0.206835 0.207795
N5    N     N_3   0.134650 0.376025 0.710091 -0.478851
H9    H     H_    0.196557 0.447322 0.747573 0.166729
H10   H     H_    0.187048 0.294420 0.677238 0.210315
N6    N     N_3   0.868113 0.380556 0.709217 -0.451500
H11   H     H_    0.897574 0.280262 0.721947 0.195487
H12   H     H_    0.892624 0.433502 0.789921 0.193906
H13   H     H_    0.882414 0.615741 0.333759 0.148955
H14   H     H_    0.112370 0.616834 0.334725 0.146298
N7    N     N_3   0.679438 0.143455 0.639739 -0.386515
H15   H     H_    0.769098 0.116327 0.609407 0.163557
H16   H     H_    0.671211 0.114918 0.733526 0.150284
N8    N     N_3   0.319803 0.151190 0.362343 -0.393374
H17   H     H_    0.230158 0.136068 0.398954 0.171647
H18   H     H_    0.321530 0.118094 0.269961 0.167191
N9    N     N_3   0.681108 0.850772 0.637805 -0.388677
H19   H     H_    0.770744 0.877560 0.607268 0.168253
H20   H     H_    0.673403 0.876244 0.731857 0.149171
N10   N     N_3   0.304069 0.855984 0.383049 -0.411631
H21   H     H_    0.232811 0.918861 0.347581 0.146842
H22   H     H_    0.339333 0.802645 0.308186 0.200584

loop_
_geom_bond_atom_site_label_1
_geom_bond_atom_site_label_2
_ccdc_geom_bond_type
C4    N2    A    
N10   H21   S    
C13   C14   A    
N8    H18   S    
C14   H4    S    
C9    C11   A    
C9    C10   A    
C13   H3    S    
O4    Zn2   S    
C8    C12   S    
C6    N10   S    
C15   H1    S    
C17   C18   A    
N9    H19   S    
C16   H2    S    
C21   H13   S    
C8    O8    A    
N5    H9    S    
C4    N8    S    
C7    C11   S    
N6    H12   S    
C7    O7    A    
O3    Zn2   S    
C15   N3    S    
C1    O3    A    
N4    H8    S    
N1    Zn1   S    
C5    N1    A    
C10   C12   A    
C21   C22   A    
N6    H11   S    
C19   C21   A    
C9    C16   S    
C20   C22   A    
C18   C19   A    
C22   H14   S    
O8    Zn2   S    
C10   C15   S    
N7    H16   S    
O5    Zn1   S    
N9    H20   S    
C6    N1    A    
C7    O5    A    
C2    O4    A    
C5    N9    S    
N10   H22   S    
C15   C16   S    
C8    O6    A    
O6    Zn1   S    
C16   N4    S    
C11   C13   A    
O7    Zn2   S    
N8    H17   S    
N3    H6    S    
C4    C6    A    
N4    H7    S    
N5    H10   S    
N2    Zn2   S    
N3    H5    S    
C1    O1    A    
C1    C20   S    
C2    O2    A    
C3    N7    S    
O1    Zn1   S    
C2    C19   S    
N7    H15   S    
C17   C20   A    
C3    N2    A    
C17   N5    S    
O2    Zn1   S    
C12   C14   A    
C3    C5    A    
C18   N6    S    
