data_mof_unit_50838.cif
_audit_creation_date              2012-12-10T20:38:20-0500
_audit_creation_method            fapswitch 2.2
_symmetry_space_group_name_H-M    P1
_symmetry_Int_Tables_number       1
_space_group_crystal_system       triclinic
_cell_length_a                    9.935353
_cell_length_b                    10.832232
_cell_length_c                    16.585861
_cell_angle_alpha                 91.147776
_cell_angle_beta                  87.69203
_cell_angle_gamma                 90.794819
_cell_volume                      1783.04598362

loop_
_atom_site_label
_atom_site_type_symbol
_atom_type_description
_atom_site_fract_x
_atom_site_fract_y
_atom_site_fract_z
_atom_type_partial_charge
C1    C     C_R   0.500230 0.739741 0.502599 0.895901
C2    C     C_R   0.479469 0.424005 0.791850 -0.215307
C3    C     C_R   0.492633 0.673547 0.160416 0.118265
C4    C     C_R   0.441188 0.594156 0.219569 -0.109443
C5    C     C_R   0.654677 0.485486 0.214887 -0.092880
C6    C     C_R   0.688278 0.542030 0.140519 0.168024
C7    C     C_R   0.604618 0.634702 0.112828 0.000064
C8    C     C_2   0.491988 0.598553 0.989691 -0.117990
C9    C     C_2   0.598650 0.649480 0.025385 -0.093107
C10   C     C_R   0.531612 0.516513 0.256826 -0.218884
C11   C     C_R   0.377472 0.935084 0.509640 0.008569
C12   C     C_R   0.483993 0.499824 0.653000 0.876139
C13   C     C_R   0.498683 0.871519 0.512227 -0.065407
C14   C     C_R   0.617929 0.937910 0.526817 -0.163114
C15   C     C_R   0.617833 0.066292 0.526418 -0.159069
C16   C     C_R   0.499066 0.128323 0.509697 -0.082502
C17   C     C_R   0.379261 0.061319 0.504500 0.025584
C18   C     C_3   0.274573 0.060470 0.441798 0.040107
C19   C     C_3   0.259065 0.922696 0.456534 -0.064257
C20   C     C_R   0.925570 0.551961 0.563104 0.146879
C21   C     C_R   0.929001 0.441210 0.441576 -0.134629
C22   C     C_R   0.070924 0.444135 0.439921 0.222215
C23   C     C_R   0.499564 0.260103 0.501318 0.906191
C24   C     C_R   0.067896 0.547349 0.564878 0.117071
C25   C     C_3   0.077643 0.676581 0.596030 -0.051923
C26   C     C_3   0.925821 0.685433 0.587495 -0.066781
C27   C     C_R   0.517067 0.499433 0.345578 0.954153
C28   C     C_R   0.480023 0.522006 0.738920 -0.053877
C29   C     C_R   0.484945 0.643717 0.767282 -0.155434
C30   C     C_R   0.491662 0.669456 0.849120 0.235229
C31   C     C_R   0.493025 0.571444 0.903453 0.003101
C32   C     C_R   0.485586 0.446809 0.874960 -0.036023
H1    H     H_    0.484211 0.719089 0.725270 0.164961
H2    H     H_    0.712051 0.891383 0.534581 0.178435
H3    H     H_    0.711769 0.115960 0.534818 0.184636
H4    H     H_    0.166332 0.902799 0.493568 0.115059
H5    H     H_    0.875722 0.394585 0.394181 0.200773
H6    H     H_    0.136916 0.733883 0.553420 0.138287
H7    H     H_    0.900533 0.744332 0.536218 0.128514
H8    H     H_    0.687267 0.678727 0.989881 0.195511
H9    H     H_    0.477027 0.330224 0.767807 0.186241
H10   H     H_    0.409731 0.558105 0.025976 0.192130
N1    N     N_R   0.857140 0.500860 0.500530 -0.145498
N2    N     N_R   0.142780 0.500820 0.500530 -0.144547
O1    O     O_R   0.385310 0.683210 0.499990 -0.613838
O2    O     O_R   0.614650 0.683240 0.500000 -0.620043
O3    O     O_R   0.371780 0.500000 0.615800 -0.584337
O4    O     O_R   0.601120 0.500040 0.615800 -0.594117
O5    O     O_R   0.385350 0.316760 0.500000 -0.576309
O6    O     O_R   0.614690 0.316790 0.500010 -0.622846
O7    O     O_R   0.398880 0.499960 0.384200 -0.585164
O8    O     O_R   0.628220 0.500000 0.384200 -0.618853
Zn1   Zn    Zn3+2 0.346870 0.499980 0.499990 1.035213
Zn2   Zn    Zn3+2 0.653130 0.500020 0.500010 0.991942
I1    I     I_    0.853921 0.479747 0.063638 -0.154699
C33   C     C_2   0.147073 0.127472 0.467044 0.907550
O9    O     O_2   0.047473 0.114011 0.426630 -0.601910
O10   O     O_R   0.139719 0.198151 0.538557 -0.778255
H11   H     H_    0.047039 0.233985 0.550056 0.335824
I2    I     I_    0.368853 0.107228 0.325238 -0.102176
I3    I     I_    0.265141 0.799871 0.353771 -0.191904
I4    I     I_    0.152787 0.363706 0.335342 -0.109731
I5    I     I_    0.152690 0.684499 0.715703 -0.219905
C34   C     C_2   0.306845 0.542944 0.202219 0.992156
O11   O     O_2   0.298275 0.438913 0.172553 -0.553577
O12   O     O_R   0.191857 0.615319 0.212080 -0.735675
H12   H     H_    0.107322 0.570370 0.194729 0.379961
I6    I     I_    0.802616 0.725374 0.693583 -0.264758
C35   C     C_2   0.739288 0.385503 0.244958 0.986769
O13   O     O_2   0.861987 0.392427 0.237937 -0.597590
O14   O     O_R   0.677972 0.283782 0.282758 -0.773452
H13   H     H_    0.745712 0.222626 0.301682 0.362394
C36   C     C_2   0.486627 0.338381 0.929057 0.968866
O15   O     O_2   0.531394 0.347652 0.996539 -0.583876
O16   O     O_R   0.438253 0.223743 0.901704 -0.762614
H14   H     H_    0.444216 0.157180 0.943482 0.384346
I7    I     I_    0.375685 0.825454 0.123596 -0.115690
I8    I     I_    0.493248 0.858703 0.885251 -0.215069

loop_
_geom_bond_atom_site_label_1
_geom_bond_atom_site_label_2
_ccdc_geom_bond_type
C10   C27   S    
C36   O15   D    
C6    I1    S    
C12   O4    A    
O4    Zn2   S    
C11   C19   S    
O6    Zn2   S    
C12   C28   S    
C28   C29   A    
C8    H10   S    
C3    C7    A    
C19   H4    S    
C5    C6    A    
C26   H7    S    
C23   O5    A    
C2    H9    S    
C15   C16   A    
C29   H1    S    
C33   O9    D    
C2    C32   A    
C18   C19   S    
C25   I5    S    
C35   O14   S    
C5    C35   S    
C21   N1    A    
N2    Zn1   S    
C22   N2    A    
C20   C24   A    
O8    Zn2   S    
C8    C9    D    
C18   C33   S    
O3    Zn1   S    
O12   H12   S    
O1    Zn1   S    
C13   C14   A    
C36   O16   S    
C12   O3    A    
C15   H3    S    
C27   O7    A    
C24   C25   S    
C32   C36   S    
C16   C17   A    
C23   O6    A    
C25   C26   S    
C9    H8    S    
O7    Zn1   S    
C34   O12   S    
O16   H14   S    
C29   C30   A    
C25   H6    S    
C22   I4    S    
N1    Zn2   S    
C31   C32   A    
O2    Zn2   S    
C17   C18   S    
C18   I2    S    
C16   C23   S    
C24   N2    A    
C1    C13   S    
C4    C10   A    
C3    C4    A    
C3    I7    S    
C20   N1    A    
C27   O8    A    
C7    C9    S    
C11   C17   A    
C8    C31   S    
C14   H2    S    
C6    C7    A    
C4    C34   S    
C26   I6    S    
C34   O11   D    
O10   H11   S    
O14   H13   S    
C11   C13   A    
C1    O1    A    
C30   C31   A    
C20   C26   S    
C19   I3    S    
O5    Zn1   S    
C33   O10   S    
C35   O13   D    
C1    O2    A    
C30   I8    S    
C5    C10   A    
C21   H5    S    
C14   C15   A    
C2    C28   A    
C21   C22   A    
