data_mof_unit_33189.cif
_audit_creation_date              2012-12-11T16:09:23-0500
_audit_creation_method            fapswitch 2.2
_symmetry_space_group_name_H-M    P1
_symmetry_Int_Tables_number       1
_space_group_crystal_system       triclinic
_cell_length_a                    6.974942
_cell_length_b                    21.347308
_cell_length_c                    23.586373
_cell_angle_alpha                 90.108422
_cell_angle_beta                  89.836105
_cell_angle_gamma                 90.240638
_cell_volume                      3511.87059029

loop_
_atom_site_label
_atom_site_type_symbol
_atom_type_description
_atom_site_fract_x
_atom_site_fract_y
_atom_site_fract_z
_atom_type_partial_charge
O1    O     O_R   0.494270 0.443530 0.442350 -0.534762
O2    O     O_R   0.824060 0.436290 0.557250 -0.538218
O3    O     O_R   0.994370 0.556470 0.557650 -0.533942
C1    C     C_R   0.654928 0.421242 0.576627 0.727328
O4    O     O_R   0.823990 0.436120 0.442760 -0.537425
O5    O     O_R   0.994300 0.556300 0.442340 -0.533200
C2    C     C_R   0.655287 0.420581 0.423710 0.728121
O6    O     O_R   0.494350 0.443700 0.557660 -0.534834
O7    O     O_3   0.660800 0.539430 0.500000 -0.366636
V1    V     V_3+5 0.935650 0.492690 0.500000 1.411114
O8    O     O_R   0.324020 0.563710 0.442750 -0.537938
C3    C     C_R   0.155593 0.578522 0.423040 0.727876
O9    O     O_R   0.324090 0.563880 0.557240 -0.537042
C4    C     C_R   0.155331 0.579088 0.576577 0.727352
V2    V     V_3+5 0.435660 0.507310 0.500000 1.412322
O10   O     O_3   0.160640 0.460570 0.500000 -0.368189
C5    C     C_3   0.018019 0.723877 0.793239 -0.139116
C6    C     C_3   0.207393 0.699767 0.766563 -0.140320
H1    H     H_    0.288126 0.657925 0.780693 0.106007
H2    H     H_    0.942175 0.702353 0.829823 0.106456
H3    H     H_    0.432823 0.782279 0.778523 0.110418
C7    C     C_1   0.145466 0.625041 0.621926 -0.193628
C8    C     C_1   0.074030 0.874847 0.876805 -0.196250
C9    C     C_3   0.932815 0.732775 0.733152 -0.139998
C10   C     C_3   0.122043 0.709264 0.707092 0.171562
C11   C     C_3   0.012175 0.800728 0.731743 -0.140633
C12   C     C_3   0.097529 0.791207 0.791208 0.172239
C13   C     C_3   0.201561 0.776604 0.705052 -0.139338
C14   C     C_3   0.286753 0.767711 0.765147 -0.139948
C15   C     C_1   0.135484 0.663136 0.660168 -0.067678
C16   C     C_1   0.084053 0.837086 0.838310 -0.069002
H4    H     H_    0.277404 0.798131 0.668470 0.106629
H5    H     H_    0.931509 0.842602 0.717648 0.106426
H6    H     H_    0.786730 0.718219 0.719782 0.110336
C17   C     C_3   0.234393 0.817125 0.257597 -0.033340
C18   C     C_3   0.902759 0.779588 0.235136 -0.397085
C19   C     C_3   0.920574 0.734555 0.286767 -0.379016
H7    H     H_    0.245619 0.781473 0.344905 0.129877
H8    H     H_    0.154139 0.854289 0.280835 0.124746
H9    H     H_    0.804380 0.758827 0.203046 0.153017
H10   H     H_    0.839951 0.824501 0.249520 0.145819
H11   H     H_    0.885745 0.760411 0.326479 0.152180
H12   H     H_    0.813394 0.696072 0.282603 0.140366
C20   C     C_1   0.146262 0.623584 0.376922 -0.196593
C21   C     C_3   0.101910 0.792867 0.208256 0.251312
C22   C     C_3   0.266747 0.762808 0.301238 -0.364522
C23   C     C_3   0.126573 0.707194 0.290556 0.245149
C24   C     C_3   0.172032 0.677220 0.231217 -0.032109
C25   C     C_3   0.179484 0.729722 0.185042 -0.334971
C26   C     C_1   0.137082 0.660972 0.338090 -0.093738
C27   C     C_1   0.083332 0.838635 0.160861 -0.077480
C28   C     C_1   0.072068 0.875651 0.121908 -0.206228
H13   H     H_    0.328083 0.736918 0.169285 0.136749
H14   H     H_    0.092857 0.714363 0.147912 0.123954
H15   H     H_    0.416308 0.745179 0.299354 0.138864
H16   H     H_    0.049449 0.645550 0.220847 0.120968
C29   C     C_3   0.416754 0.270566 0.719444 -0.345689
C30   C     C_3   0.760148 0.232611 0.695386 -0.061894
C31   C     C_3   0.727866 0.180213 0.741478 -0.099616
H17   H     H_    0.345719 0.177050 0.750195 0.131289
H18   H     H_    0.344667 0.252032 0.681199 0.131295
H19   H     H_    0.909232 0.250678 0.700931 0.102689
H20   H     H_    0.639764 0.142537 0.721732 0.144232
C32   C     C_1   0.576093 0.124028 0.877722 -0.210527
C33   C     C_3   0.627921 0.290822 0.707215 0.231708
C34   C     C_3   0.406124 0.221260 0.767648 -0.368992
C35   C     C_3   0.607624 0.208119 0.792403 0.218750
C36   C     C_3   0.702365 0.272072 0.812259 0.040814
C37   C     C_3   0.701712 0.321276 0.762948 -0.370431
C38   C     C_1   0.589473 0.161856 0.839508 -0.077367
C39   C     C_1   0.636664 0.337547 0.660274 -0.079045
C40   C     C_1   0.644739 0.375577 0.622043 -0.201085
H21   H     H_    0.612243 0.362663 0.772800 0.170705
H22   H     H_    0.849657 0.339913 0.756710 0.111556
H23   H     H_    0.331695 0.312279 0.732267 0.144225
H24   H     H_    0.303834 0.235830 0.801098 0.154026
H25   H     H_    0.855930 0.261418 0.819775 0.075933
C41   C     C_3   0.419212 0.296737 0.258465 0.032627
C42   C     C_3   0.784240 0.313143 0.239395 -0.020179
C43   C     C_3   0.789707 0.257174 0.194071 -0.081221
H26   H     H_    0.416349 0.281564 0.165469 0.137463
H27   H     H_    0.922291 0.310792 0.262706 0.110635
H28   H     H_    0.917513 0.228987 0.206146 0.111419
C44   C     C_1   0.575238 0.124537 0.120949 -0.209133
C45   C     C_3   0.624632 0.299051 0.285861 0.259364
C46   C     C_3   0.424985 0.253383 0.204973 -0.407902
C47   C     C_3   0.609803 0.213030 0.202942 0.246050
C48   C     C_3   0.631957 0.181338 0.261489 -0.393386
C49   C     C_3   0.663047 0.231418 0.308339 -0.458911
C50   C     C_1   0.589880 0.163828 0.158111 -0.065362
C51   C     C_1   0.636900 0.341118 0.336445 -0.032091
C52   C     C_1   0.646630 0.376112 0.377168 -0.224475
H29   H     H_    0.566669 0.220484 0.344768 0.159545
H30   H     H_    0.812559 0.228089 0.324461 0.152436
H31   H     H_    0.501261 0.153248 0.271395 0.159832
H32   H     H_    0.321582 0.273582 0.289627 0.126759
H33   H     H_    0.296078 0.222439 0.205561 0.124382
H34   H     H_    0.755299 0.148421 0.261006 0.147780
O11   O     O_R   0.724990 0.055630 0.941600 -0.532250
O12   O     O_R   0.395220 0.063160 0.056480 -0.537478
O13   O     O_R   0.225040 0.942970 0.056870 -0.532250
C53   C     C_R   0.564058 0.078119 0.076034 0.731109
O14   O     O_R   0.395270 0.063000 0.941990 -0.539204
O15   O     O_R   0.225080 0.942800 0.941570 -0.533559
C54   C     C_R   0.564535 0.078221 0.922832 0.730110
O16   O     O_R   0.724940 0.055790 0.056910 -0.534732
O17   O     O_3   0.558580 0.959880 0.999250 -0.366569
V3    V     V_3+5 0.283680 0.006590 0.999220 1.405795
O18   O     O_R   0.895380 0.935350 0.941950 -0.536263
C55   C     C_R   0.064130 0.920385 0.922463 0.731105
O19   O     O_R   0.895330 0.935520 0.056440 -0.539711
C56   C     C_R   0.063547 0.920635 0.075960 0.727982
V4    V     V_3+5 0.783690 0.991900 0.999180 1.408903
O20   O     O_3   0.058660 0.038680 0.999200 -0.367934
C57   C     C_3   0.354206 0.635940 0.229385 -0.365560
C58   C     C_3   0.373946 0.601878 0.172066 -0.316680
C59   C     C_3   0.533089 0.553384 0.173540 -0.791809
H35   H     H_    0.670288 0.575304 0.187064 0.226056
H36   H     H_    0.492653 0.515433 0.203273 0.235941
H37   H     H_    0.552622 0.532673 0.130714 0.216746
H38   H     H_    0.237341 0.577651 0.161308 0.189700
H39   H     H_    0.407081 0.636015 0.137913 0.192840
H40   H     H_    0.484421 0.664911 0.236849 0.173541
H41   H     H_    0.345603 0.600060 0.263383 0.186917
C60   C     C_3   0.427784 0.846929 0.238548 -0.367864
C61   C     C_3   0.416286 0.918282 0.229857 -0.322832
C62   C     C_3   0.603721 0.944416 0.205821 -0.756432
H42   H     H_    0.724097 0.935129 0.235318 0.215583
H43   H     H_    0.635556 0.922747 0.163999 0.236376
H44   H     H_    0.590967 0.995847 0.200039 0.207469
H45   H     H_    0.298776 0.930718 0.200620 0.204168
H46   H     H_    0.386657 0.941404 0.271219 0.181397
H47   H     H_    0.534914 0.839690 0.272542 0.173539
H48   H     H_    0.482381 0.823973 0.199511 0.184825
C63   C     C_3   0.762622 0.206185 0.633833 -0.361472
C64   C     C_3   0.566696 0.188399 0.608767 -0.284209
C65   C     C_3   0.590087 0.150994 0.553991 -0.797952
H49   H     H_    0.673165 0.178506 0.522337 0.229152
H50   H     H_    0.665174 0.106201 0.562458 0.226527
H51   H     H_    0.446688 0.140170 0.536040 0.215402
H52   H     H_    0.481794 0.159837 0.639118 0.184272
H53   H     H_    0.486290 0.231621 0.598389 0.194638
H54   H     H_    0.831503 0.241205 0.605368 0.170822
H55   H     H_    0.857030 0.164314 0.633206 0.176254
C66   C     C_3   0.920990 0.148965 0.759067 -0.389688
C67   C     C_3   0.905023 0.077395 0.765225 -0.310048
C68   C     C_3   0.091228 0.049546 0.787716 -0.755999
H56   H     H_    0.212162 0.060381 0.758541 0.216505
H57   H     H_    0.123843 0.068729 0.830458 0.233730
H58   H     H_    0.076218 0.997873 0.791079 0.210879
H59   H     H_    0.786868 0.064544 0.794527 0.202989
H60   H     H_    0.873201 0.056232 0.723165 0.183948
H61   H     H_    0.031314 0.157673 0.725965 0.170222
H62   H     H_    0.976209 0.169236 0.799170 0.183663
C69   C     C_3   0.634094 0.298778 0.870690 -0.317763
C70   C     C_3   0.457619 0.341469 0.870723 -0.762832
H63   H     H_    0.498830 0.389958 0.858722 0.210332
H64   H     H_    0.343964 0.325002 0.841863 0.223620
H65   H     H_    0.396781 0.343664 0.914245 0.208421
H66   H     H_    0.608503 0.260164 0.901201 0.176824
H67   H     H_    0.754062 0.326568 0.889122 0.164198
C71   C     C_3   0.320210 0.359457 0.243301 -0.359092
C72   C     C_3   0.245552 0.397618 0.293540 -0.776654
H68   H     H_    0.147727 0.369190 0.320442 0.223502
H69   H     H_    0.360882 0.417277 0.319810 0.233969
H70   H     H_    0.169480 0.439007 0.276748 0.216738
H71   H     H_    0.406660 0.389831 0.215887 0.193119
H72   H     H_    0.194791 0.347386 0.216994 0.171997
C73   C     C_3   0.785415 0.380164 0.212346 -0.324215
C74   C     C_3   0.772468 0.435747 0.253305 -0.779169
H73   H     H_    0.623862 0.444417 0.267014 0.233378
H74   H     H_    0.860637 0.428265 0.291420 0.233797
H75   H     H_    0.825584 0.478814 0.232014 0.211078
H76   H     H_    0.924459 0.387321 0.190697 0.167302
H77   H     H_    0.677535 0.384349 0.178309 0.171388
C75   C     C_3   0.823326 0.274959 0.130155 -0.373433
C76   C     C_3   0.961487 0.229611 0.099740 -0.308814
C77   C     C_3   0.955783 0.238149 0.035517 -0.757674
H78   H     H_    0.810428 0.226950 0.019111 0.220331
H79   H     H_    0.993878 0.287106 0.024081 0.217616
H80   H     H_    0.060389 0.206046 0.015156 0.219843
H81   H     H_    0.110006 0.238700 0.114644 0.179847
H82   H     H_    0.927593 0.180088 0.109624 0.209268
H83   H     H_    0.684196 0.276487 0.107432 0.187256
H84   H     H_    0.889278 0.321503 0.124513 0.165000

loop_
_geom_bond_atom_site_label_1
_geom_bond_atom_site_label_2
_ccdc_geom_bond_type
C60   H48   S    
C30   H19   S    
C47   C48   S    
C61   C62   S    
C12   C14   S    
C44   C53   S    
C73   C74   S    
O2    C1    A    
C68   H56   S    
C1    C40   S    
C29   C34   S    
C1    O6    A    
C36   C69   S    
C66   C67   S    
C45   C51   S    
C63   C64   S    
C69   H67   S    
O13   C56   A    
C65   H50   S    
C11   C12   S    
C58   H39   S    
C36   H25   S    
C13   C14   S    
C68   H57   S    
C9    C11   S    
C71   C72   S    
C43   C47   S    
C59   H36   S    
O5    C3    A    
C33   C37   S    
C74   H73   S    
C28   C56   S    
C60   H47   S    
C25   H14   S    
C49   H30   S    
C5    H2    S    
C58   C59   S    
C5    C6    S    
C6    H1    S    
V3    O20   S    
C19   H11   S    
C17   C60   S    
C46   H33   S    
O17   V4    S    
C18   H9    S    
C64   H53   S    
C11   H5    S    
C31   C35   S    
O8    V2    S    
C72   H68   S    
C41   H32   S    
C36   C37   S    
C22   H15   S    
C73   H76   S    
C37   H21   S    
O14   V3    S    
O1    V2    S    
C32   C38   T    
C19   C23   S    
O7    V1    S    
H26   C46   S    
O18   V4    S    
C42   C73   S    
C66   H61   S    
C41   C46   S    
O13   V3    S    
C63   H54   S    
C34   C35   S    
C48   H31   S    
H17   C34   S    
O9    C4    A    
C18   H10   S    
C6    C10   S    
C44   C50   T    
C43   H28   S    
C77   H78   S    
C23   C26   S    
C37   H22   S    
O11   C54   A    
C65   H51   S    
O12   V3    S    
C5    C9    S    
C57   H40   S    
C58   H38   S    
C67   C68   S    
O16   V4    S    
C12   C16   S    
C27   C28   T    
C5    C12   S    
C75   H84   S    
C72   H70   S    
C9    C10   S    
C43   C75   S    
O19   V4    S    
C59   H37   S    
C51   C52   T    
O4    C2    A    
C45   C49   S    
C46   C47   S    
C30   C31   S    
C33   C39   S    
H3    C14   S    
C9    H6    S    
C35   C36   S    
C67   H59   S    
C10   C13   S    
C8    C16   T    
C19   H12   S    
C17   H8    S    
C62   H43   S    
O5    V1    S    
C64   H52   S    
C30   C33   S    
C23   C24   S    
C13   H4    S    
O17   V3    S    
C34   H24   S    
C75   H83   S    
C68   H58   S    
O12   C53   A    
C21   C25   S    
C73   H77   S    
C18   C21   S    
O14   C54   A    
C6    C14   S    
C76   H81   S    
O3    C4    A    
C24   C57   S    
C67   H60   S    
C66   H62   S    
C31   C66   S    
C41   C45   S    
C24   C25   S    
C41   C71   S    
O6    V2    S    
O9    V2    S    
C60   C61   S    
C71   H72   S    
C42   C43   S    
C62   H42   S    
C17   C21   S    
O15   V3    S    
V4    O20   S    
C20   C26   T    
C10   C15   S    
C24   H16   S    
C8    C55   S    
C22   C23   S    
C63   H55   S    
C57   H41   S    
C7    C15   T    
O19   C56   A    
C32   C54   S    
C69   H66   S    
O1    C2    A    
C31   H20   S    
C70   H65   S    
C29   C33   S    
C64   C65   S    
O11   V4    S    
C42   H27   S    
C77   H79   S    
O8    C3    A    
C29   H18   S    
C30   C63   S    
C65   H49   S    
C11   C13   S    
C35   C38   S    
C4    C7    S    
C70   H64   S    
O7    V2    S    
C62   H44   S    
O4    V1    S    
C3    C20   S    
O3    V1    S    
V1    O10   S    
C59   H35   S    
O15   C55   A    
C29   H23   S    
C57   C58   S    
C74   H74   S    
C61   H45   S    
C25   H13   S    
C2    C52   S    
C42   C45   S    
C53   O16   A    
C49   H29   S    
H7    C22   S    
C77   H80   S    
C61   H46   S    
C75   C76   S    
C71   H71   S    
C39   C40   T    
C70   H63   S    
C48   C49   S    
C18   C19   S    
C76   C77   S    
C47   C50   S    
C69   C70   S    
C21   C27   S    
C72   H69   S    
C76   H82   S    
O18   C55   A    
C17   C22   S    
C48   H34   S    
V2    O10   S    
C74   H75   S    
O2    V1    S    
