data_mof_unit_17956.cif
_audit_creation_date              2012-12-10T19:11:30-0500
_audit_creation_method            fapswitch 2.2
_symmetry_space_group_name_H-M    P1
_symmetry_Int_Tables_number       1
_space_group_crystal_system       triclinic
_cell_length_a                    10.613329
_cell_length_b                    9.86122
_cell_length_c                    10.547555
_cell_angle_alpha                 89.68909
_cell_angle_beta                  88.91987
_cell_angle_gamma                 89.678575
_cell_volume                      1103.68188166

loop_
_atom_site_label
_atom_site_type_symbol
_atom_type_description
_atom_site_fract_x
_atom_site_fract_y
_atom_site_fract_z
_atom_type_partial_charge
C1    C     C_R   0.258137 0.499992 0.502266 0.818977
C2    C     C_3   0.485540 0.501703 0.120737 0.014818
C3    C     C_3   0.069852 0.586469 0.615323 -0.399278
C4    C     C_3   0.072166 0.351868 0.520782 -0.404656
C5    C     C_3   0.925110 0.587080 0.614656 -0.411285
C6    C     C_3   0.929141 0.351630 0.522600 -0.379869
C7    C     C_3   0.074316 0.558005 0.376866 -0.400366
C8    C     C_3   0.121500 0.499240 0.503898 0.187049
C9    C     C_3   0.878613 0.498459 0.503980 0.178707
C10   C     C_3   0.929847 0.556083 0.376302 -0.392414
C11   C     C_3   0.370201 0.081323 0.494169 -0.290533
C12   C     C_3   0.370237 0.921739 0.515837 -0.217787
C13   C     C_3   0.588044 0.070193 0.397846 0.385135
C14   C     C_3   0.551796 0.918760 0.376263 0.343092
C15   C     C_3   0.550208 0.080737 0.618661 -0.352925
C16   C     C_3   0.569693 0.918980 0.607668 -0.406153
C17   C     C_R   0.491682 0.500520 0.257354 0.926337
C18   C     C_R   0.742016 0.499504 0.502345 0.847001
C19   C     C_R   0.501131 0.499705 0.741819 0.859635
C20   C     C_3   0.426890 0.611037 0.035789 -0.040762
C21   C     C_3   0.431138 0.388726 0.039271 -0.073729
C22   C     C_3   0.374061 0.497899 0.952537 -0.312154
C23   C     C_3   0.497050 0.499448 0.876066 -0.031661
C24   C     C_3   0.550329 0.612673 0.956195 -0.135032
C25   C     C_3   0.554820 0.389774 0.959008 -0.082738
C26   C     C_3   0.608522 0.502997 0.042269 -0.144781
H1    H     H_    0.278602 0.495753 0.911258 0.143463
H2    H     H_    0.893742 0.660973 0.360625 0.179914
H3    H     H_    0.897577 0.492795 0.296228 0.193453
H4    H     H_    0.322973 0.111663 0.406293 0.215793
H5    H     H_    0.298583 0.874187 0.457152 0.213261
H6    H     H_    0.310947 0.128531 0.570256 0.152723
H7    H     H_    0.334337 0.899488 0.613739 0.137246
H8    H     H_    0.641156 0.129756 0.641476 0.166698
H9    H     H_    0.671713 0.893863 0.597793 0.151427
H10   H     H_    0.486060 0.104441 0.700517 0.190434
H11   H     H_    0.537219 0.870481 0.697724 0.209878
H12   H     H_    0.682879 0.061455 0.441678 0.031995
H13   H     H_    0.638921 0.860532 0.351812 0.089895
H14   H     H_    0.366014 0.699518 0.055167 0.212999
H15   H     H_    0.375470 0.300998 0.074732 0.202236
H16   H     H_    0.599552 0.703766 0.918298 0.165446
H17   H     H_    0.608082 0.301678 0.920170 0.138901
H18   H     H_    0.704553 0.505077 0.082230 0.152281
H19   H     H_    0.104395 0.692595 0.606779 0.174862
H20   H     H_    0.107070 0.286650 0.441468 0.187645
H21   H     H_    0.103231 0.544853 0.707185 0.153480
H22   H     H_    0.106558 0.306971 0.610988 0.168996
H23   H     H_    0.887609 0.547450 0.706851 0.154885
H24   H     H_    0.893774 0.309039 0.614529 0.159659
H25   H     H_    0.890807 0.693393 0.604237 0.179971
H26   H     H_    0.896794 0.283918 0.445975 0.229802
H27   H     H_    0.107468 0.664126 0.363744 0.189300
H28   H     H_    0.112505 0.497389 0.295921 0.164494
N1    N     N_3   0.499750 0.138610 0.497240 -0.100971
N2    N     N_3   0.499750 0.861390 0.497240 -0.111864
O1    O     O_R   0.314910 0.616040 0.499970 -0.609160
O2    O     O_R   0.314910 0.383960 0.499970 -0.648935
O3    O     O_R   0.500080 0.616020 0.313900 -0.541373
O4    O     O_R   0.500080 0.383980 0.313900 -0.533715
O5    O     O_R   0.685320 0.616040 0.499930 -0.652200
O6    O     O_R   0.685320 0.383960 0.499930 -0.592866
O7    O     O_R   0.500150 0.616060 0.686000 -0.635806
O8    O     O_R   0.500150 0.383940 0.686000 -0.638667
Zn1   Zn    Zn3+2 0.500150 0.654960 0.499940 0.958291
Zn2   Zn    Zn3+2 0.500150 0.345040 0.499940 0.978017
S1    S     S_3+6 0.658718 0.148984 0.257452 0.043371
O9    O     O_2   0.721917 0.280996 0.283177 -0.322199
O10   O     O_2   0.760828 0.053143 0.212417 -0.361088
O11   O     O_3   0.560032 0.170213 0.137952 -0.508627
H29   H     H_    0.595855 0.116815 0.066501 0.385115
S2    S     S_3+6 0.446856 0.900989 0.240113 0.007946
O12   O     O_2   0.378234 0.030230 0.209559 -0.334469
O13   O     O_2   0.528359 0.864355 0.127500 -0.320994
O14   O     O_3   0.334611 0.782540 0.262072 -0.602649
H30   H     H_    0.256808 0.820833 0.225319 0.347076

loop_
_geom_bond_atom_site_label_1
_geom_bond_atom_site_label_2
_ccdc_geom_bond_type
C7    C10   S    
C14   N2    S    
O7    Zn1   S    
C1    C8    S    
C24   H16   S    
C4    C8    S    
C25   H17   S    
C6    C9    S    
C26   H18   S    
C7    C8    S    
C4    H20   S    
C24   C26   S    
C16   H9    S    
C13   S1    S    
C20   H14   S    
C15   C16   S    
C14   H13   S    
O2    Zn2   S    
C20   C24   S    
C11   H4    S    
C19   O7    A    
C23   C24   S    
O11   H29   S    
C9    C10   S    
C15   H8    S    
C16   H11   S    
O4    Zn2   S    
C21   C22   S    
C2    C17   S    
C5    H23   S    
S2    O14   S    
O6    Zn2   S    
C2    C20   S    
S1    O9    D    
C4    C6    S    
C3    C8    S    
C18   O6    A    
C25   C26   S    
C3    H19   S    
S1    O10   D    
O8    Zn2   S    
C19   C23   S    
O14   H30   S    
C16   N2    S    
C5    C9    S    
C1    O1    A    
C19   O8    A    
C2    C21   S    
C2    C26   S    
C6    H24   S    
C13   H12   S    
C12   N2    S    
C17   O3    A    
C21   H15   S    
S2    O13   D    
C20   C22   S    
C11   H6    S    
C22   H1    S    
C12   H5    S    
C7    H27   S    
C15   H10   S    
N1    Zn2   S    
C11   N1    S    
C4    H22   S    
C10   H2    S    
C21   C25   S    
C14   S2    S    
O1    Zn1   S    
S2    O12   D    
C3    C5    S    
C11   C12   S    
C18   O5    A    
S1    O11   S    
C1    O2    A    
O3    Zn1   S    
C10   H3    S    
C3    H21   S    
C23   C25   S    
C17   O4    A    
O5    Zn1   S    
C9    C18   S    
C22   C23   S    
C5    H25   S    
C7    H28   S    
C6    H26   S    
C12   H7    S    
C13   C14   S    
N2    Zn1   S    
C15   N1    S    
C13   N1    S    
