data_mof_unit_65490.cif
_audit_creation_date              2012-12-10T16:57:20-0500
_audit_creation_method            fapswitch 2.2
_symmetry_space_group_name_H-M    P1
_symmetry_Int_Tables_number       1
_space_group_crystal_system       triclinic
_cell_length_a                    21.77459
_cell_length_b                    21.782176
_cell_length_c                    22.042385
_cell_angle_alpha                 60.811592
_cell_angle_beta                  118.897562
_cell_angle_gamma                 89.140196
_cell_volume                      7548.6783229

loop_
_atom_site_label
_atom_site_type_symbol
_atom_type_description
_atom_site_fract_x
_atom_site_fract_y
_atom_site_fract_z
_atom_type_partial_charge
C1    C     C_R   0.618005 0.500996 0.497784 0.976805
C2    C     C_2   0.816985 0.485881 0.503212 -0.428192
C3    C     C_2   0.692659 0.480434 0.451795 -0.281305
C4    C     C_R   0.418617 0.581324 0.337362 0.891946
C5    C     C_2   0.679226 0.507136 0.488843 -0.405339
C6    C     C_3   0.726723 0.191875 0.027137 0.043436
C7    C     C_3   0.679169 0.274461 0.972012 -0.232668
C8    C     C_1   0.625959 0.373919 0.751610 -0.142752
C9    C     C_1   0.874648 0.125150 0.248495 -0.148432
C10   C     C_3   0.756103 0.207971 0.971507 -0.236525
C11   C     C_3   0.709617 0.290568 0.917546 0.121484
C12   C     C_3   0.291111 0.708216 0.082636 0.073962
C13   C     C_3   0.822059 0.223179 0.028244 -0.237558
C14   C     C_3   0.791590 0.207134 0.082663 0.122568
C15   C     C_3   0.774518 0.305766 0.973140 0.039815
C16   C     C_R   0.381038 0.500794 0.499911 0.805914
C17   C     C_3   0.745104 0.289687 0.028705 -0.223151
C18   C     C_1   0.663754 0.336143 0.826633 0.027369
C19   C     C_1   0.837205 0.162205 0.173512 0.022646
C20   C     C_2   0.250568 0.445205 0.565456 -0.115835
C21   C     C_2   0.182117 0.486076 0.496510 -0.218976
C22   C     C_2   0.312965 0.443522 0.557138 -0.256665
C23   C     C_3   0.228787 0.704698 0.972842 -0.191327
C24   C     C_2   0.314522 0.504815 0.498948 0.338903
C25   C     C_R   0.999066 0.882587 0.496699 0.819674
C26   C     C_R   0.081237 0.918309 0.662689 0.912290
C27   C     C_R   0.997851 0.120740 0.496642 0.953285
C28   C     C_R   0.581285 0.418608 0.662667 0.904554
C29   C     C_R   0.918815 0.081098 0.337365 0.895919
C30   C     C_R   0.995527 0.618961 0.500039 0.944668
C31   C     C_R   0.881087 0.496443 0.500349 0.956256
C32   C     C_R   0.003855 0.380759 0.500265 0.987206
C33   C     C_R   0.118740 0.496522 0.499605 0.957297
C34   C     C_3   0.208245 0.789881 0.917628 0.136678
C35   C     C_2   0.008589 0.685688 0.566995 0.571250
C36   C     C_2   0.979916 0.684583 0.498374 -0.336254
C37   C     C_2   0.992266 0.760059 0.550905 -0.422123
C38   C     C_2   0.002519 0.816119 0.496971 0.306314
C39   C     C_2   0.019072 0.308189 0.447456 -0.004036
C40   C     C_3   0.288449 0.784272 0.972211 0.489561
C41   C     C_2   0.013028 0.313514 0.502937 -0.412691
C42   C     C_2   0.024840 0.236599 0.456421 -0.174609
C43   C     C_2   0.990211 0.192194 0.485173 -0.354483
C44   C     C_3   0.269983 0.793221 0.026850 -0.071126
C45   C     C_3   0.210323 0.712960 0.028835 -0.148595
C46   C     C_1   0.374090 0.625599 0.248481 -0.162308
C47   C     C_1   0.125554 0.873250 0.751675 -0.176761
C48   C     C_3   0.310506 0.698769 0.028244 -0.302650
C49   C     C_2   0.292120 0.844025 0.055183 0.899778
C50   C     C_2   0.698777 0.128087 0.056162 0.889639
C51   C     C_2   0.802694 0.369439 0.944489 0.900742
C52   C     C_3   0.402162 0.796823 0.998833 0.067604
C53   C     C_3   0.438542 0.852787 0.967258 -0.278676
C54   C     C_3   0.522440 0.823740 0.031008 -0.965808
C55   C     C_3   0.235983 0.615607 0.367596 0.068273
C56   C     C_3   0.188808 0.798962 0.971923 -0.267985
C57   C     C_3   0.250225 0.690214 0.340761 -0.310181
C58   C     C_3   0.220435 0.736715 0.247534 -0.925022
C59   C     C_3   0.085394 0.627876 0.714431 0.096042
C60   C     C_3   0.153689 0.652741 0.726108 -0.336608
C61   C     C_3   0.186428 0.664484 0.796933 -0.966195
C62   C     C_3   0.004910 0.866046 0.376777 0.089111
C63   C     C_3   0.923572 0.880096 0.313189 -0.427439
C64   C     C_3   0.894510 0.948906 0.225916 -0.879882
C65   C     C_2   0.027585 0.368059 0.382922 0.945446
C66   C     C_3   0.682011 0.563737 0.293986 0.105001
C67   C     C_1   0.336505 0.662787 0.173494 0.011550
C68   C     C_3   0.628763 0.532806 0.249009 -0.328726
C69   C     C_3   0.557817 0.594787 0.167217 -0.989519
C70   C     C_1   0.163001 0.835357 0.826719 0.004090
C71   C     C_2   0.753210 0.493396 0.439655 0.522932
H1    H     H_    0.709923 0.541164 0.505992 0.158858
H2    H     H_    0.975315 0.768142 0.586151 0.134829
H3    H     H_    0.019139 0.264257 0.556871 0.160537
H4    H     H_    0.057094 0.220853 0.437941 0.188537
H5    H     H_    0.952109 0.210290 0.496180 0.163106
H6    H     H_    0.138490 0.840314 0.947693 0.167418
H7    H     H_    0.178915 0.682588 0.053875 0.149883
H8    H     H_    0.210547 0.669291 0.948986 0.155052
H9    H     H_    0.360727 0.657141 0.052694 0.147869
H10   H     H_    0.824070 0.467301 0.562504 0.135352
H11   H     H_    0.657434 0.452867 0.426942 0.178691
H12   H     H_    0.620100 0.295595 0.947977 0.161612
H13   H     H_    0.347131 0.854893 0.151825 0.345649
H14   H     H_    0.708154 0.035233 0.153435 0.345221
H15   H     H_    0.793062 0.462904 0.847601 0.347702
H16   H     H_    0.426192 0.743921 0.010191 0.148947
H17   H     H_    0.414725 0.786291 0.059153 0.138284
H18   H     H_    0.426775 0.864033 0.907122 0.230358
H19   H     H_    0.414662 0.905914 0.955505 0.243467
H20   H     H_    0.535590 0.811904 0.091805 0.269086
H21   H     H_    0.546887 0.866309 0.006925 0.276095
H22   H     H_    0.547827 0.772142 0.041268 0.260530
H23   H     H_    0.741468 0.322730 0.053157 0.165563
H24   H     H_    0.175020 0.626913 0.331199 0.154390
H25   H     H_    0.259040 0.586027 0.349804 0.099543
H26   H     H_    0.222748 0.721768 0.353201 0.227438
H27   H     H_    0.310739 0.680568 0.377811 0.248275
H28   H     H_    0.248052 0.706728 0.233887 0.272306
H29   H     H_    0.231757 0.790284 0.230126 0.277915
H30   H     H_    0.159526 0.748736 0.208757 0.257130
H31   H     H_    0.104577 0.572371 0.772539 0.166796
H32   H     H_    0.044508 0.664134 0.709570 0.122991
H33   H     H_    0.196478 0.609505 0.741157 0.233182
H34   H     H_    0.881139 0.201984 0.052350 0.162478
H35   H     H_    0.138903 0.705508 0.667577 0.238568
H36   H     H_    0.144958 0.708792 0.782103 0.261552
H37   H     H_    0.235938 0.681827 0.804454 0.277407
H38   H     H_    0.203548 0.612054 0.857087 0.261897
H39   H     H_    0.038807 0.853839 0.356747 0.173430
H40   H     H_    0.012176 0.917348 0.374224 0.154211
H41   H     H_    0.919178 0.831236 0.309290 0.233019
H42   H     H_    0.888135 0.888460 0.333404 0.222331
H43   H     H_    0.896225 0.999185 0.227256 0.271842
H44   H     H_    0.836142 0.956996 0.181065 0.280901
H45   H     H_    0.759747 0.174903 0.947086 0.162204
H46   H     H_    0.928465 0.941998 0.203546 0.253339
H47   H     H_    0.067362 0.453395 0.349895 0.335161
H48   H     H_    0.697917 0.602508 0.252377 0.163776
H49   H     H_    0.653037 0.598039 0.303027 0.125573
H50   H     H_    0.656638 0.503653 0.234808 0.236449
H51   H     H_    0.613693 0.491989 0.290149 0.215033
H52   H     H_    0.528682 0.624522 0.179877 0.262042
H53   H     H_    0.520079 0.570577 0.136603 0.269495
H54   H     H_    0.571112 0.635032 0.123559 0.264985
H55   H     H_    0.261091 0.413243 0.627710 0.167037
H56   H     H_    0.171505 0.511623 0.434533 0.162370
H57   H     H_    0.359841 0.392162 0.601978 0.133809
H58   H     H_    0.941267 0.735098 0.436574 0.128431
O1    O     O_R   0.590490 0.448940 0.499990 -0.615382
O2    O     O_R   0.034710 0.555670 0.569560 -0.558478
O3    O     O_R   0.874770 0.534770 0.430450 -0.585770
O4    O     O_R   0.590420 0.551070 0.499980 -0.621250
O5    O     O_R   0.944330 0.465210 0.569580 -0.632745
O6    O     O_R   0.965290 0.444330 0.430440 -0.585696
O7    O     O_R   0.034850 0.374760 0.569570 -0.630562
O8    O     O_R   0.055670 0.534790 0.430420 -0.611235
O9    O     O_R   0.125230 0.465230 0.569550 -0.628487
O10   O     O_R   0.438430 0.510550 0.376780 -0.622867
O11   O     O_R   0.438360 0.612680 0.376770 -0.606402
O12   O     O_R   0.948920 0.909510 0.500030 -0.636475
O13   O     O_R   0.409580 0.448930 0.500020 -0.640765
O14   O     O_R   0.409510 0.551060 0.500010 -0.607123
O15   O     O_R   0.561640 0.387320 0.623230 -0.617615
O16   O     O_R   0.561570 0.489450 0.623220 -0.602813
O17   O     O_R   0.051050 0.909420 0.500010 -0.615377
O18   O     O_2   0.271503 0.910859 0.002887 -0.601814
O19   O     O_R   0.336031 0.814993 0.140832 -0.813846
O20   O     O_2   0.646933 0.122345 0.004308 -0.622193
O21   O     O_R   0.731773 0.075709 0.141939 -0.815839
O22   O     O_2   0.855338 0.374258 0.996604 -0.610027
O23   O     O_R   0.112670 0.938280 0.623210 -0.602926
O24   O     O_R   0.768936 0.422829 0.858779 -0.806447
O25   O     O_3   0.325056 0.825940 0.937072 -0.627585
O26   O     O_3   0.263180 0.574417 0.454162 -0.628380
O27   O     O_3   0.053086 0.619126 0.647085 -0.625514
O28   O     O_3   0.032875 0.803378 0.459172 -0.639155
O29   O     O_2   0.004899 0.373355 0.317277 -0.616861
O30   O     O_R   0.064454 0.415908 0.398354 -0.815519
O31   O     O_3   0.747861 0.505266 0.369009 -0.621673
O32   O     O_R   0.010540 0.938370 0.623230 -0.619363
O33   O     O_R   0.051080 0.090340 0.499970 -0.613792
O34   O     O_R   0.948950 0.090430 0.499990 -0.621124
O35   O     O_R   0.989460 0.061480 0.376770 -0.628822
O36   O     O_R   0.887330 0.061570 0.376790 -0.602818
O37   O     O_R   0.965150 0.625240 0.430430 -0.644878
Zn1   Zn    Zn3+2 0.500050 0.431810 0.500010 0.967424
Zn2   Zn    Zn3+2 0.499950 0.568190 0.499990 0.984738
Zn3   Zn    Zn3+2 0.068190 0.999870 0.499990 0.980728
Zn4   Zn    Zn3+2 0.931810 0.999990 0.500010 0.975650
Zn5   Zn    Zn3+2 0.953560 0.546450 0.407100 0.997448
Zn6   Zn    Zn3+2 0.046440 0.453550 0.592900 1.002075

loop_
_geom_bond_atom_site_label_1
_geom_bond_atom_site_label_2
_ccdc_geom_bond_type
C44   C49   S    
O11   Zn2   S    
C66   C68   S    
C11   C18   S    
C34   C56   S    
C23   C45   S    
C6    C7    S    
C7    H12   S    
C35   C36   D    
C14   C17   S    
C65   O30   S    
C61   H38   S    
C66   O31   S    
C54   H21   S    
H47   O30   S    
C60   H35   S    
C39   C41   D    
C4    C46   S    
C53   C54   S    
C7    C11   S    
C71   O31   S    
C42   H4    S    
C37   C38   D    
C1    C5    S    
C35   C37   S    
H15   O24   S    
C5    H1    S    
C27   O33   A    
C21   C33   S    
C69   H52   S    
C52   O25   S    
C30   O2    A    
O36   Zn4   S    
C49   O18   D    
C40   C48   S    
C29   O36   A    
C63   H41   S    
C61   H37   S    
O34   Zn4   S    
C50   O21   S    
H14   O21   S    
C54   H22   S    
C27   O34   A    
C41   H3    S    
C11   C15   S    
O1    Zn1   S    
C9    C19   T    
C62   H40   S    
O7    Zn6   S    
C45   C56   S    
C33   O8    A    
C68   C69   S    
C7    C17   S    
C32   C41   S    
C25   O17   A    
C28   O15   A    
O3    Zn5   S    
O6    Zn5   S    
C21   H56   S    
C34   C70   S    
C24   O26   S    
C12   C48   S    
O13   Zn1   S    
C51   O22   D    
C59   C60   S    
C16   C24   S    
C64   H44   S    
O5    Zn6   S    
C13   C14   S    
C39   C65   S    
C29   O35   A    
C40   O25   S    
O35   Zn3   S    
C3    H11   S    
C31   O5    A    
C1    O4    A    
C39   C42   S    
H13   O19   S    
C12   C67   S    
O2    Zn6   S    
C64   H43   S    
O15   Zn1   S    
O9    Zn6   S    
C52   H17   S    
C16   O14   A    
C58   H29   S    
C35   O27   S    
C30   O37   A    
C55   H24   S    
C1    O1    A    
C55   O26   S    
O4    Zn2   S    
C68   H51   S    
C32   O7    A    
C12   C45   S    
C69   H53   S    
C8    C18   T    
C56   H6    S    
C49   O19   S    
C46   C67   T    
C60   C61   S    
C16   O13   A    
C47   C70   T    
C20   H55   S    
C31   O3    A    
C25   C38   S    
C4    O11   A    
C44   C56   S    
C22   H57   S    
C62   H39   S    
C40   C44   S    
C33   O9    A    
C23   C34   S    
C57   H26   S    
C62   C63   S    
C28   O16   A    
C62   O28   S    
C58   H30   S    
C6    C50   S    
O10   Zn1   S    
C45   H7    S    
C26   C47   S    
O32   Zn4   S    
C13   H34   S    
C20   C22   S    
C15   C51   S    
C66   H48   S    
C13   C15   S    
C53   H18   S    
C8    C28   S    
C34   C40   S    
C42   C43   D    
C2    C71   D    
C10   H45   S    
C52   C53   S    
C43   H5    S    
C15   C17   S    
C37   H2    S    
C51   O24   S    
C23   C48   S    
C59   H31   S    
C14   C19   S    
C52   H16   S    
C25   O12   A    
C58   H28   S    
C38   O28   S    
C55   H25   S    
C3    C5    D    
C10   C13   S    
C68   H50   S    
C6    C10   S    
C32   O6    A    
C59   O27   S    
C3    C71   S    
C9    C29   S    
C26   O32   A    
C30   C36   S    
C59   H32   S    
C48   H9    S    
C55   C57   S    
C54   H20   S    
C6    C14   S    
C36   H58   S    
C4    O10   A    
O23   Zn3   S    
C50   O20   D    
C57   C58   S    
O33   Zn3   S    
C57   H27   S    
C26   O23   A    
O12   Zn4   S    
C22   C24   D    
C61   H36   S    
O14   Zn2   S    
O8    Zn5   S    
C10   C11   S    
C64   H46   S    
C69   H54   S    
C63   C64   S    
C63   H42   S    
C27   C43   S    
O37   Zn5   S    
C20   C21   D    
C12   C44   S    
O17   Zn3   S    
C53   H19   S    
C2    C31   S    
C2    H10   S    
C66   H49   S    
C17   H23   S    
C23   H8    S    
C60   H33   S    
C65   O29   D    
O16   Zn2   S    
