data_mof_unit_5742.cif
_audit_creation_date              2012-12-11T15:58:41-0500
_audit_creation_method            fapswitch 2.2
_symmetry_space_group_name_H-M    P1
_symmetry_Int_Tables_number       1
_space_group_crystal_system       triclinic
_cell_length_a                    8.565865
_cell_length_b                    18.820405
_cell_length_c                    19.052429
_cell_angle_alpha                 99.419495
_cell_angle_beta                  94.913122
_cell_angle_gamma                 91.626109
_cell_volume                      3016.14279285

loop_
_atom_site_label
_atom_site_type_symbol
_atom_type_description
_atom_site_fract_x
_atom_site_fract_y
_atom_site_fract_z
_atom_type_partial_charge
Ba1   Ba    Ba6+2 0.152460 0.535140 0.468980 1.618058
Ba2   Ba    Ba6+2 0.657710 0.464850 0.530960 1.615093
C1    C     C_3   0.444352 0.786551 0.251859 -0.360269
C2    C     C_3   0.411921 0.726114 0.293972 0.477770
C3    C     C_3   0.505473 0.700672 0.690616 0.340566
C4    C     C_3   0.522452 0.768740 0.750932 -0.171740
C5    C     C_3   0.907183 0.250810 0.710017 0.500904
C6    C     C_3   0.956426 0.225012 0.781817 -0.081455
C7    C     C_3   0.416301 0.280247 0.712749 0.453017
C8    C     C_3   0.385000 0.216847 0.751612 -0.372231
C9    C     C_R   0.000036 0.949194 0.528096 -0.017753
C10   C     C_R   0.086993 0.901639 0.563547 0.017996
C11   C     C_R   0.243503 0.919283 0.587384 -0.097120
C12   C     C_3   0.859744 0.717748 0.263154 0.374635
C13   C     C_R   0.312289 0.985827 0.582747 0.122788
C14   C     C_R   0.221741 0.038557 0.553181 0.031462
C15   C     C_R   0.064477 0.019183 0.525383 -0.031896
C16   C     C_R   0.282668 0.109162 0.550446 0.095202
C17   C     C_R   0.184436 0.162617 0.526913 -0.032673
C18   C     C_R   0.028754 0.141326 0.496523 -0.021340
C19   C     C_R   0.970896 0.069165 0.495113 -0.003548
C20   C     C_R   0.235003 0.236844 0.532583 -0.001117
C21   C     C_R   0.134107 0.285145 0.503619 -0.307754
C22   C     C_R   0.982059 0.265387 0.471891 0.037095
C23   C     C_3   0.878351 0.761034 0.202961 -0.355322
C24   C     C_R   0.930010 0.191566 0.467016 -0.048945
C25   C     C_R   0.846571 0.927513 0.498342 -0.000983
C26   C     C_R   0.786382 0.856197 0.499265 -0.028079
C27   C     C_R   0.878338 0.808008 0.534160 -0.057530
C28   C     C_R   0.015511 0.837367 0.576386 0.180814
C29   C     C_R   0.782164 0.165931 0.432745 -0.064781
C30   C     C_R   0.724859 0.095210 0.431783 0.027961
C31   C     C_R   0.817343 0.046952 0.464400 0.013606
C32   C     C_R   0.755761 0.976253 0.465785 0.024424
C33   C     C_R   0.573909 0.072450 0.399644 -0.095026
C34   C     C_3   0.719739 0.326558 0.299431 0.365213
C35   C     C_R   0.512875 0.003150 0.401905 -0.102954
C36   C     C_R   0.602385 0.954685 0.435266 0.035253
C37   C     C_R   0.632843 0.834336 0.467718 -0.048253
C38   C     C_R   0.540997 0.885027 0.437878 -0.127671
C39   C     C_R   0.579681 0.761547 0.463798 -0.007068
C40   C     C_R   0.686939 0.711078 0.484159 -0.219244
C41   C     C_R   0.830584 0.733119 0.525243 0.072169
C42   C     C_R   0.609480 0.520998 0.298823 -0.257424
C43   C     C_R   0.458613 0.492399 0.276310 0.068203
C44   C     C_R   0.400128 0.489598 0.204764 -0.130572
C45   C     C_3   0.652532 0.248718 0.270687 -0.176357
C46   C     C_R   0.491253 0.517543 0.156275 0.011444
C47   C     C_R   0.640354 0.550426 0.181891 -0.118709
C48   C     C_R   0.698613 0.552572 0.253398 -0.006266
C49   C     C_R   0.464589 0.563150 0.038424 -0.072818
C50   C     C_R   0.418004 0.553256 0.964981 -0.086006
C51   C     C_R   0.340641 0.488549 0.929665 0.067954
C52   C     C_R   0.308602 0.434618 0.970127 -0.078244
C53   C     C_R   0.355415 0.444448 0.043527 -0.083089
C54   C     C_R   0.435056 0.508671 0.078668 0.061270
C55   C     C_R   0.149011 0.444191 0.821900 -0.168878
C56   C     C_3   0.053803 0.640329 0.703911 0.384453
C57   C     C_R   0.108291 0.430248 0.747639 0.026851
C58   C     C_R   0.353384 0.493417 0.731099 0.087842
C59   C     C_R   0.396621 0.502060 0.804604 -0.155184
C60   C     C_R   0.296483 0.476495 0.850843 0.012407
C61   C     C_R   0.216999 0.452230 0.702363 -0.039544
C62   C     C_3   0.051108 0.675753 0.784705 -0.008350
C63   C     C_3   0.260558 0.312805 0.346290 0.448137
C64   C     C_3   0.163515 0.252786 0.295874 -0.322005
H1    H     H_    0.583804 0.230435 0.311342 0.108697
H2    H     H_    0.750657 0.211646 0.262527 0.102414
H3    H     H_    0.173134 0.636583 0.688035 0.076780
H4    H     H_    0.927779 0.687638 0.794262 0.095528
H5    H     H_    0.179028 0.345871 0.379013 0.032746
H6    H     H_    0.332461 0.806884 0.230585 0.113573
H7    H     H_    0.085929 0.276303 0.256760 0.124257
H8    H     H_    0.089902 0.221817 0.326580 0.056998
H9    H     H_    0.241654 0.215162 0.266021 0.100042
H10   H     H_    0.527438 0.711377 0.317243 -0.049015
H11   H     H_    0.513102 0.766387 0.206425 0.080906
H12   H     H_    0.559070 0.751832 0.802949 0.116046
H13   H     H_    0.407380 0.793292 0.755469 0.091096
H14   H     H_    0.512461 0.831838 0.286891 0.085938
H15   H     H_    0.795059 0.805367 0.205760 0.072243
H16   H     H_    0.851535 0.203652 0.803591 0.080946
H17   H     H_    0.037229 0.179867 0.772896 0.073320
H18   H     H_    0.305274 0.301103 0.693511 0.016421
H19   H     H_    0.323998 0.234417 0.799930 0.106776
H20   H     H_    0.497333 0.194222 0.769060 0.106547
H21   H     H_    0.313621 0.173187 0.715993 0.082061
H22   H     H_    0.316119 0.880575 0.609382 0.080062
H23   H     H_    0.177278 0.339598 0.503672 0.068805
H24   H     H_    0.708110 0.200850 0.407258 0.096541
H25   H     H_    0.501272 0.108954 0.374250 0.070985
H26   H     H_    0.395041 0.987625 0.377872 0.072856
H27   H     H_    0.422455 0.870538 0.414836 0.104782
H28   H     H_    0.737695 0.694871 0.255411 -0.031993
H29   H     H_    0.504801 0.531984 0.825922 0.078558
H30   H     H_    0.441779 0.596645 0.935956 0.057337
H31   H     H_    0.523189 0.613724 0.063825 0.061056
H32   H     H_    0.285500 0.464230 0.186765 0.089208
H33   H     H_    0.250861 0.383899 0.944585 0.080622
H34   H     H_    0.332948 0.400759 0.072371 0.059288
H35   H     H_    0.063888 0.432303 0.857516 0.067084
H36   H     H_    0.714124 0.571302 0.145910 0.060942
H37   H     H_    0.999933 0.784473 0.206617 0.119055
H38   H     H_    0.661853 0.514311 0.350740 0.049530
H39   H     H_    0.853611 0.725191 0.150496 0.099363
H40   H     H_    0.635932 0.358280 0.331545 0.064760
O1    O     O_2   0.118870 0.674530 0.547560 -0.448268
O2    O     O_3   0.342424 0.352366 0.304361 -0.647527
O3    O     O_3   0.971494 0.664211 0.258676 -0.575580
O4    O     O_2   0.691430 0.325420 0.452420 -0.473944
O5    O     O_3   0.939830 0.414660 0.457830 -0.472375
O6    O     O_3   0.456020 0.368240 0.581510 -0.444074
O7    O     O_3   0.864340 0.322547 0.338871 -0.656658
O8    O     O_3   0.374170 0.535780 0.585810 -0.469562
O9    O     O_3   0.871300 0.403980 0.619270 -0.462983
O10   O     O_2   0.791831 0.452136 0.746312 -0.491975
O11   O     O_3   0.816714 0.313484 0.722872 -0.568307
O12   O     O_3   0.870460 0.585330 0.542110 -0.523109
O13   O     O_3   0.436130 0.464210 0.414140 -0.495665
O14   O     O_2   0.629420 0.533310 0.672080 -0.474610
O15   O     O_3   0.439673 0.643230 0.720472 -0.670881
O16   O     O_2   0.557975 0.246810 0.524485 -0.458140
O17   O     O_3   0.510178 0.256443 0.657074 -0.572816
O18   O     O_3   0.354280 0.631750 0.418430 -0.479067
O19   O     O_2   0.253729 0.758387 0.478904 -0.472127
O20   O     O_3   0.968084 0.684338 0.662551 -0.645179
O21   O     O_3   0.308499 0.750545 0.345800 -0.589037
O22   O     O_2   0.180880 0.466650 0.327890 -0.437904
O23   O     O_3   0.939000 0.596010 0.380670 -0.479600
O24   O     O_2   0.010454 0.529544 0.253733 -0.468971
P1    P     P_3+3 0.947550 0.663200 0.567530 0.974290
P2    P     P_3+3 0.354660 0.445020 0.336980 0.977454
P3    P     P_3+3 0.900343 0.586399 0.287063 0.960145
P4    P     P_3+3 0.862750 0.336790 0.432410 0.973746
P5    P     P_3+3 0.903444 0.397148 0.710273 0.961891
P6    P     P_3+3 0.374719 0.726643 0.428069 0.952879
P7    P     P_3+3 0.450576 0.552096 0.676624 0.938211
P8    P     P_3+3 0.433198 0.276009 0.574263 0.974957
N1    N     N_3   0.341170 0.663110 0.245384 -0.505023
H41   H     H_    0.303575 0.625739 0.275967 0.210564
H42   H     H_    0.241293 0.678213 0.216891 0.212075
C65   C     C_3   0.545955 0.238928 0.200596 -0.466165
H43   H     H_    0.454247 0.279281 0.202578 0.169819
H44   H     H_    0.615810 0.243532 0.154961 0.128640
H45   H     H_    0.487675 0.184301 0.190715 0.123874
N2    N     N_3   0.982510 0.567985 0.695285 -0.540983
H46   H     H_    0.957694 0.545448 0.642302 0.213104
H47   H     H_    0.878553 0.570611 0.719544 0.208922
C66   C     C_3   0.144442 0.747447 0.805675 -0.405830
H48   H     H_    0.268736 0.737887 0.820742 0.132491
H49   H     H_    0.135021 0.779618 0.762511 0.133055
H50   H     H_    0.098526 0.779473 0.853243 0.105710
C67   C     C_3   0.104566 0.626412 0.837796 -0.445210
H51   H     H_    0.028836 0.576605 0.830294 0.134889
H52   H     H_    0.228009 0.613462 0.831629 0.137480
H53   H     H_    0.096928 0.654061 0.893524 0.125530
N3    N     N_3   0.375887 0.281685 0.391532 -0.488253
H54   H     H_    0.403111 0.319837 0.437454 0.203383
H55   H     H_    0.330172 0.234659 0.405873 0.128399
C68   C     C_3   0.661637 0.682831 0.665610 -0.196368
H56   H     H_    0.731409 0.666172 0.710792 0.108948
H57   H     H_    0.651203 0.639658 0.618313 0.082133
H58   H     H_    0.715258 0.730467 0.648611 0.042177
C69   C     C_3   0.400360 0.717721 0.627755 -0.284828
H59   H     H_    0.449667 0.763993 0.606169 0.041763
H60   H     H_    0.389184 0.670681 0.584095 0.135510
H61   H     H_    0.285655 0.732444 0.646300 0.144513
C70   C     C_3   0.635550 0.830660 0.741718 -0.498179
H62   H     H_    0.758993 0.815457 0.750725 0.136343
H63   H     H_    0.613745 0.846172 0.688085 0.126772
H64   H     H_    0.618373 0.878601 0.782351 0.132661
C71   C     C_3   0.804762 0.188739 0.663893 -0.293872
H65   H     H_    0.873413 0.139637 0.651912 0.037831
H66   H     H_    0.704616 0.173667 0.692271 0.115965
H67   H     H_    0.762045 0.204033 0.612132 0.171768
N4    N     N_3   0.043302 0.262467 0.671921 -0.546104
H68   H     H_    0.002695 0.274971 0.622435 0.150012
H69   H     H_    0.099291 0.213902 0.660819 0.121788
N5    N     N_3   0.031729 0.281884 0.836202 -0.505485
H70   H     H_    0.949026 0.320065 0.850680 0.190027
H71   H     H_    0.122421 0.306352 0.814506 0.179043
N6    N     N_3   0.497048 0.339313 0.763145 -0.503850
H72   H     H_    0.540950 0.376388 0.733862 0.230002
H73   H     H_    0.591582 0.320259 0.792018 0.207458
C72   C     C_3   0.886890 0.767458 0.335408 -0.304363
H74   H     H_    0.877017 0.735723 0.378931 0.100896
H75   H     H_    0.005644 0.794284 0.342294 0.151226
H76   H     H_    0.797935 0.809340 0.339655 0.050282
N7    N     N_3   0.472874 0.998601 0.611294 -0.532123
H77   H     H_    0.539863 0.958569 0.585360 0.180089
H78   H     H_    0.480402 0.994166 0.665480 0.165709
N8    N     N_3   0.445872 0.126042 0.568982 -0.463186
H79   H     H_    0.512464 0.090401 0.537461 0.206672
H80   H     H_    0.472684 0.124760 0.623127 0.209640
N9    N     N_3   0.058125 0.812385 0.642115 -0.475368
H81   H     H_    0.959278 0.817534 0.670824 0.163226
H82   H     H_    0.142070 0.846716 0.674800 0.134545
C73   C     C_3   0.649156 0.633556 0.454786 -0.265039
H83   H     H_    0.744451 0.599723 0.445507 0.157747
H84   H     H_    0.573239 0.608604 0.489236 0.136828
H85   H     H_    0.605818 0.630220 0.398198 0.041065
N10   N     N_3   0.193915 0.431349 0.626894 -0.455813
H86   H     H_    0.112415 0.463027 0.604643 0.197297
H87   H     H_    0.154281 0.377802 0.617131 0.135316
C74   C     C_3   0.755514 0.366599 0.238444 -0.349480
H88   H     H_    0.823215 0.417444 0.260661 0.127459
H89   H     H_    0.828586 0.333870 0.201006 0.109888
H90   H     H_    0.646066 0.379659 0.208605 0.062227

loop_
_geom_bond_atom_site_label_1
_geom_bond_atom_site_label_2
_ccdc_geom_bond_type
C49   H31   S    
C12   O3    S    
C53   C54   A    
C8    H19   S    
N3    H54   S    
C61   N10   S    
C6    H17   S    
N1    H42   S    
C39   C40   A    
C5    O11   S    
C17   C18   A    
Ba1   O22   S    
C38   H27   S    
Ba1   P2    S    
O9    P5    S    
Ba2   O12   S    
C23   H39   S    
C55   C60   A    
C37   C39   A    
O10   P5    D    
C33   H25   S    
C51   C52   A    
C71   H65   S    
C4    H12   S    
C45   C65   S    
C16   N8    S    
Ba2   P4    S    
N10   H87   S    
C58   C61   A    
C6    H16   S    
C26   C27   A    
C33   C35   A    
C35   C36   A    
C22   C24   A    
C16   C17   A    
Ba1   O23   S    
C66   H49   S    
C3    C4    S    
O11   P5    S    
C72   H75   S    
C19   C31   A    
C34   O7    S    
C42   C48   A    
C13   C14   A    
C64   H8    S    
C3    O15   S    
C34   C45   S    
Ba1   Ba2   S    
Ba1   O13   S    
O8    P7    S    
O15   P7    S    
N7    H78   S    
N6    H72   S    
C7    N6    S    
C70   H64   S    
C8    H20   S    
C28   N9    S    
C14   C15   A    
C53   H34   S    
C21   C22   A    
C21   H23   S    
N4    H68   S    
C73   H83   S    
O12   P1    S    
C62   H4    S    
C67   H52   S    
C7    C8    S    
C63   O2    S    
C35   H26   S    
C71   H67   S    
C58   P7    S    
C34   C74   S    
C29   H24   S    
C70   H63   S    
C44   H32   S    
C24   C29   A    
N3    H55   S    
C5    C71   S    
C27   C41   A    
C23   H15   S    
C65   H45   S    
N7    H77   S    
C1    H14   S    
O22   P2    D    
C45   H1    S    
C71   H66   S    
C31   C32   A    
N2    H47   S    
C74   H89   S    
C25   C32   A    
C42   H38   S    
Ba2   O5    S    
C44   C46   A    
C8    H21   S    
O2    P2    S    
N10   H86   S    
O18   P6    S    
O3    P3    S    
C49   C50   A    
C30   C33   A    
O6    P8    S    
C40   C73   S    
C17   C20   A    
O21   P6    S    
O16   P8    D    
C63   N3    S    
C66   H50   S    
C47   H36   S    
C12   C72   S    
Ba2   O14   S    
C23   H37   S    
C72   H76   S    
C56   C62   S    
C63   H5    S    
C64   H7    S    
C34   H40   S    
C62   C67   S    
C15   C19   A    
N5    H70   S    
C58   C59   A    
N8    H80   S    
C68   H58   S    
C27   C28   A    
Ba2   O9    S    
C29   C30   A    
O17   P8    S    
C9    C25   A    
N1    H41   S    
C3    C68   S    
Ba2   O6    S    
C5    N4    S    
C73   H85   S    
C59   H29   S    
O13   P2    S    
O5    P4    S    
C10   C11   A    
C67   H53   S    
C41   P1    S    
Ba1   O1    S    
O23   P3    S    
O19   P6    D    
O1    P1    D    
C70   H62   S    
C56   O20   S    
O7    P4    S    
C11   C13   A    
C47   C48   A    
C65   H44   S    
C52   H33   S    
O4    P4    D    
O24   P3    D    
C40   C41   A    
C1    C2    S    
C1    H11   S    
C45   H2    S    
C37   C38   A    
C50   C51   A    
N2    H46   S    
C74   H90   S    
C22   P4    S    
C46   C54   S    
C4    C70   S    
C74   H88   S    
C52   C53   A    
C69   H59   S    
C43   P2    S    
C2    O21   S    
C10   C28   A    
C32   C36   A    
C69   H61   S    
C42   C43   A    
C49   C54   A    
Ba1   P1    S    
C48   P3    S    
C9    C15   A    
C55   C57   A    
Ba2   O13   S    
C56   N2    S    
C56   H3    S    
C55   H35   S    
C3    C69   S    
C20   P8    S    
C57   C61   A    
C26   C37   A    
C62   C66   S    
C30   C31   A    
C69   H60   S    
C1    H6    S    
Ba1   O18   S    
C66   H48   S    
N8    H79   S    
C2    N1    S    
C36   C38   A    
Ba2   O8    S    
C6    N5    S    
C72   H74   S    
C18   C24   A    
O20   P1    S    
C46   C47   A    
C64   H9    S    
C11   H22   S    
C57   P5    S    
C7    O17   S    
C50   H30   S    
Ba1   O12   S    
C12   C23   S    
C13   N7    S    
C59   C60   A    
C68   H56   S    
N6    H73   S    
C2    H10   S    
C5    C6    S    
C7    H18   S    
C4    H13   S    
N9    H81   S    
C43   C44   A    
C18   C19   A    
C51   C60   S    
C14   C16   A    
C63   C64   S    
Ba1   O8    S    
C25   C26   A    
C65   H43   S    
C20   C21   A    
C73   H84   S    
O14   P7    D    
N9    H82   S    
C67   H51   S    
C12   H28   S    
C39   P6    S    
Ba1   O5    S    
C9    C10   A    
C68   H57   S    
N4    H69   S    
N5    H71   S    
Ba2   O4    S    
