data_mof_unit_42694.cif
_audit_creation_date              2012-12-10T19:08:05-0500
_audit_creation_method            fapswitch 2.2
_symmetry_space_group_name_H-M    P1
_symmetry_Int_Tables_number       1
_space_group_crystal_system       triclinic
_cell_length_a                    9.075731
_cell_length_b                    10.824756
_cell_length_c                    9.562444
_cell_angle_alpha                 90.100557
_cell_angle_beta                  89.999395
_cell_angle_gamma                 90.090777
_cell_volume                      939.436482491

loop_
_atom_site_label
_atom_site_type_symbol
_atom_type_description
_atom_site_fract_x
_atom_site_fract_y
_atom_site_fract_z
_atom_type_partial_charge
C1    C     C_R   0.497321 0.262363 0.499790 0.800416
C2    C     C_R   0.476884 0.935331 0.371693 -0.189960
C3    C     C_R   0.481683 0.870772 0.499192 -0.137298
C4    C     C_R   0.464238 0.936852 0.623736 0.133979
C5    C     C_3   0.547467 0.930912 0.758475 -0.022559
C6    C     C_3   0.549892 0.071436 0.756972 -0.477807
C7    C     C_R   0.629145 0.505627 0.073584 0.252624
C8    C     C_R   0.373185 0.483710 0.074068 -0.056426
C9    C     C_R   0.373178 0.483742 0.925800 -0.041682
C10   C     C_R   0.629264 0.505005 0.926392 0.252978
C11   C     C_3   0.742642 0.604701 0.920406 -0.474461
C12   C     C_R   0.220724 0.500047 0.499981 0.852172
C13   C     C_3   0.741362 0.606299 0.079182 -0.472443
C14   C     C_R   0.497030 0.737664 0.500035 0.804660
C15   C     C_R   0.779264 0.500133 0.500026 0.842777
C16   C     C_1   0.065552 0.500153 0.499999 -0.189768
C17   C     C_1   0.934423 0.500188 0.500026 -0.196429
C18   C     C_R   0.465561 0.063974 0.623222 0.088942
C19   C     C_R   0.482327 0.129278 0.498582 -0.101518
C20   C     C_R   0.476954 0.064064 0.371373 -0.201529
Cu1   Cu    Cu3+1 0.499990 0.499980 0.640670 0.958961
Cu2   Cu    Cu3+1 0.500010 0.500020 0.359330 0.952151
H1    H     H_    0.480782 0.111684 0.271907 0.178769
H2    H     H_    0.700415 0.691061 0.872691 0.228054
H3    H     H_    0.846954 0.574627 0.125736 0.197477
H4    H     H_    0.696819 0.693408 0.124135 0.226900
H5    H     H_    0.480978 0.887155 0.272430 0.197274
H6    H     H_    0.658471 0.888924 0.746398 0.135303
H7    H     H_    0.484429 0.115074 0.841886 0.222562
H8    H     H_    0.662212 0.110624 0.742537 0.181858
H9    H     H_    0.269768 0.471776 0.128164 0.146367
H10   H     H_    0.269746 0.471933 0.871656 0.146311
H11   H     H_    0.848562 0.571164 0.876113 0.196376
N1    N     N_R   0.500920 0.500930 0.147930 -0.184084
N2    N     N_R   0.500930 0.500890 0.852020 -0.178422
O1    O     O_R   0.500000 0.319640 0.618810 -0.579848
O2    O     O_R   0.500020 0.319680 0.381230 -0.587356
O3    O     O_R   0.288380 0.499980 0.618770 -0.584120
O4    O     O_R   0.288400 0.500020 0.381190 -0.587880
O5    O     O_R   0.499980 0.680320 0.618770 -0.559582
O6    O     O_R   0.500000 0.680360 0.381190 -0.577224
O7    O     O_R   0.711600 0.499980 0.618810 -0.584004
O8    O     O_R   0.711620 0.500020 0.381230 -0.581029
I1    I     I_    0.414452 0.856634 0.923604 -0.431481

loop_
_geom_bond_atom_site_label_1
_geom_bond_atom_site_label_2
_ccdc_geom_bond_type
C8    C9    A    
C7    C10   A    
C10   N2    A    
Cu1   N2    S    
C5    H6    S    
C19   C20   A    
C20   H1    S    
C1    O2    A    
C4    C18   A    
C12   O4    A    
C7    C13   S    
C2    C3    A    
C15   O8    A    
Cu1   O1    S    
C8    N1    A    
Cu1   Cu2   S    
C11   C13   S    
C13   H3    S    
C2    H5    S    
C3    C14   S    
C14   O6    A    
Cu2   N1    S    
Cu2   O4    S    
C6    H8    S    
C5    I1    S    
C12   O3    A    
C5    C6    S    
C6    C18   S    
C7    N1    A    
C13   H4    S    
C1    C19   S    
Cu2   O6    S    
C10   C11   S    
Cu1   O3    S    
C2    C20   A    
C3    C4    A    
C11   H2    S    
C11   H11   S    
C6    H7    S    
C15   O7    A    
C15   C17   S    
C18   C19   A    
C9    N2    A    
C16   C17   T    
Cu1   O7    S    
C9    H10   S    
Cu2   O2    S    
C14   O5    A    
Cu2   O8    S    
C8    H9    S    
C12   C16   S    
C1    O1    A    
C4    C5    S    
Cu1   O5    S    
