data_mof_unit_27078.cif
_audit_creation_date              2012-12-10T18:01:15-0500
_audit_creation_method            fapswitch 2.2
_symmetry_space_group_name_H-M    P1
_symmetry_Int_Tables_number       1
_space_group_crystal_system       triclinic
_cell_length_a                    9.515692
_cell_length_b                    10.806868
_cell_length_c                    17.324969
_cell_angle_alpha                 90.495122
_cell_angle_beta                  85.508001
_cell_angle_gamma                 89.997017
_cell_volume                      1776.07079785

loop_
_atom_site_label
_atom_site_type_symbol
_atom_type_description
_atom_site_fract_x
_atom_site_fract_y
_atom_site_fract_z
_atom_type_partial_charge
C1    C     C_R   0.500540 0.737733 0.498271 0.844643
C2    C     C_R   0.499316 0.262276 0.502293 0.845147
C3    C     C_R   0.611256 0.938028 0.458364 0.266098
C4    C     C_R   0.388380 0.061978 0.543003 0.264212
C5    C     C_R   0.609245 0.066004 0.461898 -0.234655
C6    C     C_R   0.390469 0.933824 0.539700 -0.229415
C7    C     C_R   0.498485 0.128449 0.503262 -0.134205
C8    C     C_R   0.501153 0.871495 0.497976 -0.136880
C9    C     C_R   0.918182 0.575975 0.548787 -0.190092
C10   C     C_R   0.082283 0.425294 0.450279 -0.213552
C11   C     C_R   0.068009 0.575266 0.550210 0.588556
C12   C     C_R   0.931174 0.423523 0.449856 0.595045
C13   C     C_R   0.481202 0.501317 0.649994 0.815282
C14   C     C_R   0.518939 0.498268 0.349990 0.821392
C15   C     C_R   0.470691 0.507451 0.734443 -0.073722
C16   C     C_R   0.530226 0.491757 0.265504 -0.073423
C17   C     C_R   0.588928 0.541983 0.772886 -0.188324
C18   C     C_R   0.410345 0.464799 0.226594 -0.194618
C19   C     C_R   0.580309 0.548887 0.852998 -0.172698
C20   C     C_R   0.419373 0.458278 0.146513 -0.168826
C21   C     C_R   0.453587 0.520331 0.896051 0.110609
C22   C     C_R   0.548202 0.480525 0.103715 0.113797
C23   C     C_R   0.333543 0.488372 0.857695 0.285807
C24   C     C_R   0.670086 0.504032 0.142597 0.275364
C25   C     C_R   0.343125 0.480956 0.777111 -0.221950
C26   C     C_R   0.660276 0.510076 0.223265 -0.199057
C27   C     C_2   0.447661 0.522928 0.980766 -0.173994
C28   C     C_2   0.554514 0.479649 0.018836 -0.167955
Cu1   Cu    Cu3+1 0.359340 0.499980 0.500000 1.020693
Cu2   Cu    Cu3+1 0.640660 0.500020 0.500000 1.025343
H1    H     H_    0.688026 0.564578 0.741062 0.156332
H2    H     H_    0.309481 0.448040 0.258035 0.167612
H3    H     H_    0.753879 0.530736 0.252736 0.193290
H4    H     H_    0.251373 0.453076 0.748032 0.185248
H5    H     H_    0.649105 0.444292 0.987000 0.200458
H6    H     H_    0.352850 0.558604 0.012179 0.197606
H7    H     H_    0.325251 0.435184 0.118186 0.172632
H8    H     H_    0.672751 0.577387 0.881264 0.173106
H9    H     H_    0.692945 0.117055 0.430705 0.187992
H10   H     H_    0.306873 0.882645 0.571235 0.204234
H11   H     H_    0.854226 0.638026 0.585922 0.154196
H12   H     H_    0.149435 0.369442 0.410928 0.157777
N1    N     N_R   0.147930 0.499970 0.499980 -0.202649
N2    N     N_R   0.852070 0.500030 0.500020 -0.204242
O1    O     O_R   0.381260 0.680340 0.500000 -0.542084
O2    O     O_R   0.618740 0.319660 0.500000 -0.550908
O3    O     O_R   0.618830 0.680370 0.500010 -0.555721
O4    O     O_R   0.381170 0.319630 0.499990 -0.555757
O5    O     O_R   0.367440 0.500000 0.613600 -0.550790
O6    O     O_R   0.632560 0.500000 0.386400 -0.529453
O7    O     O_R   0.605010 0.500030 0.613600 -0.599544
O8    O     O_R   0.394990 0.499970 0.386400 -0.602203
Br1   Br    Br    0.156462 0.448523 0.912626 -0.482543
Br2   Br    Br    0.850590 0.533979 0.088471 -0.486264
Br3   Br    Br    0.762069 0.861499 0.394508 -0.508526
Br4   Br    Br    0.237613 0.139050 0.606564 -0.518755
O9    O     O_3   0.137383 0.658638 0.595437 -0.585988
C29   C     C_3   0.076967 0.666444 0.672715 0.004865
H13   H     H_    0.163630 0.655789 0.711401 0.186139
H14   H     H_    0.999513 0.591798 0.689089 0.127226
C30   C     C_3   0.011847 0.794690 0.688247 -0.356821
H15   H     H_    0.095201 0.866253 0.678881 0.255631
H16   H     H_    0.930089 0.812855 0.647453 0.225707
C31   C     C_3   0.945381 0.805947 0.771071 -0.817786
H17   H     H_    0.859267 0.737239 0.781241 0.244568
H18   H     H_    0.900548 0.900157 0.780829 0.270206
H19   H     H_    0.025975 0.790427 0.813037 0.272790
O10   O     O_3   0.857177 0.351202 0.399338 -0.584847
C32   C     C_3   0.937783 0.263290 0.353974 0.002804
H20   H     H_    0.864730 0.189364 0.337369 0.189657
H21   H     H_    0.016246 0.214424 0.387052 0.152496
C33   C     C_3   0.001232 0.321228 0.278535 -0.374123
H22   H     H_    0.914858 0.344318 0.241526 0.249814
H23   H     H_    0.057209 0.408476 0.290616 0.214853
C34   C     C_3   0.103448 0.232474 0.234214 -0.828194
H24   H     H_    0.193899 0.211995 0.268905 0.247692
H25   H     H_    0.144216 0.275395 0.178933 0.268093
H26   H     H_    0.049129 0.144758 0.220894 0.275545

loop_
_geom_bond_atom_site_label_1
_geom_bond_atom_site_label_2
_ccdc_geom_bond_type
Cu2   O7    S    
C10   H12   S    
C1    C8    S    
C2    C7    S    
Cu1   O5    S    
C2    O2    A    
C12   O10   S    
C22   C24   A    
C19   C21   A    
C24   C26   A    
C4    C7    A    
C15   C25   A    
C29   H14   S    
C32   H21   S    
C30   H16   S    
C13   O7    A    
C3    Br3   S    
C14   O8    A    
C28   H5    S    
O10   C32   S    
C11   N1    A    
C18   C20   A    
C25   H4    S    
C29   C30   S    
Cu2   O6    S    
C22   C28   S    
Cu1   N1    S    
Cu2   N2    S    
C32   H20   S    
C33   C34   S    
C23   Br1   S    
C21   C23   A    
C16   C26   A    
Cu1   O4    S    
C31   H19   S    
Cu2   O3    S    
C33   H23   S    
C3    C8    A    
C5    C7    A    
C1    O3    A    
C6    C8    A    
C2    O4    A    
C29   H13   S    
Cu1   O1    S    
C31   H18   S    
C32   C33   S    
C34   H24   S    
Cu1   Cu2   S    
C19   H8    S    
C34   H25   S    
C26   H3    S    
C9    C11   A    
C10   C12   A    
C13   O5    A    
C4    C6    A    
C20   C22   A    
C13   C15   S    
C17   H1    S    
C6    H10   S    
C18   H2    S    
C15   C17   A    
C9    N2    A    
C10   N1    A    
Cu2   O2    S    
C33   H22   S    
C3    C5    A    
C27   H6    S    
C9    H11   S    
C31   H17   S    
C5    H9    S    
C12   N2    A    
C30   C31   S    
C20   H7    S    
C1    O1    A    
O9    C29   S    
C14   O6    A    
C17   C19   A    
C14   C16   S    
C23   C25   A    
C21   C27   S    
C30   H15   S    
C34   H26   S    
C16   C18   A    
C27   C28   D    
C11   O9    S    
C24   Br2   S    
C4    Br4   S    
Cu1   O8    S    
