data_mof_unit_49638.cif
_audit_creation_date              2012-12-10T16:48:10-0500
_audit_creation_method            fapswitch 2.2
_symmetry_space_group_name_H-M    P1
_symmetry_Int_Tables_number       1
_space_group_crystal_system       triclinic
_cell_length_a                    15.834993
_cell_length_b                    8.683906
_cell_length_c                    7.450529
_cell_angle_alpha                 103.046106
_cell_angle_beta                  93.988979
_cell_angle_gamma                 92.185871
_cell_volume                      994.127777699

loop_
_atom_site_label
_atom_site_type_symbol
_atom_type_description
_atom_site_fract_x
_atom_site_fract_y
_atom_site_fract_z
_atom_type_partial_charge
C1    C     C_R   0.497478 0.199711 0.453224 0.881907
C2    C     C_R   0.502521 0.800289 0.546776 0.881908
C3    C     C_R   0.339961 0.499981 0.502633 0.819200
C4    C     C_R   0.660039 0.500019 0.497367 0.819199
C5    C     C_2   0.496270 0.031762 0.426959 -0.364219
C6    C     C_2   0.503730 0.968238 0.573041 -0.364218
C7    C     C_3   0.971888 0.398827 0.600259 -0.301906
C8    C     C_3   0.028112 0.601176 0.399738 -0.301971
C9    C     C_3   0.023232 0.356444 0.429112 0.594388
C10   C     C_3   0.976768 0.643558 0.570886 0.594392
C11   C     C_1   0.250474 0.501106 0.508128 -0.161300
C12   C     C_1   0.749525 0.498895 0.491872 -0.161298
C13   C     C_3   0.032604 0.547490 0.678468 -0.299815
C14   C     C_3   0.967395 0.452511 0.321528 -0.299889
C15   C     C_3   0.083172 0.502322 0.505916 0.056972
C16   C     C_3   0.916828 0.497680 0.494082 0.056974
C17   C     C_1   0.174919 0.501836 0.508921 0.012282
C18   C     C_1   0.825081 0.498165 0.491078 0.012282
Cu1   Cu    Cu3+1 0.509330 0.517380 0.684380 0.962108
Cu2   Cu    Cu3+1 0.490670 0.482620 0.315620 0.962107
H1    H     H_    0.947557 0.314986 0.679601 0.151084
H2    H     H_    0.052446 0.685003 0.320381 0.151063
H3    H     H_    0.939491 0.412531 0.176733 0.155119
H4    H     H_    0.060505 0.587483 0.823265 0.155141
H5    H     H_    0.489239 0.960051 0.286234 0.180172
H6    H     H_    0.510760 0.039949 0.713766 0.180172
H7    H     H_    0.434402 0.377523 0.948763 0.228518
H8    H     H_    0.565597 0.622477 0.051237 0.228518
N1    N     N_2   0.476600 0.456420 0.038510 -0.215020
N2    N     N_2   0.523400 0.543580 0.961490 -0.215020
O1    O     O_R   0.506070 0.286130 0.619780 -0.585126
O2    O     O_R   0.493930 0.713870 0.380220 -0.585125
O3    O     O_R   0.490300 0.256770 0.308360 -0.585184
O4    O     O_R   0.509700 0.743230 0.691640 -0.585184
O5    O     O_R   0.386960 0.514660 0.655680 -0.584458
O6    O     O_R   0.613040 0.485340 0.344320 -0.584458
O7    O     O_R   0.371190 0.485310 0.344260 -0.571425
O8    O     O_R   0.628810 0.514690 0.655740 -0.571423
O9    O     O_3   0.054603 0.207000 0.356926 -0.582060
C19   C     C_3   0.986117 0.095762 0.290513 -0.323349
H9    H     H_    0.948689 0.125695 0.172332 0.164454
H10   H     H_    0.944558 0.085011 0.401960 0.176607
H11   H     H_    0.011733 0.978084 0.239443 0.191051
O10   O     O_3   0.945396 0.792986 0.643144 -0.582026
C20   C     C_3   0.013880 0.904330 0.709089 -0.323360
H12   H     H_    0.055122 0.915340 0.597237 0.176799
H13   H     H_    0.051629 0.874328 0.826784 0.164386
H14   H     H_    0.988258 0.021900 0.760681 0.191030

loop_
_geom_bond_atom_site_label_1
_geom_bond_atom_site_label_2
_ccdc_geom_bond_type
C14   H3    S    
C7    C13   S    
C8    H2    S    
C9    C14   S    
C4    O6    A    
C15   C17   S    
N1    N2    D    
Cu1   O8    S    
H7    N1    S    
Cu1   Cu2   S    
C13   C15   S    
C3    O5    A    
Cu1   O1    S    
C19   H11   S    
C2    O4    A    
H8    N2    S    
C9    C15   S    
C1    O3    A    
Cu1   O5    S    
C20   H12   S    
Cu2   O7    S    
C6    H6    S    
C5    H5    S    
Cu2   O3    S    
C16   C18   S    
C19   H9    S    
C4    O8    A    
C8    C15   S    
C14   C16   S    
Cu2   N1    S    
C20   H13   S    
C1    O1    A    
C5    C6    D    
C1    C5    S    
C4    C12   S    
C10   O10   S    
Cu2   O6    S    
C9    O9    S    
C3    C11   S    
O10   C20   S    
C3    O7    A    
C2    O2    A    
Cu2   O2    S    
C20   H14   S    
C12   C18   T    
O9    C19   S    
C7    C9    S    
C11   C17   T    
C10   C16   S    
C8    C14   S    
C7    H1    S    
Cu1   N2    S    
Cu1   O4    S    
C8    C10   S    
C7    C16   S    
C2    C6    S    
C13   H4    S    
C19   H10   S    
C10   C13   S    
