data_mof_unit_30353.cif
_audit_creation_date              2012-10-26T19:15:02-0400
_audit_creation_method            fapswitch 2.2
_symmetry_space_group_name_H-M    P1
_symmetry_Int_Tables_number       1
_space_group_crystal_system       triclinic
_cell_length_a                    10.86035
_cell_length_b                    10.838755
_cell_length_c                    9.553017
_cell_angle_alpha                 90.531676
_cell_angle_beta                  90.526678
_cell_angle_gamma                 90.800717
_cell_volume                      1124.30407956

loop_
_atom_site_label
_atom_site_type_symbol
_atom_type_description
_atom_site_fract_x
_atom_site_fract_y
_atom_site_fract_z
_atom_type_partial_charge
Br1   Br    Br    0.139536 0.424174 0.904382 -0.579386
C1    C     C_R   0.496524 0.262398 0.499339 0.551707
C2    C     C_R   0.477554 0.938016 0.624165 0.027210
C3    C     C_3   0.559701 0.936614 0.750115 -0.273086
C4    C     C_R   0.262400 0.496446 0.499308 0.550587
C5    C     C_3   0.555918 0.076186 0.750772 -0.264484
C6    C     C_R   0.538233 0.602148 0.075710 0.164277
C7    C     C_R   0.451631 0.403686 0.072800 0.018729
C8    C     C_R   0.452101 0.403493 0.924161 0.032465
C9    C     C_R   0.538852 0.602030 0.928085 0.164551
C10   C     C_3   0.665619 0.656372 0.928632 -0.287614
C11   C     C_3   0.662572 0.660193 0.086643 -0.274986
C12   C     C_R   0.938068 0.465939 0.621572 0.002837
C13   C     C_R   0.497694 0.737795 0.500213 0.544099
C14   C     C_R   0.737854 0.497548 0.500151 0.548153
C15   C     C_R   0.064956 0.463812 0.621024 0.072707
C16   C     C_R   0.129449 0.482047 0.497124 -0.014648
C17   C     C_R   0.063254 0.481674 0.369883 -0.152311
C18   C     C_R   0.934693 0.482453 0.370534 -0.151278
C19   C     C_R   0.871061 0.484367 0.498383 -0.006017
C20   C     C_3   0.936003 0.533116 0.758273 -0.243771
C21   C     C_3   0.075413 0.529626 0.758606 0.044408
C22   C     C_R   0.475770 0.065130 0.623523 0.028814
C23   C     C_R   0.482487 0.129352 0.497948 0.011782
C24   C     C_R   0.472107 0.063019 0.371140 -0.155989
C25   C     C_R   0.473103 0.934273 0.371785 -0.157336
C26   C     C_R   0.484758 0.870959 0.499212 0.006293
Cu1   Cu    Cu3+1 0.499990 0.499980 0.640670 0.968106
Cu2   Cu    Cu3+1 0.500010 0.500020 0.359330 0.950440
H1    H     H_    0.110112 0.487647 0.270523 0.179687
H2    H     H_    0.659331 0.755383 0.130667 0.125429
H3    H     H_    0.886187 0.488064 0.271403 0.143623
H4    H     H_    0.900147 0.628264 0.748193 0.104846
H5    H     H_    0.893915 0.475372 0.841050 0.172308
H6    H     H_    0.120441 0.622132 0.751684 0.138545
H7    H     H_    0.469834 0.109944 0.271566 0.129184
H8    H     H_    0.471080 0.885224 0.272469 0.135773
H9    H     H_    0.513374 0.894996 0.841974 0.139891
H10   H     H_    0.652602 0.901142 0.725266 0.130805
H11   H     H_    0.505993 0.114621 0.841974 0.129587
H12   H     H_    0.646669 0.120658 0.729466 0.147649
H13   H     H_    0.413550 0.324956 0.126893 0.125364
H14   H     H_    0.414009 0.324795 0.867702 0.146153
H15   H     H_    0.731984 0.589686 0.888118 0.143409
H16   H     H_    0.671627 0.748827 0.882040 0.117936
H17   H     H_    0.731801 0.599481 0.135814 0.152798
N1    N     N_R   0.500790 0.500930 0.147930 -0.235399
N2    N     N_R   0.500790 0.500890 0.852020 -0.231144
O1    O     O_R   0.500000 0.319640 0.618810 -0.509769
O2    O     O_R   0.500010 0.319680 0.381230 -0.517600
O3    O     O_R   0.319650 0.499970 0.618810 -0.471015
O4    O     O_R   0.319660 0.500010 0.381230 -0.499719
O5    O     O_R   0.499990 0.680320 0.618770 -0.499327
O6    O     O_R   0.500000 0.680360 0.381190 -0.508380
O7    O     O_R   0.680340 0.499990 0.618770 -0.504906
O8    O     O_R   0.680350 0.500030 0.381190 -0.511988

loop_
_geom_bond_atom_site_label_1
_geom_bond_atom_site_label_2
_ccdc_geom_bond_type
C6    C9    A    
C22   C23   A    
C25   H8    S    
C17   H1    S    
Cu2   O8    S    
C13   C26   S    
Cu1   O1    S    
C2    C22   A    
C18   C19   A    
C3    H10   S    
Cu1   O5    S    
C14   O8    A    
C2    C26   A    
C16   C17   A    
C7    N1    A    
C12   C20   S    
C10   H15   S    
C4    O4    A    
C14   O7    A    
C20   C21   S    
C4    C16   S    
C9    N2    A    
C21   H6    S    
C25   C26   A    
C6    C11   S    
Cu2   N1    S    
C18   H3    S    
C3    C5    S    
Cu1   Cu2   S    
C1    O1    A    
Cu1   O7    S    
C7    H13   S    
Cu2   O2    S    
C11   H2    S    
C1    C23   S    
C14   C19   S    
Cu1   O3    S    
C5    H11   S    
C8    H14   S    
C10   H16   S    
C9    C10   S    
C5    C22   S    
C24   H7    S    
C2    C3    S    
C15   C16   A    
Br1   C21   S    
C13   O5    A    
C20   H4    S    
C23   C24   A    
C8    N2    A    
C11   H17   S    
C17   C18   A    
Cu2   O6    S    
C12   C15   A    
Cu1   N2    S    
C15   C21   S    
C20   H5    S    
C1    O2    A    
C12   C19   A    
C13   O6    A    
C24   C25   A    
Cu2   O4    S    
C4    O3    A    
C10   C11   S    
C3    H9    S    
C7    C8    A    
C5    H12   S    
C6    N1    A    
