data_mof_unit_28240.cif
_audit_creation_date              2013-03-05T15:53:05-0500
_audit_creation_method            fapswitch 2.2
_symmetry_space_group_name_H-M    P1
_symmetry_Int_Tables_number       1
_space_group_crystal_system       triclinic
_cell_length_a                    9.936873
_cell_length_b                    10.726466
_cell_length_c                    15.49953
_cell_angle_alpha                 92.797168
_cell_angle_beta                  67.426537
_cell_angle_gamma                 90.855673
_cell_volume                      1523.65896981

loop_
_atom_site_label
_atom_site_type_symbol
_atom_site_description
_atom_site_fract_x
_atom_site_fract_y
_atom_site_fract_z
_atom_type_partial_charge
O1    O     O_R   0.385310 0.683220 0.500000 -0.550757
O2    O     O_R   0.614640 0.683250 0.500010 -0.632942
C1    C     C_R   0.505626 0.738657 0.491502 0.908280
O3    O     O_R   0.319840 0.499980 0.632240 -0.540370
O4    O     O_R   0.549160 0.500000 0.632250 -0.657072
C2    C     C_R   0.408577 0.501795 0.676053 0.881502
Zn1   Zn    Zn3+2 0.346880 0.499980 0.499990 0.999138
Zn2   Zn    Zn3+2 0.653120 0.500020 0.500010 0.975611
O5    O     O_R   0.385360 0.316750 0.499990 -0.638888
O6    O     O_R   0.614690 0.316780 0.500000 -0.622151
O7    O     O_R   0.450840 0.500000 0.367750 -0.619007
O8    O     O_R   0.680160 0.500020 0.367760 -0.591972
C3    C     C_R   0.494911 0.259974 0.504633 0.877371
C4    C     C_R   0.591695 0.499778 0.324134 0.886706
C5    C     C_R   0.354869 0.523636 0.777338 -0.055124
C6    C     C_R   0.651022 0.497863 0.222350 -0.111378
C7    C     C_R   0.208277 0.645082 0.916018 -0.080781
C8    C     C_R   0.231487 0.596609 0.826371 -0.112759
C9    C     C_R   0.448360 0.492595 0.820572 -0.187606
C10   C     C_R   0.435605 0.549135 0.906606 0.061383
C11   C     C_R   0.311695 0.625486 0.955992 0.033118
C12   C     C_R   0.542390 0.529840 0.944598 0.083516
C13   C     C_R   0.513730 0.571323 0.037896 0.037740
C14   C     C_R   0.391659 0.650078 0.084888 -0.270759
C15   C     C_R   0.293314 0.679165 0.044283 0.280204
C16   C     C_R   0.677567 0.471282 0.891864 -0.215380
C17   C     C_R   0.773680 0.440270 0.932740 -0.176243
C18   C     C_R   0.739578 0.466148 0.028077 0.033781
C19   C     C_R   0.607789 0.531971 0.081327 0.095304
C20   C     C_R   0.829363 0.422042 0.072940 0.301091
C21   C     C_R   0.783668 0.439480 0.169973 -0.213455
C22   C     C_R   0.566444 0.546024 0.178307 -0.243993
H1    H     H_    0.463106 0.586961 0.222534 0.172979
H2    H     H_    0.848848 0.402262 0.205087 0.195872
H3    H     H_    0.871717 0.390736 0.888880 0.200845
H4    H     H_    0.110258 0.699285 0.952705 0.183539
H5    H     H_    0.155206 0.619093 0.795136 0.194074
H6    H     H_    0.533986 0.426445 0.783279 0.143967
H7    H     H_    0.373745 0.696253 0.151791 0.191483
H8    H     H_    0.713940 0.449634 0.817739 0.144424
H9    H     H_    0.699284 0.892207 0.519444 0.197244
C23   C     C_R   0.316018 0.870236 0.417657 -0.223657
H10   H     H_    0.349714 0.780994 0.380309 0.179252
C24   C     C_R   0.185137 0.922563 0.422240 0.360510
C25   C     C_R   0.143600 0.039682 0.467554 -0.243676
H11   H     H_    0.039310 0.080041 0.477061 0.172174
C26   C     C_R   0.236258 0.106264 0.501272 -0.219799
H12   H     H_    0.192443 0.192122 0.540456 0.186991
C27   C     C_R   0.374260 0.057267 0.490403 0.117892
C28   C     C_R   0.402352 0.931878 0.461049 0.055964
C29   C     C_R   0.512187 0.870757 0.480223 -0.102982
C30   C     C_R   0.613571 0.937850 0.505605 -0.139349
H13   H     H_    0.687444 0.115306 0.531676 0.172632
C31   C     C_R   0.603644 0.065013 0.515860 -0.193026
C32   C     C_R   0.485932 0.126042 0.507997 -0.117325
H14   H     H_    0.934613 0.354639 0.397198 0.149967
C33   C     C_R   0.787806 0.669959 0.618334 -0.152594
H15   H     H_    0.679468 0.675262 0.622047 0.221048
C34   C     C_R   0.818816 0.754821 0.677942 -0.318051
H16   H     H_    0.735984 0.819652 0.722623 0.191069
C35   C     C_R   0.954766 0.755353 0.681397 -0.227709
H17   H     H_    0.977768 0.820750 0.729444 0.188965
C36   C     C_R   0.061435 0.671654 0.625143 0.616879
C37   C     C_R   0.036314 0.584032 0.560356 0.046215
C38   C     C_R   0.892563 0.583942 0.558859 0.143556
N1    N     N_R   0.856800 0.501200 0.500850 -0.104059
C39   C     C_R   0.961386 0.420126 0.443471 -0.063106
H18   H     H_    0.184529 0.355053 0.396934 0.155292
C40   C     C_R   0.104310 0.420357 0.443301 -0.088501
N2    N     N_R   0.142390 0.501280 0.500880 -0.105701
N3    N     N_R   0.175604 0.763985 0.093838 0.202018
O9    O     O_R   0.095925 0.749051 0.181509 -0.292959
O10   O     O_R   0.159768 0.864791 0.055193 -0.359210
N4    N     N_R   0.960613 0.351374 0.023205 0.201198
O11   O     O_R   0.060010 0.392858 0.947903 -0.421379
O12   O     O_R   0.991587 0.256113 0.061248 -0.341934
N5    N     N_R   0.091705 0.854149 0.385512 0.219413
O13   O     O_R   0.115235 0.736206 0.360882 -0.383796
O14   O     O_R   0.979527 0.908033 0.379266 -0.368451
F1    F     F_    0.184063 0.680242 0.640520 -0.672302

loop_
_geom_bond_atom_site_label_1
_geom_bond_atom_site_label_2
_geom_bond_distance
_ccdc_geom_bond_type
C5    C8    1.395952 A    
Zn2   N1    2.028823 S    
C9    C10   1.398457 A    
Zn1   N2    2.026987 S    
C26   C27   1.421476 A    
N5    O13   1.301563 A    
C6    C21   1.393596 A    
C5    C9    1.389926 A    
C16   C17   1.385203 A    
N4    O12   1.301558 A    
C13   C19   1.423880 A    
C24   N5    1.438476 S    
C8    H5    1.079674 S    
C19   C22   1.398780 A    
O4    C2    1.297761 A    
C20   N4    1.438900 S    
O7    C4    1.299834 A    
C33   C34   1.380299 A    
C14   H7    1.078464 S    
C35   C36   1.390062 A    
O5    C3    1.282706 A    
C2    C5    1.459044 S    
H18   C40   1.081804 S    
C13   C14   1.416958 A    
C15   N3    1.435161 S    
C7    H4    1.081426 S    
C37   N2    1.396725 A    
H9    C30   1.083567 S    
C25   C26   1.394390 A    
N1    C39   1.367174 A    
C34   H16   1.083113 S    
C40   N2    1.366360 A    
C23   C24   1.399460 A    
O3    Zn1   1.962419 S    
C30   C31   1.366139 A    
C28   C29   1.413772 A    
C36   F1    1.329510 S    
N5    O14   1.301357 A    
C34   C35   1.372276 A    
N4    O11   1.299339 A    
C29   C30   1.393785 A    
C14   C15   1.396020 A    
O3    C2    1.302677 A    
C33   C38   1.411967 A    
N3    O10   1.301292 A    
C1    C29   1.433617 S    
C17   H3    1.079468 S    
C27   C32   1.427653 A    
C7    C11   1.411424 A    
C39   C40   1.419175 A    
Zn1   O7    1.908591 S    
C9    H6    1.077938 S    
C26   H12   1.077468 S    
Zn2   O8    1.962416 S    
C7    C8    1.393291 A    
C21   H2    1.083812 S    
C23   C28   1.417078 A    
O8    C4    1.298501 A    
C38   N1    1.371280 A    
C4    C6    1.456013 S    
C23   H10   1.081772 S    
C24   C25   1.395943 A    
Zn1   O5    2.007856 S    
C11   C15   1.404263 A    
C31   C32   1.397017 A    
C18   C19   1.426744 A    
O1    Zn1   1.996670 S    
O2    Zn2   2.007857 S    
C10   C12   1.419053 A    
O6    C3    1.307695 A    
O4    Zn2   1.908591 S    
H13   C31   1.083941 S    
C6    C22   1.388184 A    
H14   C39   1.081820 S    
C22   H1    1.077418 S    
C18   C20   1.422784 A    
O2    C1    1.296378 A    
N3    O9    1.300196 A    
C37   C38   1.437480 A    
C16   H8    1.078056 S    
C33   H15   1.058029 S    
C20   C21   1.397816 A    
C35   H17   1.083423 S    
C36   C37   1.430861 A    
C25   H11   1.083050 S    
C10   C11   1.420579 A    
Zn2   O6    1.996668 S    
C27   C28   1.395663 A    
C12   C16   1.413888 A    
C17   C18   1.397774 A    
C12   C13   1.412460 A    
O1    C1    1.290678 A    
C3    C32   1.440298 S    
