data_mof_unit_8500.cif
_audit_creation_date              2013-03-05T16:10:27-0500
_audit_creation_method            fapswitch 2.2
_symmetry_space_group_name_H-M    P1
_symmetry_Int_Tables_number       1
_space_group_crystal_system       triclinic
_cell_length_a                    10.621467
_cell_length_b                    9.838128
_cell_length_c                    15.007206
_cell_angle_alpha                 89.991787
_cell_angle_beta                  89.947055
_cell_angle_gamma                 90.989545
_cell_volume                      1567.94870862

loop_
_atom_site_label
_atom_site_type_symbol
_atom_site_description
_atom_site_fract_x
_atom_site_fract_y
_atom_site_fract_z
_atom_type_partial_charge
O1    O     O_R   0.316770 0.614620 0.499990 -0.627446
O2    O     O_R   0.683230 0.385380 0.500010 -0.627455
O3    O     O_R   0.683230 0.614620 0.500010 -0.578287
O4    O     O_R   0.316770 0.385380 0.499990 -0.578303
C1    C     C_R   0.260391 0.498629 0.499890 1.035007
C2    C     C_R   0.739610 0.501371 0.500112 1.035029
O5    O     O_R   0.499980 0.614680 0.367850 -0.631991
O6    O     O_R   0.500020 0.385320 0.632150 -0.632001
O7    O     O_R   0.500020 0.614680 0.632150 -0.624605
O8    O     O_R   0.499980 0.385320 0.367850 -0.624614
C3    C     C_R   0.499300 0.499989 0.326542 0.985947
C4    C     C_R   0.500699 0.500011 0.673458 0.985966
Zn1   Zn    Zn3+2 0.500000 0.653120 0.500000 1.022676
Zn2   Zn    Zn3+2 0.500000 0.346880 0.500000 1.022663
C5    C     C_R   0.499462 0.623812 0.815140 -0.163487
C6    C     C_R   0.500538 0.376188 0.184860 -0.163503
C7    C     C_R   0.501283 0.500027 0.769365 -0.021834
C8    C     C_R   0.498717 0.499973 0.230635 -0.021844
C9    C     C_R   0.503156 0.376247 0.815167 -0.177114
C10   C     C_R   0.496844 0.623752 0.184833 -0.177097
C11   C     C_R   0.502618 0.375291 0.907322 0.115169
C12   C     C_R   0.497382 0.624709 0.092678 0.115166
C13   C     C_R   0.500402 0.500009 0.953650 0.070896
C14   C     C_R   0.499598 0.499991 0.046350 0.070896
C15   C     C_R   0.498941 0.624745 0.907292 0.112290
C16   C     C_R   0.501059 0.375255 0.092708 0.112295
C17   C     C_R   0.504037 0.251877 0.953744 -0.168353
C18   C     C_R   0.495964 0.748123 0.046256 -0.168352
C19   C     C_R   0.503241 0.251860 0.046319 -0.166256
C20   C     C_R   0.496759 0.748140 0.953681 -0.166255
H1    H     H_    0.498151 0.719496 0.779261 0.163606
H2    H     H_    0.501848 0.280504 0.220739 0.163607
H3    H     H_    0.504767 0.280571 0.779307 0.161719
H4    H     H_    0.495233 0.719429 0.220693 0.161721
H5    H     H_    0.505707 0.155740 0.918518 0.146959
H6    H     H_    0.494293 0.844260 0.081482 0.146960
H7    H     H_    0.504369 0.155714 0.081573 0.147289
H8    H     H_    0.495631 0.844286 0.918427 0.147288
C21   C     C_R   0.064944 0.485177 0.418360 0.199333
C22   C     C_R   0.935057 0.514823 0.581645 0.199312
C23   C     C_R   0.934703 0.491547 0.418112 0.209777
C24   C     C_R   0.065298 0.508463 0.581891 0.209798
C25   C     C_R   0.872005 0.505613 0.499772 -0.358222
C26   C     C_R   0.127995 0.494388 0.500232 -0.358227
C27   C     C_R   0.571329 0.073263 0.559815 -0.050557
C28   C     C_R   0.428671 0.926737 0.440185 -0.050553
C29   C     C_R   0.428658 0.070660 0.440193 -0.045694
C30   C     C_R   0.571342 0.929340 0.559807 -0.045692
H9    H     H_    0.628368 0.128861 0.607620 0.144316
H10   H     H_    0.371632 0.871139 0.392380 0.144321
H11   H     H_    0.371606 0.124179 0.392408 0.162374
H12   H     H_    0.628394 0.875821 0.607592 0.162372
N1    N     N_R   0.500000 0.857200 0.500000 -0.092627
N2    N     N_R   0.500000 0.142800 0.500000 -0.092627
N3    N     N_R   0.133243 0.475222 0.335899 0.225469
O9    O     O_R   0.210550 0.376001 0.322991 -0.400423
O10   O     O_R   0.113278 0.561181 0.271760 -0.322232
N4    N     N_R   0.866759 0.524773 0.664107 0.225458
O11   O     O_R   0.789414 0.623959 0.677005 -0.400461
O12   O     O_R   0.886771 0.438850 0.728260 -0.322194
N5    N     N_R   0.866042 0.480779 0.335838 0.231664
O13   O     O_R   0.788377 0.575332 0.312857 -0.391038
O14   O     O_R   0.886215 0.380477 0.281452 -0.314309
N6    N     N_R   0.133962 0.519253 0.664162 0.231674
O15   O     O_R   0.211623 0.424703 0.687157 -0.391038
O16   O     O_R   0.113802 0.619580 0.718531 -0.314325

loop_
_geom_bond_atom_site_label_1
_geom_bond_atom_site_label_2
_geom_bond_distance
_ccdc_geom_bond_type
C4    C7    1.439309 S    
O1    Zn1   1.976257 S    
C29   H11   1.081853 S    
C13   C14   1.391173 A    
C3    C8    1.439309 S    
C5    C7    1.398706 A    
C21   C26   1.402070 A    
C23   N5    1.437575 S    
C30   N1    1.366142 A    
C6    H2    1.084697 S    
C28   H10   1.081850 S    
Zn1   N1    2.007765 S    
O3    Zn1   1.989097 S    
C27   H9    1.081850 S    
O6    C4    1.287414 A    
O3    C2    1.273967 A    
C10   H4    1.084709 S    
N6    O15   1.300656 A    
N3    O9    1.300788 A    
C18   C20   1.389316 A    
C11   C17   1.400056 A    
C21   C23   1.385856 A    
C12   C18   1.400056 A    
O5    C3    1.287415 A    
C23   C25   1.402197 A    
C20   H8    1.083985 S    
O2    C2    1.279532 A    
C24   C26   1.402201 A    
C29   N2    1.366144 A    
O1    C1    1.279529 A    
C28   N1    1.366297 A    
C22   C24   1.385857 A    
C7    C9    1.398721 A    
C1    C26   1.406139 S    
C10   C12   1.383033 A    
C27   N2    1.366297 A    
C30   H12   1.081852 S    
C8    C10   1.398720 A    
C2    C25   1.406139 S    
N3    O10   1.301131 A    
C11   C13   1.410908 A    
O4    Zn2   1.989099 S    
N5    O13   1.300652 A    
O2    Zn2   1.976255 S    
O7    C4    1.287295 A    
C12   C14   1.410908 A    
C5    C15   1.382994 A    
C17   C19   1.389316 A    
O8    C3    1.287294 A    
N4    O12   1.301158 A    
Zn2   N2    2.007765 S    
C24   N6    1.437557 S    
O5    Zn1   2.018991 S    
C13   C15   1.410890 A    
C22   N4    1.438097 S    
C18   H6    1.083993 S    
C16   C19   1.400040 A    
C6    C8    1.398705 A    
O8    Zn2   2.018885 S    
C27   C30   1.415932 A    
C19   H7    1.083985 S    
C15   C20   1.400039 A    
N5    O14   1.301153 A    
O7    Zn1   2.018884 S    
C28   C29   1.415932 A    
O6    Zn2   2.018989 S    
C17   H5    1.083993 S    
N4    O11   1.300775 A    
C5    H1    1.084698 S    
C22   C25   1.402080 A    
C21   N3    1.438094 S    
C14   C16   1.410889 A    
C9    H3    1.084710 S    
O4    C1    1.273964 A    
C9    C11   1.383032 A    
C6    C16   1.382996 A    
N6    O16   1.301157 A    
