data_mof_unit_29968.cif
_audit_creation_date              2013-03-05T15:53:06-0500
_audit_creation_method            fapswitch 2.2
_symmetry_space_group_name_H-M    P1
_symmetry_Int_Tables_number       1
_space_group_crystal_system       triclinic
_cell_length_a                    6.956874
_cell_length_b                    20.451779
_cell_length_c                    24.461125
_cell_angle_alpha                 89.631995
_cell_angle_beta                  90.236311
_cell_angle_gamma                 89.803767
_cell_volume                      3480.21774344

loop_
_atom_site_label
_atom_site_type_symbol
_atom_site_description
_atom_site_fract_x
_atom_site_fract_y
_atom_site_fract_z
_atom_type_partial_charge
O1    O     O_R   0.507320 0.423560 0.460500 -0.575604
O2    O     O_R   0.170760 0.556250 0.437010 -0.598747
O3    O     O_R   0.004030 0.576440 0.539500 -0.595047
C1    C     C_R   0.339235 0.576404 0.421194 1.024497
O4    O     O_R   0.177370 0.422820 0.454110 -0.602363
O5    O     O_R   0.010680 0.442050 0.556720 -0.589336
C2    C     C_R   0.346090 0.399356 0.442978 1.019798
O6    O     O_R   0.500680 0.557950 0.443280 -0.575338
O7    O     O_3   0.340380 0.506470 0.533650 -0.276166
V1    V     V_3+5 0.064130 0.498800 0.493760 1.184748
O8    O     O_R   0.681160 0.443750 0.562990 -0.586552
C3    C     C_R   0.849910 0.423728 0.578784 0.967950
O9    O     O_R   0.674560 0.577180 0.545890 -0.599299
C4    C     C_R   0.843018 0.601197 0.556468 0.927065
V2    V     V_3+5 0.564560 0.501200 0.506240 1.200257
O10   O     O_3   0.838180 0.493530 0.466350 -0.258051
C5    C     C_R   0.972558 0.838798 0.909918 -0.169993
C6    C     C_R   0.849416 0.663228 0.587181 -0.144835
C7    C     C_R   0.983199 0.720695 0.905635 -0.202824
C8    C     C_R   0.002992 0.778151 0.935779 0.029573
C9    C     C_R   0.932641 0.841645 0.852906 -0.076773
C10   C     C_R   0.935988 0.783011 0.820769 0.104564
C11   C     C_R   0.945348 0.722740 0.849328 0.108632
C12   C     C_R   0.923945 0.781156 0.761913 0.019584
C13   C     C_R   0.888810 0.720706 0.734027 0.017514
C14   C     C_R   0.859489 0.663575 0.766915 0.009745
C15   C     C_R   0.904475 0.664566 0.822405 -0.204086
C16   C     C_R   0.960185 0.837135 0.730095 -0.179421
C17   C     C_R   0.929202 0.839019 0.673653 -0.076769
C18   C     C_R   0.873939 0.781298 0.646007 0.026807
C19   C     C_R   0.880628 0.720706 0.675031 0.107473
C20   C     C_R   0.817335 0.781598 0.589961 -0.002767
C21   C     C_R   0.803971 0.722590 0.561004 -0.007166
C22   C     C_R   0.889305 0.662783 0.643409 -0.272583
H1    H     H_    0.892115 0.619500 0.845763 0.149323
H2    H     H_    0.931760 0.616783 0.661281 0.122433
H3    H     H_    0.994937 0.673881 0.926472 0.127789
H4    H     H_    0.025653 0.879488 0.748239 0.176579
C23   C     C_3   0.803305 0.301740 0.767964 -0.136484
C24   C     C_3   0.000441 0.281769 0.792989 -0.147101
C25   C     C_1   0.965580 0.121905 0.875780 -0.272083
C26   C     C_1   0.858797 0.378603 0.624606 -0.256367
C27   C     C_3   0.744761 0.228683 0.767445 -0.062146
C28   C     C_3   0.940167 0.208645 0.792694 0.156820
C29   C     C_3   0.827928 0.221430 0.709498 -0.015222
C30   C     C_3   0.886971 0.294259 0.709384 0.123347
C31   C     C_3   0.022686 0.202155 0.734447 -0.071352
C32   C     C_3   0.083965 0.274669 0.734512 -0.118879
C33   C     C_1   0.956990 0.160737 0.838146 0.092897
C34   C     C_1   0.868039 0.340595 0.662819 0.112994
C35   C     C_3   0.534486 0.723214 0.212780 -0.219681
C36   C     C_3   0.339731 0.694788 0.231455 0.066014
H5    H     H_    0.631632 0.700579 0.182336 0.132032
C37   C     C_1   0.349660 0.621978 0.375429 -0.271978
C38   C     C_1   0.474755 0.877854 0.124452 -0.261967
C39   C     C_3   0.584517 0.736895 0.274135 -0.221623
C40   C     C_3   0.387923 0.707837 0.291747 0.178418
C41   C     C_3   0.485691 0.804424 0.268440 0.081945
C42   C     C_3   0.437871 0.791772 0.208048 0.153297
C43   C     C_3   0.290504 0.776349 0.287377 -0.262427
C44   C     C_3   0.245686 0.762280 0.226521 0.002289
C45   C     C_1   0.364343 0.660502 0.337568 -0.010072
C46   C     C_1   0.460540 0.839220 0.162247 -0.009225
H6    H     H_    0.191269 0.798995 0.317272 0.125968
H7    H     H_    0.724589 0.727735 0.294745 0.123431
C47   C     C_R   0.466829 0.162717 0.087679 -0.239047
C48   C     C_R   0.349766 0.339909 0.408983 -0.146279
C49   C     C_R   0.434088 0.280695 0.088025 -0.070931
C50   C     C_R   0.449803 0.222367 0.058857 -0.157384
C51   C     C_R   0.472713 0.162633 0.145824 -0.076011
C52   C     C_R   0.427024 0.221340 0.175034 -0.015610
C53   C     C_R   0.415328 0.281293 0.145288 0.109623
C54   C     C_R   0.390085 0.222620 0.232780 0.073309
C55   C     C_R   0.394236 0.282996 0.261663 0.088610
C56   C     C_R   0.384722 0.340984 0.230641 -0.331005
C57   C     C_R   0.386514 0.340841 0.173596 -0.050674
C58   C     C_R   0.324511 0.166801 0.261090 -0.225862
C59   C     C_R   0.282151 0.168763 0.316418 -0.226998
C60   C     C_R   0.307601 0.226025 0.346221 0.201043
C61   C     C_R   0.376421 0.283619 0.320280 0.001793
C62   C     C_R   0.256385 0.226460 0.401439 -0.171696
C63   C     C_R   0.269464 0.283445 0.431624 -0.202852
C64   C     C_R   0.416227 0.339418 0.353967 -0.117512
H8    H     H_    0.219274 0.283222 0.473522 0.116680
H9    H     H_    0.226169 0.125089 0.335927 0.132979
H10   H     H_    0.436427 0.325925 0.065097 0.201883
H11   H     H_    0.352656 0.386944 0.250167 0.143826
H12   H     H_    0.289122 0.122139 0.240091 0.152253
H13   H     H_    0.198790 0.183016 0.420902 0.118547
O11   O     O_R   0.323550 0.942140 0.056770 -0.588865
O12   O     O_R   0.647080 0.077200 0.045890 -0.585665
O13   O     O_R   0.813610 0.057920 0.943260 -0.597616
C65   C     C_R   0.478067 0.101108 0.056427 1.022085
O14   O     O_R   0.653470 0.943760 0.063000 -0.582308
O15   O     O_R   0.820050 0.923540 0.960490 -0.604455
C66   C     C_R   0.485017 0.923537 0.078760 1.052609
O16   O     O_R   0.317110 0.076520 0.039540 -0.591780
O17   O     O_3   0.483830 0.993580 0.966380 -0.289838
V3    V     V_3+5 0.760140 0.001190 0.006240 1.185503
O18   O     O_R   0.149510 0.922740 0.954070 -0.590779
C67   C     C_R   0.980819 0.899118 0.943097 0.931789
O19   O     O_R   0.143120 0.056170 0.936970 -0.595748
C68   C     C_R   0.974368 0.076234 0.921209 0.968345
V4    V     V_3+5 0.259690 0.998700 0.993700 1.182556
O20   O     O_3   0.986130 0.006420 0.033620 -0.261569
N1    N     N_3   0.759253 0.841237 0.563319 -0.224494
H14   H     H_    0.615838 0.836615 0.551010 0.120545
H15   H     H_    0.843307 0.847674 0.528358 0.103599
C69   C     C_2   0.099685 0.317112 0.838456 0.522476
H16   H     H_    0.136210 0.368296 0.833426 0.055595
O21   O     O_2   0.139933 0.288775 0.881028 -0.541161
C70   C     C_2   0.683935 0.357124 0.789003 0.548392
H17   H     H_    0.620271 0.353698 0.829309 0.032457
O22   O     O_2   0.659769 0.406395 0.761424 -0.540085
C71   C     C_2   0.269696 0.302245 0.714504 0.478654
H18   H     H_    0.377949 0.270467 0.697477 -0.007243
O23   O     O_2   0.297427 0.361048 0.716067 -0.543043
N2    N     N_3   0.141994 0.148110 0.715907 -0.223081
H19   H     H_    0.170139 0.155972 0.674459 0.110277
H20   H     H_    0.059593 0.105602 0.718661 0.153443
N3    N     N_3   0.739920 0.187301 0.663743 -0.214257
H21   H     H_    0.702055 0.140627 0.677474 0.128086
H22   H     H_    0.612814 0.211732 0.653478 0.094691
N4    N     N_3   0.563463 0.201572 0.786873 -0.198712
H23   H     H_    0.477644 0.239810 0.801015 0.117090
H24   H     H_    0.492199 0.180638 0.753773 0.110444
N5    N     N_3   0.257027 0.634355 0.210979 -0.204750
H25   H     H_    0.231570 0.640917 0.169168 0.115664
H26   H     H_    0.122995 0.628586 0.229500 0.109294
N6    N     N_3   0.062053 0.774628 0.199584 -0.217385
H27   H     H_    0.958899 0.747051 0.220166 0.100209
H28   H     H_    0.027275 0.823757 0.205813 0.121212
N7    N     N_3   0.567466 0.865085 0.288685 -0.203795
H29   H     H_    0.591029 0.858983 0.330629 0.100350
H30   H     H_    0.702485 0.870467 0.270657 0.106825
C72   C     C_2   0.351091 0.404818 0.146162 0.497104
H31   H     H_    0.405788 0.449244 0.164559 0.024445
O24   O     O_2   0.249867 0.409302 0.105417 -0.569110
C73   C     C_2   0.545587 0.392303 0.334206 0.459215
H32   H     H_    0.657608 0.380855 0.304995 0.039219
O25   O     O_2   0.525845 0.448916 0.348676 -0.594568
C74   C     C_2   0.456080 0.224837 0.997923 0.602043
H33   H     H_    0.471768 0.180515 0.974229 -0.020873
O26   O     O_2   0.444126 0.276754 0.973168 -0.533864
C75   C     C_2   0.555330 0.104980 0.175401 0.452526
H34   H     H_    0.638468 0.112417 0.212476 0.036929
O27   O     O_2   0.528390 0.049130 0.159927 -0.609260
N8    N     N_3   0.748654 0.724258 0.504394 -0.225680
H35   H     H_    0.624138 0.696386 0.499546 0.111394
H36   H     H_    0.858443 0.703037 0.481367 0.093662
C76   C     C_2   0.982793 0.900140 0.644297 0.530467
H37   H     H_    0.039201 0.898327 0.603096 0.005779
O28   O     O_2   0.968832 0.953292 0.666464 -0.599803
N9    N     N_3   0.045385 0.775242 0.993351 -0.211052
H38   H     H_    0.921174 0.789263 0.014223 0.097882
H39   H     H_    0.076102 0.727211 0.005519 0.110343
N10   N     N_3   0.869365 0.902616 0.829534 -0.207491
H40   H     H_    0.975915 0.937722 0.835976 0.087410
H41   H     H_    0.744593 0.917597 0.849650 0.130360
N11   N     N_3   0.758510 0.606700 0.748441 -0.194857
H42   H     H_    0.659785 0.618080 0.717489 0.133055
H43   H     H_    0.856256 0.570364 0.737166 0.137014

loop_
_geom_bond_atom_site_label_1
_geom_bond_atom_site_label_2
_geom_bond_distance
_ccdc_geom_bond_type
C28   C33   1.481213 S    
C13   C19   1.443979 A    
C48   C64   1.424853 A    
N10   H40   1.045912 S    
C49   H10   1.078891 S    
C54   C55   1.426875 A    
C4    C6    1.479257 S    
C7    C11   1.401552 A    
C7    C8    1.398159 A    
C1    O6    1.298166 A    
C70   O22   1.219800 D    
C62   C63   1.386696 A    
C57   C72   1.486020 S    
C40   C45   1.486282 S    
C47   C51   1.422700 A    
C58   C59   1.387075 A    
C14   C15   1.391984 A    
C8    N9    1.438449 S    
C16   C17   1.396759 A    
N8    H36   1.045673 S    
C36   C44   1.529355 S    
C69   O21   1.219620 D    
O5    C3    1.299190 A    
C18   C19   1.424728 A    
O15   V3    1.992544 S    
C47   C50   1.409478 A    
O12   C65   1.299310 A    
N1    H14   1.045738 S    
C41   C43   1.547650 S    
C39   H7    1.110103 S    
O18   V4    1.990491 S    
C5    C8    1.403717 A    
C39   C40   1.554492 S    
C35   C39   1.566393 S    
C5    C67   1.482190 S    
N2    H19   1.044935 S    
V4    O20   2.148390 S    
C3    C26   1.448330 S    
C7    H3    1.084425 S    
O13   C68   1.298940 A    
O4    V1    1.998316 S    
O8    V2    1.982113 S    
C31   N2    1.455882 S    
C58   H12   1.079494 S    
C49   C50   1.398118 A    
C71   O23   1.219479 D    
C38   C46   1.216830 T    
C76   H37   1.083863 S    
C14   N11   1.435438 S    
C51   C52   1.436452 A    
O1    V2    1.988778 S    
C11   C15   1.393189 A    
O7    V1    2.158406 S    
N9    H39   1.045697 S    
C28   C31   1.544606 S    
C53   C57   1.418862 A    
O14   C66   1.303088 A    
C62   H13   1.084073 S    
N10   H41   1.045511 S    
C55   C61   1.439830 A    
O9    C4    1.297978 A    
C61   C64   1.438882 A    
C25   C33   1.213098 T    
C70   H17   1.084477 S    
C75   O27   1.220452 D    
C36   N5    1.456024 S    
C75   H34   1.085444 S    
O4    C2    1.297156 A    
C29   C31   1.532982 S    
C41   N7    1.455486 S    
V3    O20   1.710307 S    
C73   H32   1.085439 S    
C30   C32   1.550046 S    
C42   C44   1.537071 S    
C74   H33   1.084477 S    
C55   C56   1.405057 A    
C35   C36   1.545789 S    
C12   C13   1.437019 A    
C72   O24   1.220744 D    
C23   C24   1.551909 S    
C60   C62   1.398404 A    
C59   C60   1.394865 A    
C72   H31   1.085843 S    
C40   C43   1.557265 S    
C23   C27   1.550126 S    
C37   C45   1.216914 T    
C29   N3    1.456731 S    
C13   C14   1.430015 A    
C29   C30   1.546436 S    
C5    C9    1.421616 A    
C25   C68   1.448013 S    
C43   C44   1.548607 S    
C35   H5    1.109993 S    
N11   H43   1.044720 S    
O2    C1    1.303186 A    
C56   C57   1.395496 A    
N5    H26   1.045073 S    
C17   C18   1.417707 A    
C21   N8    1.435856 S    
C17   C76   1.486972 S    
C27   C29   1.541035 S    
C31   C32   1.544511 S    
C16   H4    1.077356 S    
C49   C53   1.407458 A    
N3    H21   1.044866 S    
C19   C22   1.420212 A    
C51   C75   1.491663 S    
N8    H35   1.045354 S    
O19   V4    1.981929 S    
C6    C22   1.401950 A    
O11   V4    1.970650 S    
N9    H38   1.045670 S    
O3    C4    1.298458 A    
C44   N6    1.455575 S    
C26   C34   1.213210 T    
C32   C71   1.494590 S    
C59   H9    1.084300 S    
C56   H11   1.080114 S    
C23   C70   1.497353 S    
O6    V2    1.970852 S    
C63   H8    1.084071 S    
C23   C30   1.557114 S    
C27   C28   1.543828 S    
C64   C73   1.488925 S    
C10   C12   1.442515 A    
C41   C42   1.536663 S    
C35   C42   1.556254 S    
N5    H25   1.044968 S    
O2    V1    1.962482 S    
C65   O16   1.296173 A    
N4    H24   1.042704 S    
C24   C32   1.553613 S    
C1    C37   1.454289 S    
C47   C65   1.479991 S    
O1    C2    1.299775 A    
C9    N10   1.435443 S    
C12   C16   1.404355 A    
C38   C66   1.454283 S    
O5    V1    1.960073 S    
O8    C3    1.298488 A    
O11   C66   1.298217 A    
C24   C69   1.497839 S    
C30   C34   1.482172 S    
C42   C46   1.486713 S    
C43   H6    1.110046 S    
N6    H28   1.044955 S    
C15   H1    1.085150 S    
N11   H42   1.044732 S    
O9    V2    1.990567 S    
N6    H27   1.043390 S    
C50   C74   1.491860 S    
C52   C53   1.423661 A    
O3    V1    1.992519 S    
V1    O10   1.710392 S    
C69   H16   1.084399 S    
C20   C21   1.406401 A    
C18   C20   1.424797 A    
C73   O25   1.220377 D    
N7    H29   1.044966 S    
N1    H15   1.045853 S    
O14   V3    1.962515 S    
O17   V4    1.702175 S    
V2    O10   2.148349 S    
O18   C67   1.298321 A    
C22   H2    1.074781 S    
C39   C41   1.545880 S    
C74   O26   1.221365 D    
C76   O28   1.221646 D    
O7    V2    1.703494 S    
O19   C68   1.298532 A    
C6    C21   1.403443 A    
N2    H20   1.044950 S    
N3    H22   1.043156 S    
O16   V4    1.993369 S    
C36   C40   1.536311 S    
C2    C48   1.477583 S    
C60   C61   1.419885 A    
O15   C67   1.297780 A    
C24   C28   1.554638 S    
C48   C63   1.396832 A    
O17   V3    2.158354 S    
C52   C54   1.437168 A    
N7    H30   1.045176 S    
C54   C58   1.409580 A    
C10   C11   1.414104 A    
C20   N1    1.435251 S    
O12   V3    1.998301 S    
C9    C10   1.438262 A    
C27   N4    1.459596 S    
C71   H18   1.079682 S    
O13   V3    1.960244 S    
N4    H23   1.043865 S    
