data_mof_unit_38094.cif
_audit_creation_date              2012-10-26T19:42:17-0400
_audit_creation_method            fapswitch 2.2
_symmetry_space_group_name_H-M    P1
_symmetry_Int_Tables_number       1
_space_group_crystal_system       triclinic
_cell_length_a                    9.629572
_cell_length_b                    10.819167
_cell_length_c                    17.27769
_cell_angle_alpha                 92.39408
_cell_angle_beta                  85.586663
_cell_angle_gamma                 89.116226
_cell_volume                      1792.84012068

loop_
_atom_site_label
_atom_site_type_symbol
_atom_type_description
_atom_site_fract_x
_atom_site_fract_y
_atom_site_fract_z
_atom_type_partial_charge
C1    C     C_R   0.498801 0.737749 0.497085 0.553426
C2    C     C_R   0.529185 0.503068 0.265275 0.057324
C3    C     C_R   0.244340 0.898741 0.472508 -0.124652
C4    C     C_R   0.481223 0.498242 0.649564 0.586333
C5    C     C_R   0.121208 0.969754 0.484477 -0.070219
C6    C     C_R   0.117826 0.076560 0.534041 0.029312
C7    C     C_R   0.242972 0.123208 0.558289 0.257648
C8    C     C_R   0.370645 0.066661 0.527641 -0.006638
C9    C     C_R   0.369196 0.942977 0.500040 -0.018821
C10   C     C_R   0.495347 0.872976 0.497018 0.006158
C11   C     C_R   0.620960 0.934633 0.502763 -0.133649
C12   C     C_R   0.374641 0.560856 0.781541 -0.059485
C13   C     C_R   0.622623 0.062262 0.505298 -0.131387
C14   C     C_R   0.497818 0.130073 0.517585 -0.006881
C15   C     C_R   0.872650 0.333378 0.398702 -0.093209
C16   C     C_R   0.499630 0.263423 0.506839 0.541429
C17   C     C_R   0.952420 0.250289 0.349898 -0.170575
C18   C     C_R   0.095582 0.250290 0.349538 -0.162150
C19   C     C_R   0.159921 0.333303 0.398023 -0.062779
C20   C     C_R   0.082804 0.418001 0.450067 0.178641
C21   C     C_R   0.933424 0.418059 0.450194 0.168824
C22   C     C_R   0.918380 0.578391 0.547190 0.025778
C23   C     C_R   0.429401 0.545861 0.144563 -0.097206
C24   C     C_R   0.066046 0.578399 0.547128 0.017366
C25   C     C_R   0.518587 0.501610 0.350182 0.557080
C26   C     C_R   0.469330 0.485582 0.733665 0.035416
C27   C     C_R   0.550252 0.393537 0.765602 0.212458
C28   C     C_R   0.537927 0.379670 0.846888 0.002345
C29   C     C_R   0.446583 0.459229 0.894253 -0.019596
C30   C     C_R   0.363658 0.546539 0.861262 -0.133928
C31   C     C_1   0.005327 0.935720 0.440591 0.169774
C32   C     C_1   0.989339 0.140319 0.561164 0.247513
C33   C     C_1   0.292400 0.657509 0.750703 0.213529
C34   C     C_R   0.419957 0.553302 0.225882 0.239751
C35   C     C_1   0.613370 0.281882 0.881478 0.189096
C36   C     C_R   0.648102 0.451679 0.223049 -0.174194
C37   C     C_R   0.656039 0.444608 0.142266 -0.121416
C38   C     C_R   0.545141 0.488236 0.102796 0.008967
C39   C     C_2   0.438437 0.458477 0.979210 -0.122654
C40   C     C_2   0.552753 0.474489 0.017757 -0.110227
Cu1   Cu    Cu3+1 0.359340 0.500010 0.500010 1.000854
Cu2   Cu    Cu3+1 0.640660 0.499990 0.499990 0.986712
H1    H     H_    0.747148 0.402039 0.110580 0.130611
H2    H     H_    0.114545 0.642979 0.585674 0.142447
H3    H     H_    0.733409 0.413847 0.252514 0.127352
H4    H     H_    0.654627 0.476713 0.986049 0.139684
H5    H     H_    0.293391 0.606756 0.898381 0.131459
H6    H     H_    0.346849 0.586261 0.114165 0.093809
H7    H     H_    0.335753 0.456564 0.009798 0.126478
H8    H     H_    0.692606 0.261479 0.744232 0.346675
H9    H     H_    0.328377 0.224496 0.636404 0.337178
H10   H     H_    0.240177 0.640024 0.231006 0.319945
H11   H     H_    0.718486 0.884176 0.502443 0.172053
H12   H     H_    0.243941 0.815175 0.435882 0.179237
H13   H     H_    0.721216 0.107231 0.496340 0.172019
H14   H     H_    0.857115 0.642847 0.585940 0.123537
H15   H     H_    0.763965 0.327531 0.393317 0.175372
H16   H     H_    0.902523 0.186067 0.311578 0.138138
H17   H     H_    0.157657 0.185986 0.310954 0.132121
H18   H     H_    0.270264 0.326947 0.391794 0.176584
N1    N     N_R   0.852190 0.498790 0.499250 -0.237830
N2    N     N_R   0.148060 0.498710 0.499220 -0.237138
N3    N     N_1   0.915278 0.908359 0.403103 -0.318232
N4    N     N_1   0.888664 0.193418 0.584700 -0.252432
N5    N     N_1   0.226738 0.735047 0.726077 -0.295963
N6    N     N_1   0.673552 0.203800 0.909162 -0.286550
O1    O     O_R   0.381190 0.680360 0.500010 -0.510503
O2    O     O_3   0.237369 0.220237 0.613276 -0.653644
O3    O     O_3   0.306764 0.610639 0.267540 -0.684907
O4    O     O_R   0.618760 0.680340 0.500000 -0.511862
O5    O     O_R   0.367440 0.500030 0.613600 -0.488598
O6    O     O_R   0.605010 0.500010 0.613590 -0.452316
O7    O     O_R   0.381240 0.319660 0.500000 -0.506403
O8    O     O_R   0.618810 0.319640 0.499990 -0.509406
O9    O     O_R   0.394990 0.499990 0.386410 -0.473850
O10   O     O_R   0.632560 0.499970 0.386400 -0.540753
O11   O     O_3   0.636250 0.317890 0.715180 -0.670378

loop_
_geom_bond_atom_site_label_1
_geom_bond_atom_site_label_2
_ccdc_geom_bond_type
C6    C32   S    
Cu1   Cu2   S    
C19   C20   A    
C33   N5    T    
C7    C8    A    
Cu1   O1    S    
C40   H4    S    
C26   C27   A    
C29   C30   A    
C16   O8    A    
C36   C37   A    
C5    C6    A    
C3    H12   S    
Cu2   O4    S    
C18   C19   A    
H10   O3    S    
C7    O2    S    
C28   C35   S    
C8    C9    A    
C8    C14   A    
C9    C10   A    
C21   N1    A    
C11   H11   S    
C17   H16   S    
Cu1   O5    S    
C2    C34   A    
C13   C14   A    
C15   H15   S    
Cu1   N2    S    
Cu2   O8    S    
C16   O7    A    
C31   N3    T    
C30   H5    S    
C32   N4    T    
C39   C40   D    
C22   H14   S    
C35   N6    T    
C3    C5    A    
C12   C26   A    
C25   O9    A    
C37   H1    S    
C37   C38   A    
C3    C9    A    
Cu1   O9    S    
Cu2   N1    S    
C23   C34   A    
C29   C39   S    
Cu2   O6    S    
C17   C18   A    
C36   H3    S    
C34   O3    S    
C39   H7    S    
C24   H2    S    
C14   C16   S    
H8    O11   S    
C4    O6    A    
C2    C36   A    
C15   C17   A    
C28   C29   A    
C24   N2    A    
C23   H6    S    
C12   C30   A    
C1    C10   S    
C27   O11   S    
C4    C26   S    
C6    C7    A    
C19   H18   S    
C23   C38   A    
Cu2   O10   S    
C1    O4    A    
C25   O10   A    
C22   N1    A    
C38   C40   S    
C11   C13   A    
C1    O1    A    
C2    C25   S    
C22   C24   A    
H9    O2    S    
C20   N2    A    
C10   C11   A    
Cu1   O7    S    
C18   H17   S    
C15   C21   A    
C20   C21   A    
C27   C28   A    
C13   H13   S    
C12   C33   S    
C4    O5    A    
C5    C31   S    
