data_mof_unit_41670.cif
_audit_creation_date              2012-12-11T17:07:52-0500
_audit_creation_method            fapswitch 2.2
_symmetry_space_group_name_H-M    P1
_symmetry_Int_Tables_number       1
_space_group_crystal_system       triclinic
_cell_length_a                    17.262222
_cell_length_b                    17.286986
_cell_length_c                    17.522133
_cell_angle_alpha                 89.409653
_cell_angle_beta                  89.717207
_cell_angle_gamma                 89.821831
_cell_volume                      5228.44537769

loop_
_atom_site_label
_atom_site_type_symbol
_atom_type_description
_atom_site_fract_x
_atom_site_fract_y
_atom_site_fract_z
_atom_type_partial_charge
C1    C     C_R   0.415673 0.325900 0.860081 0.346402
C2    C     C_R   0.192581 0.899029 0.384128 0.349150
C3    C     C_R   0.704825 0.762545 0.321355 -0.215554
C4    C     C_R   0.192365 0.259141 0.736699 -0.216196
C5    C     C_R   0.247361 0.845551 0.774425 -0.200643
C6    C     C_R   0.789406 0.682533 0.663080 -0.196600
C7    C     C_R   0.746878 0.144056 0.776428 -0.190381
C8    C     C_R   0.706119 0.184821 0.831130 -0.207557
C9    C     C_R   0.748499 0.642309 0.718807 -0.193210
C10   C     C_R   0.278894 0.812514 0.840262 -0.206195
C11   C     C_R   0.235187 0.306365 0.782628 -0.198135
C12   C     C_R   0.668694 0.732139 0.258012 -0.199017
C13   C     C_R   0.104603 0.200382 0.405988 0.313002
C14   C     C_R   0.817702 0.288967 0.161677 -0.202921
C15   C     C_R   0.344646 0.250919 0.271971 -0.191768
C16   C     C_R   0.234813 0.699116 0.206070 -0.204921
C17   C     C_3   0.439219 0.242656 0.853909 -1.066631
C18   C     C_3   0.776413 0.424696 0.917937 -1.109366
C19   C     C_3   0.559162 0.759022 0.855363 -1.072065
C20   C     C_3   0.229479 0.577412 0.953464 -1.069646
C21   C     C_3   0.432942 0.758627 0.143897 -1.069234
C22   C     C_3   0.773426 0.568610 0.108017 -1.076343
C23   C     C_3   0.575230 0.224559 0.076104 -1.101606
C24   C     C_R   0.822690 0.087613 0.362195 0.338776
C25   C     C_3   0.230201 0.402469 0.073177 -1.074461
C26   C     C_3   0.925809 0.724049 0.409454 -1.076190
C27   C     C_3   0.269168 0.938827 0.376686 -1.073205
C28   C     C_3   0.070273 0.271502 0.442225 -1.066938
C29   C     C_3   0.738793 0.066075 0.360122 -1.064402
C30   C     C_3   0.932943 0.260197 0.642771 -1.072759
C31   C     C_3   0.276171 0.074154 0.588552 -1.099069
C32   C     C_3   0.089785 0.729664 0.587037 -1.078097
C33   C     C_3   0.724579 0.925707 0.575075 -1.096182
C34   C     C_R   0.912763 0.176087 0.638804 0.342634
C35   C     C_R   0.196660 0.104954 0.604614 0.343189
C36   C     C_R   0.097880 0.808907 0.619808 0.340775
C37   C     C_R   0.801324 0.891269 0.596507 0.329431
C38   C     C_3   0.924451 0.213027 0.847673 -0.489897
C39   C     C_3   0.617152 0.764147 0.592913 -0.505141
C40   C     C_3   0.113034 0.674366 0.749867 -0.520785
C41   C     C_R   0.698477 0.391086 0.901639 0.335052
C42   C     C_3   0.336103 0.278829 0.581673 -0.493457
C43   C     C_3   0.878868 0.810101 0.205175 -0.499182
C44   C     C_3   0.781755 0.072918 0.156923 -0.492435
C45   C     C_3   0.135238 0.350841 0.307689 -0.516997
C46   C     C_3   0.316689 0.720496 0.415767 -0.475477
C47   C     C_3   0.365800 0.665082 0.369522 -0.503402
C48   C     C_3   0.173327 0.383894 0.238083 -0.525759
C49   C     C_3   0.738297 0.116179 0.096015 -0.496416
C50   C     C_3   0.838487 0.778500 0.135669 -0.502231
C51   C     C_3   0.383510 0.330368 0.632689 -0.492179
C52   C     C_R   0.585431 0.676580 0.860653 0.347057
C53   C     C_3   0.147187 0.637668 0.819542 -0.521653
C54   C     C_3   0.572526 0.720612 0.653133 -0.476751
C55   C     C_3   0.880048 0.257600 0.906748 -0.490889
C56   C     C_R   0.389661 0.697539 0.902463 -0.186148
C57   C     C_R   0.329513 0.423567 0.857820 -0.219869
C58   C     C_R   0.606703 0.302286 0.900621 -0.190858
C59   C     C_R   0.670381 0.578751 0.856784 -0.216384
C60   C     C_R   0.403788 0.311912 0.124571 -0.200889
C61   C     C_R   0.329537 0.575693 0.142348 -0.225933
C62   C     C_R   0.603459 0.695282 0.107234 -0.217974
C63   C     C_R   0.299492 0.606962 0.910394 0.311788
C64   C     C_R   0.697564 0.392833 0.100427 -0.182912
C65   C     C_R   0.920723 0.172268 0.357837 -0.193092
C66   C     C_R   0.804742 0.894623 0.392746 -0.197312
C67   C     C_R   0.100143 0.808385 0.383484 -0.230590
C68   C     C_R   0.197050 0.111113 0.402246 -0.183987
C69   C     C_R   0.893992 0.802109 0.600841 -0.190742
C70   C     C_R   0.828672 0.077809 0.642606 -0.213780
C71   C     C_R   0.104155 0.194411 0.608898 -0.210614
C72   C     C_R   0.184724 0.905040 0.628331 -0.207655
C73   C     C_R   0.357489 0.361658 0.817648 0.015463
C74   C     C_R   0.414196 0.674141 0.139647 0.342113
C75   C     C_R   0.684112 0.313606 0.886426 0.017777
C76   C     C_R   0.643153 0.642046 0.816092 0.014007
C77   C     C_R   0.311257 0.683758 0.892909 0.036665
C78   C     C_R   0.356631 0.637219 0.182332 0.017703
C79   C     C_R   0.676694 0.679079 0.130459 0.014853
C80   C     C_R   0.686021 0.314957 0.113141 0.010073
C81   C     C_R   0.331163 0.330768 0.152544 0.043355
C82   C     C_R   0.821829 0.819983 0.373960 0.009546
C83   C     C_R   0.173148 0.826626 0.359341 0.024114
C84   C     C_R   0.182005 0.189361 0.390175 0.035556
C85   C     C_R   0.694326 0.604095 0.110317 0.352828
C86   C     C_R   0.857418 0.145625 0.317754 0.007627
C87   C     C_R   0.855279 0.140416 0.683115 0.016863
C88   C     C_R   0.179464 0.178997 0.626485 0.024460
C89   C     C_R   0.163296 0.833948 0.659241 0.029689
C90   C     C_R   0.815574 0.813456 0.612403 0.016799
C91   C     C_R   0.816107 0.268467 0.849808 0.162026
C92   C     C_R   0.640889 0.730171 0.703633 0.155760
C93   C     C_R   0.180574 0.714967 0.839085 0.168233
C94   C     C_R   0.346581 0.290027 0.699157 0.153199
C95   C     C_R   0.791136 0.730242 0.189497 0.149283
C96   C     C_R   0.608341 0.301214 0.097654 0.341492
C97   C     C_R   0.728539 0.182366 0.150258 0.164580
C98   C     C_R   0.246645 0.349062 0.266683 0.169770
C99   C     C_R   0.338258 0.706816 0.299503 0.152646
C100  C     C_R   0.293554 0.756386 0.341601 0.136965
C101  C     C_R   0.212422 0.318921 0.331713 0.175982
C102  C     C_R   0.770227 0.141793 0.206100 0.163652
C103  C     C_R   0.826821 0.759303 0.252066 0.165112
C104  C     C_R   0.303419 0.242846 0.652743 0.165047
C105  C     C_R   0.148872 0.748278 0.774543 0.179148
C106  C     C_R   0.682614 0.771884 0.648470 0.160850
C107  C     C_R   0.306684 0.397283 0.113491 0.315507
C108  C     C_R   0.857563 0.226044 0.795704 0.159146
C109  C     C_R   0.737802 0.252040 0.863072 0.045654
C110  C     C_R   0.676272 0.669832 0.743958 0.049129
C111  C     C_R   0.253447 0.739234 0.864902 0.033091
C112  C     C_R   0.311657 0.323888 0.762378 0.050936
C113  C     C_R   0.711899 0.719541 0.190818 0.054745
C114  C     C_R   0.747520 0.259508 0.133690 0.042828
C115  C     C_R   0.305875 0.308938 0.229582 0.027895
C116  C     C_R   0.307347 0.675564 0.233779 0.056682
C117  C     C_R   0.219847 0.776574 0.316504 0.060397
C118  C     C_R   0.896216 0.804131 0.394217 0.340535
C119  C     C_R   0.237176 0.247018 0.361083 0.025428
C120  C     C_R   0.829715 0.178118 0.245595 0.048305
C121  C     C_R   0.783774 0.778058 0.316815 0.056638
C122  C     C_R   0.225842 0.229214 0.670463 0.050343
C123  C     C_R   0.187792 0.807215 0.734988 0.031080
C124  C     C_R   0.760075 0.752531 0.633514 0.051691
C125  C     C_R   0.821106 0.168140 0.754231 0.049737
C126  C     C_R   0.190855 0.749824 0.247743 -0.210819
C127  C     C_R   0.311394 0.221585 0.338973 -0.210699
C128  C     C_R   0.857521 0.249356 0.218401 -0.189028
H1    H     H_    0.933000 0.151053 0.863266 0.198983
H2    H     H_    0.174556 0.448205 0.237244 0.198725
H3    H     H_    0.720020 0.042899 0.416478 0.252107
H4    H     H_    0.880222 0.294588 0.655952 0.255129
H5    H     H_    0.976233 0.269967 0.688147 0.246858
H6    H     H_    0.954079 0.281853 0.586946 0.251047
H7    H     H_    0.309694 0.116908 0.554605 0.254990
H8    H     H_    0.306661 0.061634 0.642923 0.253338
H9    H     H_    0.273090 0.021393 0.553478 0.252974
H10   H     H_    0.146442 0.699204 0.586611 0.251074
H11   H     H_    0.044502 0.695995 0.617268 0.246594
H12   H     H_    0.072898 0.734114 0.526476 0.253719
H13   H     H_    0.682469 0.087911 0.082114 0.199051
H14   H     H_    0.697070 0.889868 0.530748 0.256939
H15   H     H_    0.686585 0.929904 0.626129 0.251780
H16   H     H_    0.732132 0.984315 0.549899 0.258401
H17   H     H_    0.877242 0.743016 0.099134 0.193775
H18   H     H_    0.367084 0.392535 0.628481 0.196189
H19   H     H_    0.191315 0.593538 0.803876 0.206623
H20   H     H_    0.561455 0.659262 0.638149 0.197917
H21   H     H_    0.908939 0.312814 0.921318 0.198334
H22   H     H_    0.977533 0.243279 0.827408 0.187541
H23   H     H_    0.632680 0.728314 0.542673 0.197868
H24   H     H_    0.140310 0.648017 0.699174 0.217094
H25   H     H_    0.589743 0.820603 0.578382 0.198458
H26   H     H_    0.291806 0.310755 0.547739 0.198484
H27   H     H_    0.940582 0.792031 0.209428 0.192785
H28   H     H_    0.750217 0.021266 0.178800 0.191697
H29   H     H_    0.113585 0.396823 0.346343 0.208365
H30   H     H_    0.267469 0.692082 0.446055 0.198097
H31   H     H_    0.429028 0.672651 0.378470 0.193712
H32   H     H_    0.149216 0.355516 0.187251 0.219081
H33   H     H_    0.774598 0.131306 0.045401 0.197506
H34   H     H_    0.803332 0.822544 0.104528 0.201389
H35   H     H_    0.446771 0.318582 0.629347 0.196442
H36   H     H_    0.048650 0.676154 0.751401 0.200275
H37   H     H_    0.101850 0.618273 0.860725 0.208379
H38   H     H_    0.520963 0.752757 0.674152 0.192171
H39   H     H_    0.862321 0.221818 0.956978 0.197208
H40   H     H_    0.414599 0.753929 0.908841 0.125783
H41   H     H_    0.281141 0.460433 0.843028 0.130535
H42   H     H_    0.580477 0.246892 0.910439 0.136043
H43   H     H_    0.713448 0.538044 0.838340 0.143794
H44   H     H_    0.439113 0.262938 0.139980 0.134881
H45   H     H_    0.279596 0.540665 0.156026 0.132790
H46   H     H_    0.577768 0.751932 0.105715 0.144592
H47   H     H_    0.372421 0.237962 0.548402 0.192404
H48   H     H_    0.753058 0.419166 0.092706 0.134102
H49   H     H_    0.960875 0.216481 0.340359 0.125164
H50   H     H_    0.747662 0.919466 0.392549 0.143579
H51   H     H_    0.073041 0.752654 0.379819 0.146067
H52   H     H_    0.253919 0.087273 0.410585 0.132895
H53   H     H_    0.923107 0.747247 0.595721 0.127933
H54   H     H_    0.784766 0.037266 0.660131 0.142186
H55   H     H_    0.078725 0.251143 0.609492 0.148309
H56   H     H_    0.233536 0.939615 0.643667 0.138938
H57   H     H_    0.134497 0.767804 0.226886 0.137501
H58   H     H_    0.867865 0.872799 0.214240 0.199223
H59   H     H_    0.338264 0.171413 0.365074 0.131274
H60   H     H_    0.905996 0.278105 0.244469 0.125248
H61   H     H_    0.671570 0.775898 0.372180 0.132373
H62   H     H_    0.133246 0.245576 0.753090 0.136230
H63   H     H_    0.274968 0.896960 0.752066 0.131229
H64   H     H_    0.847665 0.663100 0.651053 0.126037
H65   H     H_    0.716911 0.098113 0.747593 0.128633
H66   H     H_    0.646591 0.168131 0.840542 0.130851
H67   H     H_    0.777212 0.593799 0.745890 0.128356
H68   H     H_    0.330239 0.838847 0.863478 0.132011
H69   H     H_    0.843595 0.062369 0.142047 0.198638
H70   H     H_    0.209163 0.327794 0.834759 0.140882
H71   H     H_    0.607424 0.718920 0.261129 0.138527
H72   H     H_    0.837498 0.346618 0.147888 0.129074
H73   H     H_    0.396398 0.222862 0.251043 0.130604
H74   H     H_    0.213187 0.679676 0.151549 0.144602
H75   H     H_    0.487319 0.236822 0.812127 0.252011
H76   H     H_    0.455767 0.219404 0.910764 0.249245
H77   H     H_    0.389846 0.207092 0.834408 0.256603
H78   H     H_    0.805512 0.389824 0.962845 0.258793
H79   H     H_    0.812161 0.426341 0.865152 0.254737
H80   H     H_    0.092830 0.305598 0.291599 0.202886
H81   H     H_    0.770800 0.484113 0.939744 0.256094
H82   H     H_    0.608208 0.796783 0.838096 0.252371
H83   H     H_    0.511891 0.765046 0.813112 0.252563
H84   H     H_    0.540010 0.779196 0.912319 0.248085
H85   H     H_    0.189440 0.625130 0.968941 0.255690
H86   H     H_    0.198774 0.532515 0.920801 0.243191
H87   H     H_    0.246709 0.550459 0.007899 0.271172
H88   H     H_    0.379993 0.792592 0.157209 0.261166
H89   H     H_    0.475880 0.768524 0.189646 0.247333
H90   H     H_    0.454324 0.780210 0.087802 0.248484
H91   H     H_    0.351431 0.760601 0.450961 0.197198
H92   H     H_    0.819529 0.612749 0.107789 0.253408
H93   H     H_    0.781434 0.530018 0.158338 0.254504
H94   H     H_    0.781116 0.536914 0.054243 0.250157
H95   H     H_    0.615108 0.195007 0.036161 0.256526
H96   H     H_    0.565468 0.188288 0.127854 0.253890
H97   H     H_    0.520067 0.232224 0.044862 0.255127
H98   H     H_    0.200470 0.345638 0.073820 0.254326
H99   H     H_    0.193154 0.448226 0.098139 0.247822
H100  H     H_    0.239262 0.416851 0.012008 0.267039
H101  H     H_    0.877216 0.685425 0.426359 0.259296
H102  H     H_    0.345296 0.604180 0.372730 0.198026
H103  H     H_    0.953170 0.700698 0.357081 0.248232
H104  H     H_    0.967239 0.724114 0.457125 0.252214
H105  H     H_    0.315348 0.900153 0.355465 0.253493
H106  H     H_    0.264070 0.986392 0.334189 0.256245
H107  H     H_    0.287537 0.960277 0.433105 0.248733
H108  H     H_    0.115955 0.309216 0.466052 0.257311
H109  H     H_    0.032482 0.304290 0.402819 0.240411
H110  H     H_    0.030793 0.254430 0.488727 0.257315
H111  H     H_    0.703018 0.118363 0.348699 0.253940
H112  H     H_    0.728302 0.023440 0.314584 0.248394
N1    N     N_R   0.425360 0.368540 0.922560 -0.054515
N2    N     N_R   0.131460 0.925360 0.422560 -0.055696
N3    N     N_R   0.074640 0.131460 0.422560 -0.055774
N4    N     N_R   0.868540 0.074640 0.422560 -0.056458
N5    N     N_R   0.925360 0.131460 0.577440 -0.056825
N6    N     N_R   0.131460 0.074640 0.577440 -0.055087
N7    N     N_R   0.074640 0.868540 0.577440 -0.055425
N8    N     N_R   0.868540 0.925360 0.577440 -0.055366
N9    N     N_R   0.425340 0.631500 0.922560 -0.052402
N10   N     N_R   0.368500 0.425340 0.922560 -0.049667
N11   N     N_R   0.574660 0.368500 0.922560 -0.051822
N12   N     N_R   0.631460 0.425360 0.922560 -0.056216
N13   N     N_R   0.631500 0.574660 0.922560 -0.053787
N14   N     N_R   0.425340 0.368500 0.077440 -0.050730
N15   N     N_R   0.368500 0.574660 0.077440 -0.051072
N16   N     N_R   0.574660 0.631500 0.077440 -0.055016
N17   N     N_R   0.631500 0.425340 0.077440 -0.050393
N18   N     N_R   0.925340 0.131500 0.422560 -0.051975
N19   N     N_R   0.868500 0.925340 0.422560 -0.050465
N20   N     N_R   0.074660 0.868500 0.422560 -0.051845
N21   N     N_R   0.131500 0.074660 0.422560 -0.049342
N22   N     N_R   0.925340 0.868500 0.577440 -0.054721
N23   N     N_R   0.574640 0.631460 0.922560 -0.056184
N24   N     N_R   0.868500 0.074660 0.577440 -0.053377
N25   N     N_R   0.074660 0.131500 0.577440 -0.051087
N26   N     N_R   0.131500 0.925340 0.577440 -0.052777
N27   N     N_R   0.368540 0.574640 0.922560 -0.053736
N28   N     N_R   0.425360 0.631460 0.077440 -0.053030
N29   N     N_R   0.631460 0.574640 0.077440 -0.057443
N30   N     N_R   0.574640 0.368540 0.077440 -0.056451
N31   N     N_R   0.368540 0.425360 0.077440 -0.051876
N32   N     N_R   0.925360 0.868540 0.422560 -0.055788
Ni1   Ni    Ni4+2 0.500000 0.369720 0.000000 0.202797
Ni2   Ni    Ni4+2 0.630280 0.500000 0.000000 0.200847
Ni3   Ni    Ni4+2 0.500000 0.630280 0.000000 0.201932
Ni4   Ni    Ni4+2 0.369720 0.500000 0.000000 0.194158
Ni5   Ni    Ni4+2 1.000000 0.869720 0.500000 0.196888
Ni6   Ni    Ni4+2 0.130280 0.000000 0.500000 0.202422
Ni7   Ni    Ni4+2 1.000000 0.130280 0.500000 0.200588
Ni8   Ni    Ni4+2 0.869720 0.000000 0.500000 0.201265

loop_
_geom_bond_atom_site_label_1
_geom_bond_atom_site_label_2
_ccdc_geom_bond_type
C44   C49   S    
C36   C89   A    
C39   C106  S    
C22   H92   S    
C81   C107  A    
N18   Ni7   S    
C67   C83   A    
N32   Ni5   S    
N20   Ni5   S    
C59   N13   A    
C19   H82   S    
C23   H95   S    
C25   H98   S    
C55   H39   S    
C63   N27   A    
C6    C9    A    
C2    C83   A    
C68   C84   A    
C14   C128  A    
C7    C8    A    
C53   H19   S    
C47   H31   S    
N26   Ni6   S    
C70   N24   A    
C48   H32   S    
C13   C84   A    
C40   H24   S    
N17   Ni2   S    
C96   N30   A    
C65   H49   S    
N29   Ni2   S    
C39   H25   S    
C19   H83   S    
C32   C36   S    
C42   H26   S    
C41   N12   A    
C40   H36   S    
N1    Ni1   S    
C42   H47   S    
C3    H61   S    
C119  C127  A    
N11   Ni1   S    
C59   H43   S    
C50   C95   S    
C39   C54   S    
C104  C122  A    
N15   N28   A    
C57   C73   A    
C62   H46   S    
C39   H23   S    
N14   N31   A    
N4    Ni8   S    
C47   C99   S    
C23   C96   S    
C105  C123  A    
C17   H75   S    
C60   C81   A    
C22   C85   S    
C85   N29   A    
N6    Ni6   S    
C24   C29   S    
C55   C91   S    
C3    C12   A    
C27   H106  S    
C28   H110  S    
C61   H45   S    
N7    N26   A    
C74   N28   A    
C19   C52   S    
C70   H54   S    
N21   Ni6   S    
C30   H6    S    
C49   H13   S    
C127  H59   S    
N9    Ni3   S    
C13   C28   S    
C51   H35   S    
C2    C27   S    
C6    C124  A    
C108  C125  A    
C64   H48   S    
N6    N25   A    
C117  C126  A    
C82   C121  S    
C49   H33   S    
C67   N20   A    
C29   H111  S    
C27   H107  S    
C42   C51   S    
C34   C87   A    
C93   C105  A    
N13   N23   A    
C94   C104  A    
C44   H69   S    
C71   N25   A    
C21   H89   S    
C38   C108  S    
C64   C80   A    
N30   Ni1   S    
C48   H2    S    
C58   N11   A    
C23   H97   S    
N2    N20   A    
C54   H38   S    
C16   H74   S    
C70   C87   A    
C16   C116  A    
C72   N26   A    
C68   N21   A    
C15   H73   S    
N14   Ni1   S    
C95   C103  A    
C58   C75   A    
C55   H21   S    
C57   H41   S    
C33   H16   S    
N31   Ni4   S    
C22   H93   S    
N27   Ni4   S    
C75   C109  S    
C32   H10   S    
C38   C55   S    
C53   C93   S    
C19   H84   S    
C60   H44   S    
C38   H1    S    
C4    H62   S    
C62   C79   A    
C65   C86   A    
C18   H81   S    
N4    N18   A    
C72   H56   S    
C32   H11   S    
C88   C122  S    
C26   H101  S    
C18   C41   S    
N3    Ni7   S    
C99   C116  A    
C47   H102  S    
C30   C34   S    
C91   C109  A    
N25   Ni7   S    
C89   C123  S    
C51   H18   S    
C26   H104  S    
C14   C114  A    
N22   Ni5   S    
C107  N31   A    
C21   C74   S    
C68   H52   S    
C118  N32   A    
C33   H15   S    
C56   C77   A    
C24   C86   A    
C18   H79   S    
C58   H42   S    
C101  C119  A    
N7    Ni5   S    
C17   H76   S    
C62   N16   A    
C20   H87   S    
C54   C92   S    
C10   H68   S    
C28   H109  S    
C66   C82   A    
C22   H94   S    
C35   C88   A    
C44   H28   S    
C99   C100  A    
C61   C78   A    
C30   H5    S    
N19   Ni8   S    
C56   N9    A    
C81   C115  S    
C34   N5    A    
C60   N14   A    
N11   N12   A    
C21   H88   S    
C45   H29   S    
C10   C111  A    
N5    Ni7   S    
C7    C125  A    
C4    C11   A    
C8    H66   S    
C2    N2    A    
N16   Ni3   S    
C5    H63   S    
C45   C101  S    
C41   C75   A    
C28   H108  S    
C83   C117  S    
C1    N1    A    
C50   H17   S    
C92   C106  A    
C93   C111  A    
C66   N19   A    
C45   H80   S    
N23   Ni3   S    
C21   H90   S    
C31   H9    S    
C33   H14   S    
C31   C35   S    
C80   C96   A    
N13   Ni2   S    
N2    Ni6   S    
C106  C124  A    
C69   C90   A    
C103  C121  A    
C15   C127  A    
C79   C85   A    
C102  C120  A    
C64   N17   A    
C25   C107  S    
C73   C112  S    
C54   H20   S    
C12   C113  A    
C63   C77   A    
C45   C48   S    
C53   H37   S    
C9    C110  A    
N8    N22   A    
C46   C100  S    
C46   C47   S    
C35   N6    A    
C44   C102  S    
C46   H91   S    
C29   H112  S    
C87   C125  S    
C37   C90   A    
C11   C112  A    
C128  H60   S    
C97   C114  A    
C90   C124  S    
C91   C108  A    
C126  H57   S    
C78   C116  S    
N1    N10   A    
C97   C102  A    
C52   N23   A    
C80   C114  S    
C31   H8    S    
C52   C76   A    
C43   C103  S    
C42   C104  S    
C120  C128  A    
C43   C50   S    
C32   H12   S    
C69   N22   A    
N17   N30   A    
C26   H103  S    
C98   C101  A    
C48   C98   S    
N16   N29   A    
C5    C123  A    
C25   H100  S    
C1    C17   S    
C43   H58   S    
C26   C118  S    
N15   Ni4   S    
C18   H78   S    
C1    C73   A    
C50   H34   S    
N9    N27   A    
C20   C63   S    
C79   C113  S    
C65   N18   A    
C14   H72   S    
C11   H70   S    
C5    C10   A    
C67   H51   S    
C9    H67   S    
C20   H85   S    
C72   C89   A    
C69   H53   S    
C92   C110  A    
C98   C115  A    
C13   N3    A    
C16   C126  A    
C95   C113  A    
C84   C119  S    
C30   H4    S    
N28   Ni3   S    
C17   H77   S    
C7    H65   S    
N24   Ni8   S    
C4    C122  A    
C25   H99   S    
C24   N4    A    
C27   H105  S    
C15   C115  A    
C29   H3    S    
C12   H71   S    
C76   C110  S    
C33   C37   S    
N8    Ni8   S    
C31   H7    S    
C43   H27   S    
C77   C111  S    
C51   C94   S    
C49   C97   S    
C71   C88   A    
C37   N8    A    
C23   H96   S    
C61   N15   A    
C40   C53   S    
C74   C78   A    
C6    H64   S    
C56   H40   S    
C36   N7    A    
C82   C118  A    
N10   Ni4   S    
C86   C120  S    
C100  C117  A    
N3    N21   A    
C57   N10   A    
C8    C109  A    
N5    N24   A    
N12   Ni2   S    
C59   C76   A    
C38   H22   S    
C94   C112  A    
N19   N32   A    
C3    C121  A    
C20   H86   S    
C40   C105  S    
C66   H50   S    
C71   H55   S    
C46   H30   S    
