data_mof_unit_63275.cif
_audit_creation_date              2012-12-10T20:22:27-0500
_audit_creation_method            fapswitch 2.2
_symmetry_space_group_name_H-M    P1
_symmetry_Int_Tables_number       1
_space_group_crystal_system       triclinic
_cell_length_a                    25.734297
_cell_length_b                    36.358436
_cell_length_c                    22.221265
_cell_angle_alpha                 90.03649
_cell_angle_beta                  125.262428
_cell_angle_gamma                 89.934443
_cell_volume                      16976.6064313

loop_
_atom_site_label
_atom_site_type_symbol
_atom_type_description
_atom_site_fract_x
_atom_site_fract_y
_atom_site_fract_z
_atom_type_partial_charge
C1    C     C_R   0.858372 0.750068 0.000147 0.932298
C2    C     C_R   0.141627 0.249932 0.999852 0.933073
C3    C     C_R   0.141643 0.750052 0.999883 0.932244
C4    C     C_R   0.858316 0.250044 0.000028 0.904950
C5    C     C_R   0.358372 0.250067 0.000148 0.933075
C6    C     C_R   0.641628 0.749932 0.999853 0.932300
C7    C     C_R   0.641684 0.249956 0.999972 0.904960
C8    C     C_R   0.358357 0.749948 0.000117 0.932249
C9    C     C_3   0.758218 0.217035 0.981577 0.379544
C10   C     C_3   0.265928 0.758811 0.066402 0.372789
C11   C     C_3   0.265942 0.241240 0.066416 0.372920
C12   C     C_3   0.734051 0.758737 0.933572 0.372960
C13   C     C_3   0.234072 0.741189 0.933598 0.372789
C14   C     C_3   0.741781 0.282964 0.018423 0.379555
C15   C     C_3   0.765949 0.741263 0.066428 0.372960
C16   C     C_3   0.234058 0.258759 0.933584 0.372919
C17   C     C_3   0.801641 0.250340 0.000374 -0.137916
C18   C     C_3   0.198248 0.750306 0.999379 -0.143141
C19   C     C_3   0.198221 0.249662 0.999321 -0.143711
C20   C     C_3   0.801778 0.750338 0.000677 -0.143385
C21   C     C_3   0.301752 0.749694 0.000621 -0.143145
C22   C     C_3   0.698359 0.249660 0.999625 -0.137917
C23   C     C_3   0.698222 0.749662 0.999323 -0.143389
C24   C     C_3   0.301779 0.250337 0.000679 -0.143713
C25   C     C_3   0.801810 0.259093 0.068928 -0.445869
C26   C     C_3   0.207714 0.775238 0.949521 -0.385593
C27   C     C_3   0.207878 0.224706 0.949593 -0.385708
C28   C     C_3   0.792104 0.775311 0.050372 -0.385693
C29   C     C_3   0.292286 0.724762 0.050479 -0.385604
C30   C     C_3   0.698190 0.240907 0.931072 -0.445845
C31   C     C_3   0.707895 0.724689 0.949628 -0.385705
C32   C     C_3   0.292122 0.275294 0.050407 -0.385724
C33   C     C_R   0.696323 0.726706 0.461720 0.487111
C34   C     C_R   0.303387 0.273509 0.538280 0.486643
C35   C     C_R   0.303800 0.726741 0.538283 0.487085
C36   C     C_R   0.695573 0.272782 0.461720 0.487174
C37   C     C_R   0.196613 0.226491 0.461720 0.486625
C38   C     C_R   0.803678 0.773294 0.538280 0.487091
C39   C     C_R   0.804427 0.227218 0.538280 0.487154
C40   C     C_R   0.196200 0.773259 0.461716 0.487067
C41   C     C_R   0.710955 0.749735 0.422709 0.057156
C42   C     C_R   0.289041 0.250269 0.577291 0.057070
C43   C     C_R   0.289043 0.749737 0.577285 0.057208
C44   C     C_R   0.710948 0.250257 0.422715 0.057158
C45   C     C_R   0.210959 0.249731 0.422710 0.057072
C46   C     C_R   0.789045 0.750265 0.577291 0.057157
C47   C     C_R   0.789052 0.249743 0.577285 0.057158
C48   C     C_R   0.210957 0.750262 0.422714 0.057209
C49   C     C_R   0.764189 0.772833 0.460683 -0.384526
C50   C     C_R   0.236095 0.226957 0.539317 -0.385407
C51   C     C_R   0.235688 0.772800 0.539311 -0.384635
C52   C     C_R   0.764924 0.227667 0.460685 -0.385528
C53   C     C_R   0.263905 0.273043 0.460683 -0.385381
C54   C     C_R   0.735811 0.727167 0.539317 -0.384500
C55   C     C_R   0.735076 0.272333 0.539315 -0.385501
C56   C     C_R   0.264312 0.727200 0.460689 -0.384610
C57   C     C_1   0.671439 0.749859 0.343317 0.073773
C58   C     C_1   0.328559 0.250144 0.656682 0.072207
C59   C     C_1   0.328555 0.749861 0.656671 0.073713
C60   C     C_1   0.671438 0.250135 0.343329 0.073189
C61   C     C_1   0.171441 0.249856 0.343318 0.072197
C62   C     C_1   0.828561 0.750141 0.656682 0.073762
C63   C     C_1   0.828562 0.249865 0.656671 0.073179
C64   C     C_1   0.171445 0.750139 0.343329 0.073702
C65   C     C_1   0.861651 0.750063 0.723088 -0.104735
C66   C     C_1   0.138351 0.249936 0.276912 -0.104731
C67   C     C_1   0.138358 0.750061 0.276928 -0.105163
C68   C     C_1   0.861646 0.249941 0.723072 -0.107063
C69   C     C_1   0.361649 0.250064 0.723088 -0.104714
C70   C     C_1   0.638349 0.749937 0.276912 -0.104717
C71   C     C_1   0.638354 0.250059 0.276928 -0.107045
C72   C     C_1   0.361641 0.749939 0.723072 -0.105147
C73   C     C_R   0.980997 0.019315 0.039538 0.428248
C74   C     C_R   0.018924 0.980686 0.960394 0.427535
C75   C     C_R   0.018915 0.019224 0.960354 0.427118
C76   C     C_R   0.981009 0.980777 0.039580 0.427042
C77   C     C_R   0.483068 0.519313 0.041546 0.427522
C78   C     C_R   0.517010 0.480686 0.958519 0.428286
C79   C     C_R   0.516999 0.519224 0.958479 0.427038
C80   C     C_R   0.483076 0.480776 0.041583 0.427116
C81   C     C_R   0.999957 0.038807 0.999932 -0.295085
C82   C     C_R   0.999972 0.961193 0.000008 -0.294546
C83   C     C_R   0.500029 0.538807 0.999992 -0.294573
C84   C     C_R   0.500041 0.461193 0.000065 -0.295076
C85   C     C_R   0.098939 0.750013 0.197946 0.823891
C86   C     C_R   0.901062 0.249988 0.802054 0.822762
C87   C     C_R   0.901073 0.750013 0.802077 0.823144
C88   C     C_R   0.098927 0.249987 0.197923 0.816211
C89   C     C_R   0.598938 0.250012 0.197946 0.822765
C90   C     C_R   0.401061 0.749987 0.802054 0.823891
C91   C     C_R   0.401072 0.250013 0.802077 0.816210
C92   C     C_R   0.598927 0.749987 0.197923 0.823146
C93   C     C_1   0.999979 0.078566 0.999924 -0.003489
C94   C     C_1   0.999977 0.921435 0.000040 -0.005135
C95   C     C_1   0.500024 0.578565 0.999960 -0.005185
C96   C     C_1   0.500020 0.421434 0.000074 -0.003490
C97   C     C_1   0.999983 0.888308 0.000046 -0.117764
C98   C     C_1   0.999993 0.111692 0.999935 -0.113015
C99   C     C_1   0.500006 0.388307 0.000064 -0.113005
C100  C     C_1   0.500016 0.611692 0.999954 -0.117762
C101  C     C_R   0.999997 0.848933 0.000019 0.830735
C102  C     C_R   0.000000 0.151067 0.999979 0.835626
C103  C     C_R   0.500000 0.348933 0.000021 0.835665
C104  C     C_R   0.500003 0.651067 0.999981 0.830775
C105  C     C_R   0.000023 0.651096 0.000019 0.831597
C106  C     C_R   0.999977 0.348903 0.999978 0.823717
C107  C     C_R   0.500022 0.151096 0.000022 0.823727
C108  C     C_R   0.499977 0.848904 0.999980 0.831605
C109  C     C_R   0.941975 0.480774 0.954560 0.426657
C110  C     C_R   0.058030 0.519226 0.045401 0.427556
C111  C     C_R   0.057999 0.480684 0.045369 0.427551
C112  C     C_R   0.942006 0.519316 0.954593 0.427846
C113  C     C_R   0.441958 0.980775 0.954688 0.427600
C114  C     C_R   0.558037 0.019225 0.045351 0.426698
C115  C     C_R   0.558006 0.980684 0.045318 0.427890
C116  C     C_R   0.441989 0.019316 0.954720 0.427597
C117  C     C_R   0.999970 0.461186 0.999950 -0.295231
C118  C     C_R   0.000034 0.538814 0.000015 -0.295016
C119  C     C_R   0.499966 0.961186 0.999985 -0.295047
C120  C     C_R   0.500030 0.038814 0.000050 -0.295261
C121  C     C_1   0.999939 0.421419 0.999933 -0.005168
C122  C     C_1   0.000063 0.578581 0.000045 -0.003320
C123  C     C_1   0.499937 0.921419 0.999955 -0.003283
C124  C     C_1   0.500060 0.078581 0.000067 -0.005130
C125  C     C_1   0.000065 0.611713 0.000050 -0.108401
C126  C     C_1   0.999937 0.388287 0.999938 -0.110993
C127  C     C_1   0.500063 0.111713 0.000062 -0.110956
C128  C     C_1   0.499935 0.888287 0.999950 -0.108365
C129  C     C_3   0.224033 0.716879 0.982212 0.373293
C130  C     C_3   0.742344 0.274450 0.951434 0.415724
C131  C     C_3   0.776189 0.716911 0.017969 0.373416
C132  C     C_3   0.223835 0.283095 0.982077 0.373531
C133  C     C_3   0.757656 0.225550 0.048565 0.415730
C134  C     C_3   0.275967 0.783121 0.017788 0.373289
C135  C     C_3   0.276165 0.216905 0.017923 0.373529
C136  C     C_3   0.723811 0.783089 0.982031 0.373414
H1    H     H_    0.843850 0.266484 0.124751 0.195444
H2    H     H_    0.173468 0.795713 0.908575 0.209045
H3    H     H_    0.173769 0.204188 0.908713 0.208974
H4    H     H_    0.826199 0.795844 0.091223 0.209005
H5    H     H_    0.326532 0.704287 0.091425 0.209039
H6    H     H_    0.656150 0.233516 0.875248 0.195453
H7    H     H_    0.673801 0.704156 0.908776 0.209000
H8    H     H_    0.326231 0.295812 0.091287 0.208967
O1    O     O_3   1.000000 0.750010 0.000000 -0.514223
O2    O     O_3   0.000000 0.249990 0.000000 -0.515785
O3    O     O_3   0.500000 0.250010 0.000000 -0.515790
O4    O     O_3   0.500000 0.749990 0.000000 -0.514227
O5    O     O_R   0.861350 0.728650 0.957310 -0.594654
O6    O     O_R   0.138650 0.271350 0.042690 -0.593801
O7    O     O_R   0.138650 0.728650 0.042690 -0.594938
O8    O     O_R   0.861350 0.271350 0.957310 -0.601452
O9    O     O_R   0.361350 0.228650 0.957310 -0.593796
O10   O     O_R   0.638650 0.771350 0.042690 -0.594651
O11   O     O_R   0.638650 0.228650 0.042690 -0.601450
O12   O     O_R   0.361350 0.771350 0.957310 -0.594935
O13   O     O_R   0.050700 0.771350 0.162940 -0.623027
O14   O     O_R   0.949300 0.228650 0.837060 -0.622152
O15   O     O_R   0.949300 0.771350 0.837060 -0.622985
O16   O     O_R   0.050700 0.228650 0.162940 -0.625777
O17   O     O_R   0.550700 0.271350 0.162940 -0.622145
O18   O     O_R   0.449300 0.728650 0.837060 -0.623021
O19   O     O_R   0.449300 0.271350 0.837060 -0.625771
O20   O     O_R   0.550700 0.728650 0.162940 -0.622978
O21   O     O_R   0.990570 0.831470 0.042720 -0.631108
O22   O     O_R   0.009430 0.168530 0.957280 -0.633382
O23   O     O_R   0.009430 0.831470 0.957280 -0.630904
O24   O     O_R   0.990570 0.168530 0.042720 -0.621474
O25   O     O_R   0.490570 0.331470 0.042720 -0.633407
O26   O     O_R   0.509430 0.668530 0.957280 -0.631127
O27   O     O_R   0.509430 0.331470 0.957280 -0.621486
O28   O     O_R   0.490570 0.668530 0.042720 -0.630926
O29   O     O_R   0.947900 0.668550 0.957290 -0.628053
O30   O     O_R   0.052100 0.331450 0.042710 -0.627700
O31   O     O_R   0.052100 0.668550 0.042710 -0.628350
O32   O     O_R   0.947900 0.331450 0.957290 -0.629858
O33   O     O_R   0.447900 0.168550 0.957290 -0.627695
O34   O     O_R   0.552100 0.831450 0.042710 -0.628048
O35   O     O_R   0.552100 0.168550 0.042710 -0.629853
O36   O     O_R   0.447900 0.831450 0.957290 -0.628344
O37   O     O_R   0.112210 0.728640 0.162920 -0.629581
O38   O     O_R   0.887790 0.271360 0.837080 -0.627405
O39   O     O_R   0.887790 0.728640 0.837080 -0.629444
O40   O     O_R   0.112210 0.271360 0.162920 -0.630223
O41   O     O_R   0.612210 0.228640 0.162920 -0.627414
O42   O     O_R   0.387790 0.771360 0.837080 -0.629590
O43   O     O_R   0.387790 0.228640 0.837080 -0.630232
O44   O     O_R   0.612210 0.771360 0.162920 -0.629452
O45   O     O_R   0.904050 0.771360 0.042740 -0.661345
O46   O     O_R   0.095950 0.228640 0.957260 -0.661366
O47   O     O_R   0.095950 0.771360 0.957260 -0.661201
O48   O     O_R   0.904050 0.228640 0.042740 -0.630687
O49   O     O_R   0.404050 0.271360 0.042740 -0.661358
O50   O     O_R   0.595950 0.728640 0.957260 -0.661335
O51   O     O_R   0.595950 0.271360 0.957260 -0.630672
O52   O     O_R   0.404050 0.728640 0.042740 -0.661192
Zn1   Zn    Zn3+2 0.074440 0.719490 0.061020 1.035235
Zn2   Zn    Zn3+2 0.925560 0.280510 0.938980 1.026687
Zn3   Zn    Zn3+2 0.925560 0.719490 0.938980 1.035304
Zn4   Zn    Zn3+2 0.074440 0.280510 0.061020 1.029823
Zn5   Zn    Zn3+2 0.574440 0.219490 0.061020 1.026700
Zn6   Zn    Zn3+2 0.425560 0.780510 0.938980 1.035246
Zn7   Zn    Zn3+2 0.425560 0.219490 0.938980 1.029833
Zn8   Zn    Zn3+2 0.574440 0.780510 0.061020 1.035315
Zn9   Zn    Zn3+2 0.986560 0.780520 0.061040 1.006995
Zn10  Zn    Zn3+2 0.013440 0.219480 0.938960 1.008480
Zn11  Zn    Zn3+2 0.013440 0.780520 0.938960 1.006921
Zn12  Zn    Zn3+2 0.986560 0.219480 0.061040 1.018461
Zn13  Zn    Zn3+2 0.486560 0.280520 0.061040 1.008491
Zn14  Zn    Zn3+2 0.513440 0.719480 0.938960 1.007008
Zn15  Zn    Zn3+2 0.513440 0.280520 0.938960 1.018483
Zn16  Zn    Zn3+2 0.486560 0.719480 0.061040 1.006933
O53   O     O_3   0.883585 0.536548 0.908874 -0.662298
H9    H     H_    0.888362 0.563571 0.912644 0.349105
O54   O     O_3   0.116420 0.463452 0.091087 -0.662921
H10   H     H_    0.111646 0.436429 0.087301 0.349096
O55   O     O_3   0.116478 0.536366 0.091147 -0.662667
H11   H     H_    0.111743 0.563397 0.087424 0.349080
O56   O     O_3   0.883527 0.463634 0.908812 -0.662480
H12   H     H_    0.888265 0.436603 0.912518 0.348880
O57   O     O_3   0.383555 0.036548 0.909092 -0.662825
H13   H     H_    0.388330 0.063571 0.912874 0.349114
O58   O     O_3   0.616440 0.963452 0.090947 -0.662206
H14   H     H_    0.611663 0.936428 0.087181 0.349120
O59   O     O_3   0.616498 0.036366 0.091009 -0.662393
H15   H     H_    0.611760 0.063397 0.087309 0.348891
O60   O     O_3   0.383497 0.963634 0.909031 -0.662570
H16   H     H_    0.388233 0.936603 0.912750 0.349096
O61   O     O_3   0.768969 0.182255 0.963913 -0.727467
H17   H     H_    0.733182 0.166809 0.954248 0.353920
O62   O     O_3   0.281058 0.768883 0.135516 -0.733568
H18   H     H_    0.327876 0.772166 0.167135 0.354492
O63   O     O_3   0.281091 0.231215 0.135546 -0.733527
H19   H     H_    0.327930 0.227985 0.167211 0.354536
O64   O     O_3   0.718894 0.768738 0.864427 -0.733506
H20   H     H_    0.672046 0.771927 0.832742 0.354475
O65   O     O_3   0.218942 0.731117 0.864484 -0.733580
H21   H     H_    0.172124 0.727835 0.832865 0.354484
O66   O     O_3   0.731031 0.317745 0.036087 -0.727510
H22   H     H_    0.766819 0.333190 0.045753 0.353857
O67   O     O_3   0.781106 0.731262 0.135573 -0.733518
H23   H     H_    0.827954 0.728073 0.167258 0.354468
O68   O     O_3   0.218909 0.268784 0.864455 -0.733542
H24   H     H_    0.172070 0.272014 0.832789 0.354528
O69   O     O_3   0.194662 0.682406 0.961894 -0.730255
H25   H     H_    0.222432 0.666640 0.955235 0.356259
O70   O     O_3   0.735832 0.300786 0.901685 -0.705736
H26   H     H_    0.692722 0.311345 0.878402 0.357512
O71   O     O_3   0.805801 0.682476 0.038493 -0.730398
H27   H     H_    0.778134 0.666705 0.045232 0.356254
O72   O     O_3   0.194247 0.317538 0.961601 -0.729914
H28   H     H_    0.221931 0.333312 0.954893 0.356168
O73   O     O_3   0.764168 0.199214 0.098314 -0.705712
H29   H     H_    0.807278 0.188655 0.121597 0.357517
O74   O     O_3   0.305338 0.817594 0.038106 -0.730185
H30   H     H_    0.277567 0.833360 0.044764 0.356323
O75   O     O_3   0.305753 0.182462 0.038400 -0.729844
H31   H     H_    0.278069 0.166688 0.045107 0.356231
O76   O     O_3   0.694199 0.817525 0.961507 -0.730330
H32   H     H_    0.721866 0.833295 0.954768 0.356314
H33   H     H_    0.725094 0.709539 0.570144 0.173789
H34   H     H_    0.274402 0.290832 0.429855 0.173618
H35   H     H_    0.275122 0.709597 0.429864 0.173741
H36   H     H_    0.723794 0.289574 0.570143 0.173912
H37   H     H_    0.225598 0.209169 0.570145 0.173598
H38   H     H_    0.774906 0.790461 0.429856 0.173769
H39   H     H_    0.776206 0.210426 0.429857 0.173892
H40   H     H_    0.224878 0.790402 0.570136 0.173721
O77   O     O_3   0.643579 0.704145 0.423131 -0.738761
H41   H     H_    0.640172 0.689846 0.458705 0.345092
O78   O     O_3   0.355849 0.296278 0.576868 -0.738978
H42   H     H_    0.359078 0.310708 0.541293 0.345033
O79   O     O_3   0.356663 0.704215 0.576879 -0.738810
H43   H     H_    0.360148 0.689936 0.541309 0.345061
O80   O     O_3   0.642103 0.294845 0.423130 -0.738883
H44   H     H_    0.638236 0.308832 0.458703 0.345056
O81   O     O_3   0.144151 0.203723 0.423132 -0.739054
H45   H     H_    0.140922 0.189292 0.458706 0.344992
O82   O     O_3   0.856421 0.795854 0.576869 -0.738835
H46   H     H_    0.859828 0.810154 0.541295 0.345052
O83   O     O_3   0.857897 0.205155 0.576870 -0.738956
H47   H     H_    0.861764 0.191169 0.541297 0.345016
O84   O     O_3   0.143336 0.795784 0.423121 -0.738884
H48   H     H_    0.139852 0.810063 0.458691 0.345020
O85   O     O_3   0.961918 0.963635 0.079474 -0.663131
H49   H     H_    0.963489 0.936604 0.076256 0.347533
O86   O     O_3   0.038004 0.036365 0.920458 -0.663568
H50   H     H_    0.036407 0.063396 0.923651 0.347216
O87   O     O_3   0.038021 0.963452 0.920530 -0.663591
H51   H     H_    0.036481 0.936429 0.923820 0.347495
O88   O     O_3   0.961894 0.036549 0.079395 -0.660605
H52   H     H_    0.963389 0.063572 0.076061 0.350336
O89   O     O_3   0.465992 0.463633 0.083433 -0.663543
H53   H     H_    0.467420 0.436602 0.080074 0.347314
O90   O     O_3   0.534085 0.536366 0.916631 -0.663121
H54   H     H_    0.532683 0.563397 0.920016 0.347624
O91   O     O_3   0.534105 0.463452 0.916707 -0.660687
H55   H     H_    0.532772 0.436429 0.920197 0.350289
O92   O     O_3   0.465978 0.536546 0.083364 -0.663572
H56   H     H_    0.467355 0.563569 0.079917 0.347587

loop_
_geom_bond_atom_site_label_1
_geom_bond_atom_site_label_2
_ccdc_geom_bond_type
C99   C103  S    
C40   O84   S    
C82   C94   S    
O7    Zn1   S    
O58   H14   S    
C34   C42   A    
C110  C118  A    
C114  C115  A    
C129  O69   S    
C46   C62   S    
C111  O54   S    
O1    Zn3   S    
O4    Zn16  S    
C14   O66   S    
O78   H42   S    
C96   C99   T    
C100  C104  S    
O42   Zn6   S    
C116  O57   S    
C110  C111  A    
C79   O90   S    
O46   Zn10  S    
C78   O91   S    
O80   H44   S    
O24   Zn12  S    
C25   C133  S    
O69   H25   S    
C42   C58   S    
C41   C49   A    
C65   C87   S    
C67   C85   S    
O13   Zn9   S    
C133  O73   S    
C13   O65   S    
C90   O42   A    
C94   C97   T    
C98   C102  S    
C21   C29   S    
C23   C31   S    
O54   H10   S    
C24   C32   S    
O61   H17   S    
O60   H16   S    
C12   C20   S    
C13   C21   S    
O5    Zn3   S    
C124  C127  T    
C36   C44   A    
C37   C45   A    
C6    O50   A    
C39   C47   A    
C14   C130  S    
C40   C48   A    
C1    C20   S    
C102  O24   A    
C107  O35   A    
C2    C19   S    
C2    O46   A    
C130  O70   S    
O15   Zn11  S    
C119  C123  S    
C7    C22   S    
C105  C125  S    
C17   C25   S    
O3    Zn7   S    
C107  C127  S    
C36   C55   A    
C114  O59   S    
C37   C50   A    
C10   C18   S    
C87   O15   A    
C88   O16   A    
C31   H7    S    
C32   H8    S    
O52   Zn16  S    
C38   O82   S    
C35   O79   S    
O21   Zn9   S    
O9    Zn7   S    
C9    C133  S    
C11   O63   S    
O37   Zn1   S    
O1    Zn9   S    
O4    Zn6   S    
C49   H38   S    
O1    Zn1   S    
O71   H27   S    
O57   H13   S    
C23   C136  S    
C90   O18   A    
O20   Zn16  S    
C134  O74   S    
O4    Zn14  S    
C66   C88   S    
O73   H29   S    
C113  O60   S    
O50   Zn14  S    
O27   Zn15  S    
O67   H23   S    
C118  C122  S    
C31   C131  S    
C29   C129  S    
O40   Zn4   S    
C35   C43   A    
O63   H19   S    
C20   C28   S    
C43   C59   S    
C77   O92   S    
C44   C52   A    
C16   C27   S    
C50   H37   S    
C45   C53   A    
C102  O22   A    
C105  O29   A    
O81   H45   S    
C107  O33   A    
C103  O27   A    
C8    C21   S    
C4    O8    A    
C22   C133  S    
C55   H36   S    
O3    Zn5   S    
C56   H35   S    
C76   C82   A    
O55   H11   S    
O44   Zn8   S    
C78   C84   A    
C27   H3    S    
C116  C120  A    
O2    Zn2   S    
C74   O87   S    
C25   H1    S    
O89   H53   S    
C26   C134  S    
O16   Zn12  S    
C72   C90   S    
O26   Zn14  S    
O64   H20   S    
C29   H5    S    
O87   H51   S    
O47   Zn11  S    
C108  C128  S    
C9    C30   S    
C42   C50   A    
C11   C32   S    
C115  C119  A    
C12   C31   S    
C13   C26   S    
O1    Zn11  S    
O4    Zn8   S    
C104  O26   A    
C19   C132  S    
C91   O43   A    
C63   C68   T    
C87   O39   A    
C85   O37   A    
C22   C30   S    
C17   C130  S    
C54   H33   S    
C89   O41   A    
O32   Zn2   S    
O10   Zn8   S    
C92   O44   A    
C40   C51   A    
C111  C117  A    
C27   C135  S    
C14   C22   S    
C122  C125  T    
C38   C46   A    
C80   O89   S    
C52   H39   S    
C15   C131  S    
C105  O31   A    
C75   O86   S    
O84   H48   S    
C103  O25   A    
C106  O32   A    
C69   C91   S    
O74   H30   S    
C132  O72   S    
C37   O81   S    
C1    O45   A    
C12   O64   S    
C15   O67   S    
C2    O6    A    
O29   Zn3   S    
C4    O48   A    
O66   H22   S    
C18   C26   S    
C80   C84   A    
C109  C117  A    
O72   H28   S    
C38   C49   A    
O53   H9    S    
C11   C19   S    
C115  O58   S    
O36   Zn6   S    
C47   C63   S    
C48   C64   S    
O68   H24   S    
O43   Zn7   S    
C33   C54   A    
O41   Zn5   S    
C110  O55   S    
O31   Zn1   S    
C113  C119  A    
O35   Zn5   S    
O45   Zn9   S    
O38   Zn2   S    
O82   H46   S    
O33   Zn7   S    
C1    O5    A    
C57   C70   T    
C59   C72   T    
C104  O28   A    
C35   C56   A    
O77   H41   S    
C91   O19   A    
C85   O13   A    
C74   C82   A    
O3    Zn15  S    
C89   O17   A    
C135  O75   S    
O14   Zn10  S    
O2    Zn12  S    
O90   H54   S    
C95   C100  T    
C60   C71   T    
C30   C130  S    
O17   Zn13  S    
O92   H56   S    
O85   H49   S    
C109  O56   S    
C11   C135  S    
O86   H50   S    
C51   H40   S    
C46   C54   A    
C136  O76   S    
C106  O30   A    
C108  O34   A    
C73   O88   S    
C101  O21   A    
C6    O10   A    
C73   C81   A    
C4    C17   S    
C73   C76   A    
C34   O78   S    
C20   C131  S    
C7    O51   A    
C21   C134  S    
O56   H12   S    
C5    O49   A    
C77   C80   A    
C28   C136  S    
C70   C92   S    
C26   H2    S    
C58   C69   T    
O18   Zn14  S    
C106  C126  S    
O30   Zn4   S    
C30   H6    S    
C33   C41   A    
C41   C57   S    
C79   C83   A    
C10   C29   S    
C43   C51   A    
C15   C28   S    
C44   C60   S    
C45   C61   S    
C10   O62   S    
C8    O52   A    
C14   C25   S    
C16   C132  S    
C88   O40   A    
C7    O11   A    
C34   C53   A    
C86   O38   A    
C18   C129  S    
O22   Zn10  S    
O3    Zn13  S    
C114  C120  A    
O34   Zn8   S    
C68   C86   S    
O91   H55   S    
C28   H4    S    
O2    Zn10  S    
O12   Zn6   S    
O75   H31   S    
C77   C83   A    
C108  O36   A    
C3    C18   S    
C9    O61   S    
C84   C96   S    
C101  O23   A    
O2    Zn4   S    
C117  C121  S    
C61   C66   T    
C19   C27   S    
C36   O80   S    
C113  C116  A    
C92   O20   A    
O88   H52   S    
C15   C23   S    
C39   C52   A    
C16   C24   S    
O48   Zn12  S    
C74   C75   A    
C64   C67   T    
O6    Zn4   S    
C109  C112  A    
O19   Zn15  S    
C78   C79   A    
C75   C81   A    
O83   H47   S    
O39   Zn3   S    
C53   H34   S    
O23   Zn11  S    
O51   Zn15  S    
C3    O47   A    
C81   C93   S    
O49   Zn13  S    
C71   C89   S    
C83   C95   S    
O59   H15   S    
O8    Zn2   S    
C112  O53   S    
C86   O14   A    
C24   C135  S    
C9    C17   S    
C12   C136  S    
C76   O85   S    
O76   H32   S    
C32   C132  S    
C47   C55   A    
C48   C56   A    
C13   C129  S    
C62   C65   T    
C33   O77   S    
C10   C134  S    
O28   Zn16  S    
O70   H26   S    
C3    O7    A    
C121  C126  T    
O11   Zn5   S    
C112  C118  A    
C123  C128  T    
C5    C24   S    
C39   O83   S    
C5    O9    A    
C6    C23   S    
C8    O12   A    
C16   O68   S    
C131  O71   S    
O62   H18   S    
O25   Zn13  S    
O65   H21   S    
C93   C98   T    
C97   C101  S    
C120  C124  S    
O79   H43   S    
