data_mof_unit_64759.cif
_audit_creation_date              2012-12-10T18:59:11-0500
_audit_creation_method            fapswitch 2.2
_symmetry_space_group_name_H-M    P1
_symmetry_Int_Tables_number       1
_space_group_crystal_system       triclinic
_cell_length_a                    44.020734
_cell_length_b                    30.27704
_cell_length_c                    30.286213
_cell_angle_alpha                 89.931692
_cell_angle_beta                  133.649145
_cell_angle_gamma                 90.025788
_cell_volume                      29208.0055426

loop_
_atom_site_label
_atom_site_type_symbol
_atom_type_description
_atom_site_fract_x
_atom_site_fract_y
_atom_site_fract_z
_atom_type_partial_charge
Br1   Br    Br    0.296209 0.970857 0.389825 -0.568375
Br2   Br    Br    0.703823 0.971691 0.609997 -0.568277
Br3   Br    Br    0.796210 0.470468 0.389700 -0.568495
Br4   Br    Br    0.203860 0.497361 0.605897 -0.558257
C1    C     C_R   0.499359 0.999940 0.585571 0.868237
C2    C     C_3   0.725710 0.988602 0.771285 -0.471739
C3    C     C_R   0.507044 0.296765 0.046821 0.075690
C4    C     C_R   0.992959 0.842763 0.953604 -0.246496
C5    C     C_R   0.006945 0.842720 0.046487 -0.246584
C6    C     C_R   0.492975 0.342761 0.953618 -0.247098
C7    C     C_R   0.506928 0.342721 0.046474 -0.246687
C8    C     C_R   0.999968 0.865780 0.000041 -0.071539
C9    C     C_R   0.499968 0.365779 0.000041 -0.071484
C10   C     C_R   0.999917 0.773923 0.000066 0.083595
C11   C     C_R   0.499914 0.273923 0.000067 0.083528
C12   C     C_R   0.537631 0.203324 0.044053 -0.148260
C13   C     C_3   0.774303 0.489297 0.228596 -0.472514
C14   C     C_R   0.462232 0.203354 0.956123 -0.148372
C15   C     C_R   0.037633 0.703323 0.044055 -0.148297
C16   C     C_R   0.962236 0.703355 0.956116 -0.147963
C17   C     C_R   0.537711 0.157545 0.043960 -0.200361
C18   C     C_R   0.462197 0.157575 0.956149 -0.200405
C19   C     C_R   0.037711 0.657545 0.043962 -0.201244
C20   C     C_R   0.962200 0.657575 0.956141 -0.199508
C21   C     C_R   0.499966 0.134470 0.000031 -0.038061
C22   C     C_R   0.999967 0.634470 0.000029 -0.038214
C23   C     C_3   0.274233 0.045833 0.289005 -0.366606
C24   C     C_3   0.225718 0.477017 0.766752 -0.471108
C25   C     C_3   0.725712 0.045905 0.711276 -0.366600
C26   C     C_3   0.774233 0.545766 0.289187 -0.366060
C27   C     C_3   0.225736 0.548046 0.723878 -0.367467
C28   C     C_R   0.499922 0.226065 0.000100 0.173175
C29   C     C_R   0.999924 0.726065 0.000097 0.172990
C30   C     C_R   0.987897 0.203204 0.949708 -0.177496
C31   C     C_R   0.012269 0.203144 0.050200 -0.177735
C32   C     C_R   0.512316 0.703183 0.974271 -0.177016
C33   C     C_R   0.487721 0.703150 0.025558 -0.177244
C34   C     C_R   0.988118 0.157426 0.949856 -0.191576
C35   C     C_1   0.163125 0.999937 0.163647 -0.099260
C36   C     C_R   0.011994 0.157369 0.050070 -0.191540
C37   C     C_R   0.512057 0.657404 0.973925 -0.191074
C38   C     C_R   0.487956 0.657376 0.025928 -0.191143
C39   C     C_R   0.000038 0.134357 0.999965 -0.029005
C40   C     C_R   0.500001 0.634352 0.999935 -0.028147
C41   C     C_R   0.000094 0.226050 0.999949 0.109800
C42   C     C_R   0.500022 0.726043 0.999906 0.110378
C43   C     C_R   0.463676 0.796800 0.975659 -0.175374
C44   C     C_R   0.536355 0.796808 0.024141 -0.175530
C45   C     C_R   0.036402 0.296785 0.048645 -0.175630
C46   C     C_1   0.836874 0.999909 0.836353 -0.099282
C47   C     C_R   0.963751 0.296835 0.951228 -0.175978
C48   C     C_R   0.463580 0.842575 0.975347 -0.191025
C49   C     C_R   0.536457 0.842585 0.024550 -0.191024
C50   C     C_R   0.036476 0.342562 0.048506 -0.190445
C51   C     C_R   0.963624 0.342611 0.951419 -0.192006
C52   C     C_R   0.500020 0.865611 0.999978 -0.033302
C53   C     C_R   0.000035 0.365615 0.999980 -0.033200
C54   C     C_R   0.500016 0.773927 0.999883 0.110928
C55   C     C_R   0.000088 0.273934 0.999928 0.110402
C56   C     C_3   0.225654 0.045689 0.240628 -0.390796
C57   C     C_1   0.663126 0.499929 0.163642 -0.099297
C58   C     C_3   0.774290 0.045779 0.759653 -0.390924
C59   C     C_3   0.725655 0.545621 0.240810 -0.390420
C60   C     C_3   0.274314 0.547992 0.772182 -0.390760
C61   C     C_1   0.125580 0.000031 0.125860 -0.181724
C62   C     C_1   0.874420 0.000017 0.874139 -0.181750
C63   C     C_1   0.625580 0.500027 0.125858 -0.181678
C64   C     C_1   0.374422 0.500095 0.874146 -0.181676
C65   C     C_3   0.291144 0.999768 0.292372 0.278490
C66   C     C_3   0.708856 0.999705 0.707627 0.278522
C67   C     C_3   0.791144 0.499757 0.292365 0.278910
C68   C     C_1   0.336877 0.500057 0.836362 -0.099137
C69   C     C_3   0.208860 0.500006 0.707628 0.277263
C70   C     C_3   0.225486 0.964692 0.259256 -0.408711
C71   C     C_3   0.774556 0.964967 0.740528 -0.408579
C72   C     C_3   0.725487 0.464547 0.259106 -0.408348
C73   C     C_3   0.274538 0.475090 0.732552 -0.409113
C74   C     C_3   0.208857 0.999816 0.209688 0.301098
C75   C     C_3   0.791143 0.999774 0.790310 0.301136
C76   C     C_3   0.708857 0.499806 0.209682 0.301028
C77   C     C_3   0.291147 0.499998 0.790309 0.301267
C78   C     C_1   0.336899 0.999927 0.337600 -0.058121
C79   C     C_1   0.663101 0.999853 0.662399 -0.058132
C80   C     C_1   0.836899 0.499920 0.337595 -0.058616
C81   C     C_R   0.500648 0.999987 0.414436 0.868264
C82   C     C_1   0.163105 0.499991 0.662420 -0.058089
C83   C     C_1   0.374436 0.000005 0.374765 -0.153709
C84   C     C_1   0.625564 0.999943 0.625235 -0.153738
C85   C     C_1   0.874436 0.500002 0.374762 -0.153680
C86   C     C_1   0.125567 0.499982 0.625259 -0.150013
C87   C     C_R   0.519754 0.033997 0.722216 -0.175824
C88   C     C_R   0.480267 0.034223 0.277761 -0.175668
C89   C     C_R   0.019715 0.534020 0.722178 -0.175659
C90   C     C_R   0.981158 0.464960 0.278688 -0.173171
C91   C     C_R   0.519429 0.033518 0.676190 -0.230377
C92   C     C_R   0.999357 0.499940 0.585569 0.867573
C93   C     C_R   0.480580 0.033687 0.323778 -0.230360
C94   C     C_R   0.019393 0.533539 0.676156 -0.230738
C95   C     C_R   0.981396 0.465573 0.324653 -0.237676
C96   C     C_R   0.498293 0.999871 0.632393 -0.040296
C97   C     C_R   0.501756 0.000018 0.367659 -0.040280
C98   C     C_R   0.998288 0.499871 0.632388 -0.040000
C99   C     C_R   0.001359 0.500066 0.367217 -0.025480
C100  C     C_R   0.476486 0.966723 0.633923 0.109082
C101  C     C_R   0.523634 0.966925 0.366244 0.109219
C102  C     C_R   0.976507 0.466703 0.633946 0.109368
C103  C     C_R   0.000561 0.500046 0.414330 0.885610
C104  C     C_R   0.021878 0.533902 0.364223 0.104714
C105  C     C_R   0.477030 0.967585 0.680512 -0.199778
C106  C     C_R   0.523104 0.967845 0.319669 -0.199703
C107  C     C_R   0.977050 0.467565 0.680534 -0.199991
C108  C     C_R   0.021657 0.532883 0.318062 -0.220782
C109  C     C_R   0.418922 0.000007 0.418949 0.901881
C110  C     C_R   0.581078 0.999987 0.581052 0.901897
C111  C     C_R   0.918922 0.500007 0.418948 0.900015
C112  C     C_R   0.081079 0.499992 0.581067 0.911257
C113  C     C_R   0.498628 0.001034 0.724469 0.081983
C114  C     C_3   0.225720 0.988992 0.179888 -0.396211
C115  C     C_R   0.501452 0.001301 0.275610 0.081930
C116  C     C_R   0.998618 0.501036 0.724461 0.082129
C117  C     C_R   0.001263 0.498603 0.275351 0.090011
C118  C     C_R   0.461241 0.997025 0.758140 -0.172754
C119  C     C_R   0.538814 0.997305 0.241909 -0.172738
C120  C     C_R   0.961239 0.496976 0.758142 -0.172774
C121  C     C_R   0.038598 0.503803 0.241698 -0.171023
C122  C     C_R   0.461557 0.996680 0.804190 -0.190247
C123  C     C_R   0.538474 0.996865 0.195839 -0.190205
C124  C     C_R   0.961558 0.496628 0.804194 -0.191948
C125  C     C_3   0.774294 0.988491 0.820044 -0.396261
C126  C     C_R   0.038301 0.504247 0.195671 -0.192657
C127  C     C_R   0.499676 0.000614 0.865238 -0.036625
C128  C     C_R   0.500337 0.000710 0.134775 -0.036661
C129  C     C_R   0.999673 0.500612 0.865236 -0.036378
C130  C     C_R   0.000318 0.499214 0.134732 -0.036192
C131  C     C_R   0.537439 0.005203 0.879779 -0.193165
C132  C     C_R   0.462579 0.005324 0.120239 -0.193117
C133  C     C_R   0.037430 0.505251 0.879769 -0.191492
C134  C     C_R   0.962686 0.493380 0.120277 -0.191284
C135  C     C_R   0.537059 0.005744 0.833625 -0.176289
C136  C     C_3   0.725720 0.489174 0.179837 -0.396517
C137  C     C_R   0.462981 0.005958 0.166416 -0.176193
C138  C     C_R   0.037047 0.505793 0.833613 -0.176186
C139  C     C_R   0.963057 0.492697 0.166415 -0.178699
C140  C     C_R   0.498980 0.001472 0.772782 0.122988
C141  C     C_R   0.501079 0.001754 0.227275 0.122947
C142  C     C_R   0.998971 0.501473 0.772775 0.123063
C143  C     C_R   0.000985 0.498110 0.227133 0.122565
C144  C     C_R   0.999995 0.913809 0.000019 0.885906
C145  C     C_R   0.499995 0.413809 0.000019 0.885602
C146  C     C_R   0.081078 0.000117 0.081163 0.911634
C147  C     C_3   0.274302 0.476914 0.815490 -0.396952
C148  C     C_R   0.918922 0.000117 0.918836 0.911620
C149  C     C_R   0.581078 0.500116 0.081163 0.911532
C150  C     C_R   0.418923 0.500127 0.918838 0.911540
C151  C     C_R   0.000005 0.086425 0.999982 0.861393
C152  C     C_R   0.500000 0.586423 0.999977 0.861517
C153  C     C_3   0.274213 0.964022 0.307849 0.133248
C154  C     C_3   0.725830 0.964280 0.691932 0.133172
C155  C     C_3   0.774213 0.463879 0.307696 0.132995
C156  C     C_3   0.225812 0.474421 0.683748 0.134249
C157  C     C_R   0.499990 0.086480 0.999999 0.881344
C158  C     C_3   0.274303 0.989116 0.228647 -0.471764
C159  C     C_R   0.999990 0.586480 0.999999 0.881574
C160  C     C_R   0.499931 0.000110 0.913471 0.877137
C161  C     C_R   0.500070 0.000123 0.086530 0.877127
C162  C     C_R   0.999930 0.500110 0.913471 0.877107
C163  C     C_R   0.000069 0.499827 0.086521 0.877009
C164  C     C_R   0.500009 0.913529 0.000003 0.875843
C165  C     C_R   0.000010 0.413531 0.000003 0.875326
C166  C     C_R   0.992792 0.796811 0.953284 0.075761
C167  C     C_R   0.007063 0.796765 0.046833 0.076005
C168  C     C_R   0.492808 0.296809 0.953299 0.075751
H1    H     H_    0.213407 0.971991 0.280816 0.210945
H2    H     H_    0.786631 0.931639 0.761642 0.151342
H3    H     H_    0.285934 0.442268 0.828664 0.172590
H4    H     H_    0.427697 0.948479 0.546736 0.200982
H5    H     H_    0.440846 0.910159 0.597464 0.183805
H6    H     H_    0.572433 0.948671 0.453491 0.200951
H7    H     H_    0.559380 0.910394 0.402883 0.183709
H8    H     H_    0.927731 0.448412 0.546777 0.201150
H9    H     H_    0.940920 0.410102 0.597541 0.183242
H10   H     H_    0.030968 0.598730 0.385710 0.183265
H11   H     H_    0.075178 0.567814 0.430128 0.197223
H12   H     H_    0.956735 0.782906 0.864092 0.184598
H13   H     H_    0.713453 0.431343 0.237651 0.151015
H14   H     H_    0.008946 0.783061 0.906505 0.188197
H15   H     H_    0.043119 0.782739 0.136036 0.184124
H16   H     H_    0.990911 0.782999 0.093638 0.188185
H17   H     H_    0.456772 0.282903 0.864113 0.183978
H18   H     H_    0.508988 0.283055 0.906555 0.188077
H19   H     H_    0.543077 0.282740 0.136017 0.184547
H20   H     H_    0.490864 0.283000 0.093590 0.188102
H21   H     H_    0.286569 0.440561 0.744620 0.151733
H22   H     H_    0.213992 0.013770 0.143891 0.179238
H23   H     H_    0.785992 0.013034 0.856192 0.179150
H24   H     H_    0.713991 0.514051 0.143942 0.178772
H25   H     H_    0.285998 0.494220 0.857208 0.179005
H26   H     H_    0.536213 0.060207 0.755818 0.139098
H27   H     H_    0.463763 0.060435 0.244076 0.139164
H28   H     H_    0.036149 0.560247 0.755756 0.139155
H29   H     H_    0.786626 0.972598 0.719013 0.210978
H30   H     H_    0.965602 0.438124 0.246027 0.138954
H31   H     H_    0.536179 0.059125 0.675243 0.158401
H32   H     H_    0.463779 0.059254 0.324644 0.158352
H33   H     H_    0.036122 0.559162 0.675188 0.158332
H34   H     H_    0.965531 0.439376 0.326524 0.159507
H35   H     H_    0.460790 0.942159 0.682753 0.131990
H36   H     H_    0.539387 0.942450 0.317507 0.131939
H37   H     H_    0.960833 0.442123 0.682798 0.131548
H38   H     H_    0.037152 0.559002 0.315318 0.134646
H39   H     H_    0.431593 0.994091 0.711110 0.139554
H40   H     H_    0.713407 0.471708 0.280696 0.211158
H41   H     H_    0.568476 0.994419 0.288948 0.139622
H42   H     H_    0.931593 0.494003 0.711116 0.139356
H43   H     H_    0.068127 0.507666 0.288650 0.140803
H44   H     H_    0.432047 0.993182 0.792005 0.158861
H45   H     H_    0.567983 0.993360 0.208024 0.158894
H46   H     H_    0.932053 0.493090 0.792017 0.158124
H47   H     H_    0.067701 0.508734 0.207765 0.158335
H48   H     H_    0.567182 0.008373 0.926651 0.155926
H49   H     H_    0.432822 0.008434 0.073355 0.155925
H50   H     H_    0.067170 0.508461 0.926637 0.156317
H51   H     H_    0.286636 0.491215 0.714218 0.211031
H52   H     H_    0.933060 0.489318 0.073486 0.156154
H53   H     H_    0.566439 0.008856 0.845344 0.132236
H54   H     H_    0.433604 0.009067 0.154703 0.132254
H55   H     H_    0.066423 0.508943 0.845326 0.132335
H56   H     H_    0.933770 0.488623 0.154766 0.132015
H57   H     H_    0.987443 0.860279 0.917391 0.164105
H58   H     H_    0.012480 0.860206 0.082687 0.163978
H59   H     H_    0.487474 0.360277 0.917416 0.163960
H60   H     H_    0.512450 0.360207 0.082664 0.164065
H61   H     H_    0.566822 0.221067 0.078052 0.133475
H62   H     H_    0.284900 0.930929 0.307171 0.126576
H63   H     H_    0.433028 0.221120 0.922131 0.133148
H64   H     H_    0.066823 0.721066 0.078057 0.133463
H65   H     H_    0.933032 0.721121 0.922120 0.133682
H66   H     H_    0.567159 0.140292 0.078294 0.157686
H67   H     H_    0.432767 0.140345 0.921789 0.157546
H68   H     H_    0.067158 0.640291 0.078300 0.157358
H69   H     H_    0.932769 0.640345 0.921777 0.157902
H70   H     H_    0.978651 0.220828 0.910827 0.135117
H71   H     H_    0.021525 0.220719 0.089068 0.135193
H72   H     H_    0.521658 0.720794 0.954072 0.134662
H73   H     H_    0.715184 0.931075 0.692409 0.126590
H74   H     H_    0.478386 0.720734 0.045748 0.134585
H75   H     H_    0.978643 0.140137 0.910689 0.155944
H76   H     H_    0.021447 0.140038 0.089245 0.155978
H77   H     H_    0.521608 0.640102 0.953874 0.155204
H78   H     H_    0.478399 0.640056 0.045995 0.155185
H79   H     H_    0.435394 0.779201 0.956533 0.133754
H80   H     H_    0.564637 0.779212 0.043245 0.133589
H81   H     H_    0.064679 0.279167 0.086303 0.134283
H82   H     H_    0.935489 0.279255 0.913563 0.133943
H83   H     H_    0.435217 0.859890 0.956378 0.154185
H84   H     H_    0.784900 0.430833 0.306882 0.125878
H85   H     H_    0.564819 0.859911 0.043551 0.154129
H86   H     H_    0.064815 0.359867 0.086463 0.154723
H87   H     H_    0.935265 0.359955 0.913481 0.153969
H88   H     H_    0.285582 0.071360 0.276755 0.163174
H89   H     H_    0.714332 0.071198 0.723681 0.163060
H90   H     H_    0.785582 0.571389 0.277042 0.163571
H91   H     H_    0.214395 0.566185 0.742149 0.162333
H92   H     H_    0.286176 0.055223 0.334174 0.211067
H93   H     H_    0.713757 0.055614 0.666166 0.211088
H94   H     H_    0.786177 0.555020 0.334395 0.211270
H95   H     H_    0.215120 0.439475 0.675053 0.126795
H96   H     H_    0.213758 0.566125 0.682462 0.210769
H97   H     H_    0.214186 0.053991 0.262829 0.184419
H98   H     H_    0.785748 0.054412 0.737504 0.184402
H99   H     H_    0.714187 0.553784 0.263045 0.185262
H100  H     H_    0.285747 0.565109 0.753409 0.184510
H101  H     H_    0.213753 0.071632 0.205807 0.168986
H102  H     H_    0.786159 0.071500 0.794632 0.168863
H103  H     H_    0.713754 0.571657 0.206095 0.168665
H104  H     H_    0.286223 0.566777 0.813112 0.168538
H105  H     H_    0.286055 0.956288 0.229436 0.172978
H106  H     H_    0.213453 0.931449 0.237938 0.151271
H107  H     H_    0.713998 0.955666 0.770295 0.173033
H108  H     H_    0.786055 0.456515 0.229251 0.171616
H109  H     H_    0.214012 0.442419 0.756742 0.173568
H110  H     H_    0.285885 0.014056 0.216131 0.185814
H111  H     H_    0.714099 0.013304 0.783954 0.185745
H112  H     H_    0.785884 0.514336 0.216182 0.186104
H113  H     H_    0.214104 0.494453 0.785056 0.185555
H114  H     H_    0.214135 0.956029 0.157522 0.172894
H115  H     H_    0.785919 0.955427 0.842206 0.172934
H116  H     H_    0.714134 0.456256 0.157335 0.172573
N1    N     N_3   0.453278 0.933107 0.587671 -0.426672
N2    N     N_3   0.546890 0.933297 0.412590 -0.426739
N3    N     N_3   0.953328 0.433065 0.587723 -0.426873
N4    N     N_3   0.043778 0.568565 0.408672 -0.433575
N5    N     N_3   0.985906 0.773311 0.905973 -0.462917
N6    N     N_3   0.013935 0.773217 0.094165 -0.463325
N7    N     N_3   0.485938 0.273307 0.906002 -0.463112
N8    N     N_3   0.513898 0.273218 0.094138 -0.462991
O1    O     O_R   0.500000 0.963030 0.565470 -0.597723
O2    O     O_R   0.465320 0.999980 0.030770 -0.627199
O3    O     O_R   0.034680 0.499980 0.969230 -0.625284
O4    O     O_R   0.965320 0.499980 0.030770 -0.625336
O5    O     O_R   0.465320 0.934500 0.965310 -0.625290
O6    O     O_R   0.534680 0.934500 0.034690 -0.625301
O7    O     O_R   0.965320 0.434500 0.965310 -0.626373
O8    O     O_R   0.034680 0.434500 0.034690 -0.624511
O9    O     O_R   0.499990 0.036970 0.565490 -0.628154
O10   O     O_R   0.500010 0.036970 0.434510 -0.628106
O11   O     O_R   0.999990 0.536970 0.565490 -0.629257
O12   O     O_R   0.500000 0.963030 0.434530 -0.597711
O13   O     O_R   0.000010 0.536970 0.434510 -0.599335
O14   O     O_R   0.438570 0.963030 0.438570 -0.612830
O15   O     O_R   0.561430 0.963030 0.561430 -0.612945
O16   O     O_R   0.938570 0.463030 0.438570 -0.616008
O17   O     O_R   0.061430 0.463030 0.561430 -0.614739
O18   O     O_R   0.438570 0.036970 0.438590 -0.619023
O19   O     O_R   0.561430 0.036970 0.561410 -0.618952
O20   O     O_R   0.938570 0.536970 0.438590 -0.618186
O21   O     O_R   0.061430 0.536970 0.561410 -0.615285
O22   O     O_R   0.000000 0.934650 0.036980 -0.627440
O23   O     O_R   0.000000 0.463030 0.565470 -0.597647
O24   O     O_R   0.000000 0.934650 0.963020 -0.627398
O25   O     O_R   0.500000 0.434650 0.036980 -0.627448
O26   O     O_R   0.500000 0.434650 0.963020 -0.627549
O27   O     O_R   0.061420 0.000140 0.098400 -0.616228
O28   O     O_R   0.938580 0.000140 0.901600 -0.616169
O29   O     O_R   0.561420 0.500140 0.098400 -0.613794
O30   O     O_R   0.438580 0.500140 0.901600 -0.613718
O31   O     O_R   0.061430 0.000120 0.024480 -0.616384
O32   O     O_R   0.938570 0.000120 0.975520 -0.616454
O33   O     O_R   0.561430 0.500120 0.024480 -0.618791
O34   O     O_R   0.000000 0.463030 0.434530 -0.629887
O35   O     O_R   0.438570 0.500120 0.975520 -0.618823
O36   O     O_R   0.999990 0.065630 0.036960 -0.625863
O37   O     O_R   0.000010 0.065630 0.963040 -0.625792
O38   O     O_R   0.499990 0.565630 0.036960 -0.625713
O39   O     O_R   0.500010 0.565630 0.963040 -0.625493
O40   O     O_R   0.465320 0.065470 0.965350 -0.626289
O41   O     O_R   0.534680 0.065470 0.034650 -0.626261
O42   O     O_R   0.965320 0.565470 0.965350 -0.625242
O43   O     O_R   0.034680 0.565470 0.034650 -0.626946
O44   O     O_R   0.465320 0.999980 0.899860 -0.625703
O45   O     O_R   0.534680 0.999980 0.100140 -0.625704
O46   O     O_R   0.965320 0.499980 0.899860 -0.627543
O47   O     O_R   0.034680 0.499980 0.100140 -0.627413
O48   O     O_R   0.534680 0.999980 0.969230 -0.627214
Zn1   Zn    Zn3+2 0.500000 0.950630 0.500000 0.990598
Zn2   Zn    Zn3+2 0.546310 0.999980 0.046300 0.947112
Zn3   Zn    Zn3+2 0.953690 0.499980 0.953700 0.947125
Zn4   Zn    Zn3+2 0.046310 0.499980 0.046300 0.947456
Zn5   Zn    Zn3+2 0.000000 0.450630 0.500000 0.977307
Zn6   Zn    Zn3+2 0.500000 0.049370 0.500000 0.958349
Zn7   Zn    Zn3+2 0.000000 0.549370 0.500000 0.969998
Zn8   Zn    Zn3+2 1.000000 0.000140 0.049370 0.953190
Zn9   Zn    Zn3+2 0.000000 0.000140 0.950630 0.953452
Zn10  Zn    Zn3+2 0.500000 0.500140 0.049370 0.953561
Zn11  Zn    Zn3+2 0.500000 0.500140 0.950630 0.953741
Zn12  Zn    Zn3+2 0.453690 0.999980 0.953700 0.947078

loop_
_geom_bond_atom_site_label_1
_geom_bond_atom_site_label_2
_ccdc_geom_bond_type
C95   C99   A    
C101  C106  A    
C129  C133  A    
C92   C98   S    
C138  C142  A    
C10   C166  A    
C46   C75   S    
C10   C29   S    
C26   C67   S    
C138  H55   S    
C131  C135  A    
O43   Zn4   S    
C69   C156  S    
C165  O8    A    
C134  C139  A    
H6    N2    S    
C57   C76   S    
C78   C83   T    
C22   C159  S    
C96   C100  A    
C27   H91   S    
C33   C38   A    
C73   H21   S    
C157  O41   A    
C73   H51   S    
C36   C39   A    
C41   C55   S    
C119  C141  A    
C117  C143  S    
C89   C116  A    
C86   C112  S    
O9    Zn6   S    
C88   H27   S    
C137  C141  A    
C59   C76   S    
C3    C11   A    
C79   C84   T    
O17   Zn5   S    
C26   C59   S    
C160  O48   A    
C164  O6    A    
C35   C61   T    
C126  C130  A    
C38   C40   A    
C155  H84   S    
C162  O46   A    
C24   C69   S    
C125  H23   S    
C11   C28   S    
C89   H28   S    
O14   Zn1   S    
C82   C86   T    
C95   H34   S    
C94   C98   A    
C133  H50   S    
C26   H90   S    
O26   Zn11  S    
C44   H80   S    
C15   C19   A    
C132  C137  A    
C1    C96   S    
C134  H52   S    
C64   C68   T    
C65   C158  S    
O4    Zn3   S    
C58   H98   S    
C16   C29   A    
C59   H103  S    
C159  O42   A    
C51   C53   A    
C50   H86   S    
C5    C167  A    
C93   H32   S    
C31   C41   A    
C124  H46   S    
C18   H67   S    
O33   Zn11  S    
C114  C158  S    
C70   C153  S    
C88   C115  A    
O5    Zn12  S    
H12   N5    S    
O21   Zn7   S    
C43   C48   A    
H5    N1    S    
C63   C149  S    
O46   Zn3   S    
C31   C36   A    
C34   C39   A    
C129  C162  S    
C19   H68   S    
C121  H43   S    
C12   H61   S    
C23   H92   S    
C11   C168  A    
C47   C51   A    
C83   C109  S    
C13   H108  S    
C149  O29   A    
C99   C103  S    
C47   H82   S    
C71   C75   S    
H16   N6    S    
H17   N7    S    
C168  N7    S    
C133  C138  A    
C85   C111  S    
C157  O40   A    
C31   H71   S    
C12   C17   A    
C32   C37   A    
C7    C9    A    
C15   H64   S    
C56   C74   S    
C103  O34   A    
C127  C160  S    
O39   Zn11  S    
C74   C114  S    
C48   H83   S    
C20   C22   A    
H19   N8    S    
C146  O27   A    
C91   H31   S    
C58   H102  S    
H14   N5    S    
C59   H99   S    
O28   Zn9   S    
C65   C78   S    
C60   H100  S    
C13   H112  S    
C21   C157  S    
C18   C21   A    
O38   Zn10  S    
C65   C153  S    
C32   C42   A    
C56   H97   S    
C43   H79   S    
C23   C65   S    
C4    C8    A    
C72   H40   S    
C42   C54   S    
C71   H2    S    
Br3   C155  S    
O34   Zn5   S    
C114  H22   S    
C158  H105  S    
C88   C93   A    
C102  C107  A    
C44   C49   A    
C40   C152  S    
C35   C74   S    
C125  H115  S    
C113  C140  S    
C128  C161  S    
C15   C29   A    
C152  O39   A    
C77   C147  S    
C120  C142  A    
O42   Zn3   S    
C5    H58   S    
C165  O7    A    
C90   C117  A    
C62   C148  S    
C136  H24   S    
C4    H57   S    
C57   C63   T    
C119  C123  A    
C128  C132  A    
C111  O20   A    
C122  H44   S    
O41   Zn2   S    
O24   Zn9   S    
O19   Zn6   S    
C13   C67   S    
O8    Zn4   S    
O27   Zn8   S    
C145  O26   A    
C167  N6    S    
C100  N1    S    
C17   C21   A    
C70   H106  S    
C14   C18   A    
C72   C76   S    
C10   C167  A    
C106  C115  A    
C3    N8    S    
C163  O47   A    
C12   C28   A    
C45   C55   A    
C150  O35   A    
O18   Zn6   S    
C108  C117  A    
C104  N4    S    
C103  O13   A    
C131  H48   S    
C162  O3    A    
C51   H87   S    
C147  H25   S    
C5    C8    A    
C60   C77   S    
C87   C91   A    
C151  O36   A    
O32   Zn8   S    
C148  O32   A    
C24   C147  S    
H4    N1    S    
C145  O25   A    
O40   Zn12  S    
C72   H13   S    
C81   O10   A    
C50   C53   A    
O1    Zn1   S    
C72   C155  S    
C163  O4    A    
O13   Zn7   S    
C25   H93   S    
C2    H111  S    
C71   H29   S    
C105  C113  A    
C23   H88   S    
O31   Zn9   S    
O25   Zn10  S    
C149  O33   A    
C23   C56   S    
C92   O11   A    
C144  O22   A    
C153  H62   S    
C49   C52   A    
C6    C168  A    
C75   C125  S    
C116  C142  S    
C137  H54   S    
H7    N2    S    
C19   C22   A    
C105  H35   S    
C1    O1    A    
C159  O43   A    
C87   H26   S    
C87   C113  A    
C90   H30   S    
C154  H73   S    
C68   C77   S    
C166  N5    S    
C120  C124  A    
O29   Zn10  S    
H20   N8    S    
O12   Zn1   S    
C39   C151  S    
C2    H107  S    
C161  O45   A    
C4    C166  A    
C24   H109  S    
C147  H3    S    
C32   H72   S    
C49   H85   S    
C121  C143  A    
C91   C96   A    
C76   C136  S    
O35   Zn10  S    
C33   H74   S    
C104  C108  A    
C66   C154  S    
C108  H38   S    
C139  C143  A    
C152  O38   A    
C112  O17   A    
C73   C77   S    
Br2   C154  S    
C20   H69   S    
C136  H116  S    
C66   C79   S    
C81   O12   A    
C71   C154  S    
C119  H41   S    
C164  O5    A    
C37   C40   A    
C14   C28   A    
C123  H45   S    
C25   C66   S    
C2    C66   S    
C14   H63   S    
H15   N6    S    
C144  O24   A    
O45   Zn2   S    
C44   C54   A    
C115  C141  S    
C64   C150  S    
C109  O14   A    
C135  H53   S    
C111  O16   A    
O36   Zn8   S    
C1    O9    A    
C6    H59   S    
C84   C110  S    
C126  H47   S    
C150  O30   A    
C114  H114  S    
C73   C156  S    
O20   Zn7   S    
C38   H78   S    
C70   C74   S    
C118  H39   S    
H9    N3    S    
C106  H36   S    
H10   N4    S    
C33   C42   A    
C124  C129  A    
C16   H65   S    
O11   Zn7   S    
C151  O37   A    
C7    H60   S    
O22   Zn8   S    
C30   H70   S    
C118  C140  A    
C139  H56   S    
C120  H42   S    
C60   H104  S    
C3    C7    A    
C160  O44   A    
C109  O18   A    
C122  C127  A    
H11   N4    S    
C127  C131  A    
C100  C105  A    
C27   C69   S    
C148  O28   A    
C45   C50   A    
C61   C146  S    
C123  C128  A    
C101  N2    S    
C121  C126  A    
C132  H49   S    
C16   C20   A    
C25   H89   S    
C94   H33   S    
O37   Zn9   S    
C99   C104  A    
C26   H94   S    
H18   N7    S    
O47   Zn4   S    
C2    C125  S    
C92   O23   A    
C36   H76   S    
C53   C165  S    
C158  H110  S    
C97   C101  A    
C56   H101  S    
H8    N3    S    
C110  O15   A    
C58   C75   S    
C70   H1    S    
C161  O2    A    
O10   Zn6   S    
C107  C116  A    
C118  C122  A    
C107  H37   S    
O2    Zn12  S    
O16   Zn5   S    
C45   H81   S    
C135  C140  A    
C52   C164  S    
O44   Zn12  S    
C30   C41   A    
C46   C62   T    
C24   H113  S    
O48   Zn2   S    
C47   C55   A    
C80   C85   T    
C81   C97   S    
O30   Zn11  S    
C67   C80   S    
C25   C58   S    
C27   H96   S    
C30   C34   A    
O7    Zn3   S    
C27   C60   S    
C110  O19   A    
C6    C9    A    
C130  C134  A    
C112  O21   A    
O6    Zn2   S    
C67   C155  S    
O23   Zn5   S    
O3    Zn4   S    
C8    C144  S    
Br1   C153  S    
C9    C145  S    
O15   Zn1   S    
C102  N3    S    
C43   C54   A    
Br4   C156  S    
C90   C95   A    
C34   H75   S    
C17   H66   S    
C13   C136  S    
C69   C82   S    
C146  O31   A    
C156  H95   S    
C98   C102  A    
C37   H77   S    
C130  C163  S    
C89   C94   A    
C93   C97   A    
C48   C52   A    
