data_mof_unit_55013.cif
_audit_creation_date              2012-12-11T17:12:42-0500
_audit_creation_method            fapswitch 2.2
_symmetry_space_group_name_H-M    P1
_symmetry_Int_Tables_number       1
_space_group_crystal_system       triclinic
_cell_length_a                    17.119825
_cell_length_b                    6.881655
_cell_length_c                    14.456313
_cell_angle_alpha                 89.992043
_cell_angle_beta                  109.840002
_cell_angle_gamma                 90.008089
_cell_volume                      1602.0463013

loop_
_atom_site_label
_atom_site_type_symbol
_atom_type_description
_atom_site_fract_x
_atom_site_fract_y
_atom_site_fract_z
_atom_type_partial_charge
O1    O     O_R   0.314130 0.635770 0.168990 -0.541303
O2    O     O_R   0.685870 0.364230 0.831010 -0.542568
O3    O     O_R   0.185870 0.135770 0.331010 -0.541308
O4    O     O_R   0.814130 0.864230 0.668990 -0.542545
O5    O     O_R   0.146800 0.302460 0.139760 -0.537449
O6    O     O_R   0.853200 0.697540 0.860240 -0.536307
O7    O     O_R   0.353200 0.802460 0.360240 -0.537408
O8    O     O_R   0.646800 0.197540 0.639760 -0.536339
C1    C     C_R   0.114018 0.475899 0.112711 0.723085
C2    C     C_R   0.886336 0.524215 0.886678 0.724434
C3    C     C_R   0.385980 0.975903 0.387293 0.723046
C4    C     C_R   0.613650 0.024215 0.613346 0.724315
O9    O     O_R   0.311100 0.305780 0.157130 -0.545702
O10   O     O_R   0.688900 0.694220 0.842870 -0.542242
O11   O     O_R   0.188900 0.805780 0.342870 -0.545678
O12   O     O_R   0.811100 0.194220 0.657130 -0.542237
O13   O     O_R   0.351340 0.139640 0.348510 -0.538274
O14   O     O_R   0.648660 0.860360 0.651490 -0.530821
O15   O     O_R   0.148660 0.639640 0.151490 -0.538242
O16   O     O_R   0.851340 0.360360 0.848510 -0.530863
C5    C     C_R   0.334931 0.474827 0.138555 0.751243
C6    C     C_R   0.670178 0.524223 0.868254 0.739431
C7    C     C_R   0.165073 0.974796 0.361456 0.751188
C8    C     C_R   0.829821 0.024270 0.631740 0.739279
C9    C     C_1   0.533252 0.008978 0.533556 -0.188995
C10   C     C_1   0.466242 0.991246 0.467276 -0.183405
C11   C     C_1   0.966735 0.508977 0.966466 -0.188993
C12   C     C_1   0.033749 0.491240 0.032738 -0.183356
O17   O     O_3   0.263010 0.470920 0.312770 -0.368736
O18   O     O_3   0.736990 0.529080 0.687230 -0.370641
O19   O     O_3   0.236990 0.970920 0.187230 -0.368758
O20   O     O_3   0.763010 0.029080 0.812770 -0.370674
V1    V     V_3+5 0.247590 0.194450 0.238360 1.407227
V2    V     V_3+5 0.752410 0.805550 0.761640 1.397942
V3    V     V_3+5 0.252410 0.694450 0.261640 1.407320
V4    V     V_3+5 0.747590 0.305550 0.738360 1.397888
C13   C     C_R   0.110994 0.986609 0.422160 -0.111028
C14   C     C_R   0.873864 0.010463 0.558008 -0.144414
C15   C     C_R   0.388963 0.486714 0.077808 -0.111104
C16   C     C_R   0.626047 0.510250 0.941886 -0.144655
C17   C     C_R   0.896901 0.859480 0.413979 0.128007
C18   C     C_R   0.091670 0.090817 0.574499 0.137051
C19   C     C_R   0.602862 0.358941 0.085758 0.127340
C20   C     C_R   0.408238 0.590862 0.925413 0.136989
C21   C     C_R   0.849685 0.872337 0.479248 0.073539
C22   C     C_R   0.145336 0.027541 0.523450 0.057713
C23   C     C_R   0.650097 0.371812 0.020526 0.073311
C24   C     C_R   0.354584 0.527707 0.976518 0.057692
C25   C     C_R   0.944808 0.126688 0.570713 0.081062
C26   C     C_R   0.024243 0.969250 0.377140 0.061783
C27   C     C_R   0.555116 0.626521 0.929163 0.081111
C28   C     C_R   0.475708 0.469199 0.122768 0.061957
C29   C     C_R   0.003635 0.066496 0.527683 0.025604
C30   C     C_R   0.973523 0.965365 0.437373 -0.005539
C31   C     C_R   0.496265 0.566350 0.972178 0.025667
C32   C     C_R   0.526348 0.465109 0.062457 -0.005215
C33   C     C_3   0.987697 0.991338 0.266420 -0.777877
H1    H     H_    0.016494 0.117564 0.242446 0.200790
H2    H     H_    0.999387 0.859342 0.228918 0.201120
H3    H     H_    0.920923 0.025274 0.241788 0.223301
C34   C     C_3   0.949500 0.328689 0.613415 -0.744667
H4    H     H_    0.888668 0.402537 0.581467 0.205892
H5    H     H_    0.966961 0.322761 0.694683 0.207362
H6    H     H_    0.993038 0.422563 0.591589 0.190024
C35   C     C_3   0.512346 0.491090 0.233500 -0.778463
H7    H     H_    0.483872 0.617841 0.257478 0.200867
H8    H     H_    0.500288 0.359384 0.270954 0.201024
H9    H     H_    0.579251 0.523867 0.258198 0.223990
C36   C     C_3   0.550448 0.828523 0.886448 -0.744693
H10   H     H_    0.611284 0.902357 0.918403 0.205842
H11   H     H_    0.532991 0.822609 0.805181 0.207359
H12   H     H_    0.506926 0.922411 0.908270 0.190035
C37   C     C_3   0.238228 0.997756 0.575027 -0.373890
C38   C     C_3   0.287381 0.181348 0.572855 -0.774773
H13   H     H_    0.288157 0.210149 0.497916 0.247221
H14   H     H_    0.259372 0.308735 0.596613 0.225124
H15   H     H_    0.352654 0.162206 0.621990 0.217339
H16   H     H_    0.251925 0.946793 0.651707 0.181590
H17   H     H_    0.261455 0.877880 0.539855 0.171348
C39   C     C_3   0.773806 0.741633 0.465586 -0.327061
C40   C     C_3   0.691562 0.852920 0.431845 -0.740815
H18   H     H_    0.695620 0.991169 0.472387 0.203373
H19   H     H_    0.672295 0.885653 0.352283 0.216884
H20   H     H_    0.642332 0.761462 0.443661 0.217038
H21   H     H_    0.767258 0.622012 0.413149 0.169472
H22   H     H_    0.780804 0.661524 0.534073 0.196158
C41   C     C_3   0.261672 0.498082 0.925002 -0.373821
C42   C     C_3   0.212611 0.681775 0.927198 -0.774831
H23   H     H_    0.211935 0.710686 0.002164 0.247318
H24   H     H_    0.240620 0.809074 0.903338 0.225117
H25   H     H_    0.147304 0.662678 0.878158 0.217352
H26   H     H_    0.247917 0.447095 0.848321 0.181564
H27   H     H_    0.238419 0.378276 0.960210 0.171327
C43   C     C_3   0.725860 0.240796 0.034145 -0.326398
C44   C     C_3   0.808231 0.351547 0.068192 -0.741260
H28   H     H_    0.804286 0.490474 0.028196 0.203518
H29   H     H_    0.827621 0.382777 0.147923 0.216752
H30   H     H_    0.857305 0.260317 0.055893 0.217191
H31   H     H_    0.732196 0.120965 0.086408 0.169202
H32   H     H_    0.718868 0.160952 0.965602 0.196162
C45   C     C_3   0.873195 0.710090 0.330485 -0.327331
C46   C     C_3   0.796607 0.772060 0.243899 -0.758230
H33   H     H_    0.738348 0.741648 0.257784 0.225439
H34   H     H_    0.797614 0.928765 0.229265 0.222685
H35   H     H_    0.794446 0.693868 0.176238 0.222114
H36   H     H_    0.924753 0.680577 0.302969 0.188825
H37   H     H_    0.863804 0.564320 0.357629 0.160373
C47   C     C_3   0.128753 0.158418 0.681476 -0.339512
C48   C     C_3   0.113958 0.010074 0.751908 -0.790448
H38   H     H_    0.139240 0.867201 0.740280 0.227160
H39   H     H_    0.145552 0.059326 0.828694 0.218266
H40   H     H_    0.046998 0.993466 0.740741 0.235694
H41   H     H_    0.196326 0.184536 0.704620 0.179935
H42   H     H_    0.105684 0.302070 0.693652 0.179348
C49   C     C_3   0.626614 0.209857 0.169396 -0.327446
C50   C     C_3   0.703159 0.272537 0.255862 -0.757356
H43   H     H_    0.761475 0.237498 0.243023 0.225317
H44   H     H_    0.703092 0.430274 0.268464 0.223621
H45   H     H_    0.704207 0.198730 0.324263 0.221554
H46   H     H_    0.575048 0.180391 0.196918 0.188609
H47   H     H_    0.636042 0.063921 0.142493 0.160382
C51   C     C_3   0.371140 0.658499 0.818438 -0.339516
C52   C     C_3   0.385881 0.510164 0.747990 -0.790407
H48   H     H_    0.360611 0.367282 0.759663 0.227155
H49   H     H_    0.354241 0.559410 0.671208 0.218231
H50   H     H_    0.452831 0.493591 0.759098 0.235729
H51   H     H_    0.303573 0.684645 0.795320 0.179920
H52   H     H_    0.394233 0.802137 0.806244 0.179361

loop_
_geom_bond_atom_site_label_1
_geom_bond_atom_site_label_2
_ccdc_geom_bond_type
C2    C11   S    
C45   H37   S    
C16   C23   A    
C31   C32   A    
O1    C5    A    
C45   C46   S    
C49   H47   S    
C36   H12   S    
C37   C38   S    
O3    C7    A    
C44   H28   S    
C41   C42   S    
C40   H18   S    
C44   H30   S    
C52   H48   S    
C14   C25   A    
C29   C30   A    
C47   C48   S    
O7    C3    A    
C26   C30   A    
C38   H14   S    
O20   V4    S    
C48   H39   S    
C18   C29   A    
C18   C22   A    
O4    C8    A    
C33   H2    S    
O3    V1    S    
C49   C50   S    
O17   V1    S    
C50   H43   S    
C46   H35   S    
C34   H5    S    
O8    V4    S    
C47   H42   S    
C51   H51   S    
C36   H11   S    
C14   C21   A    
C39   H22   S    
C19   C49   S    
C1    O15   A    
C2    O16   A    
C35   H8    S    
C38   H15   S    
O5    V1    S    
O2    C6    A    
C8    C14   S    
C37   H16   S    
O19   V1    S    
C34   H4    S    
O11   C7    A    
C15   C28   A    
O12   C8    A    
C41   H26   S    
O9    V1    S    
C36   H10   S    
O13   V1    S    
O11   V3    S    
C40   H19   S    
O4    V2    S    
C25   C34   S    
C38   H13   S    
O18   V2    S    
C46   H33   S    
C48   H40   S    
C52   H50   S    
C3    C10   S    
C9    C10   T    
C7    C13   S    
O6    V2    S    
O20   V2    S    
C47   H41   S    
C34   H6    S    
O5    C1    A    
C39   H21   S    
C5    C15   S    
C42   H25   S    
C43   H32   S    
O8    C4    A    
C35   H9    S    
C6    C16   S    
C37   H17   S    
C24   C41   S    
O9    C5    A    
C46   H34   S    
O14   V2    S    
C50   H44   S    
C42   H24   S    
C35   H7    S    
O19   V3    S    
C40   H20   S    
O1    V3    S    
O2    V4    S    
C45   H36   S    
C3    O13   A    
C26   C33   S    
O7    V3    S    
C39   C40   S    
C33   H3    S    
O10   V2    S    
C44   H29   S    
C16   C27   A    
O17   V3    S    
C50   H45   S    
O18   V4    S    
C4    C9    S    
O10   C6    A    
C13   C22   A    
O15   V3    S    
C48   H38   S    
O12   V4    S    
C13   C26   A    
C20   C31   A    
C33   H1    S    
C19   C23   A    
C43   H31   S    
C25   C29   A    
C41   H27   S    
C20   C51   S    
C23   C43   S    
C17   C45   S    
C21   C39   S    
C27   C31   A    
C51   H52   S    
C43   C44   S    
C17   C30   A    
C52   H49   S    
O6    C2    A    
O16   V4    S    
C20   C24   A    
C19   C32   A    
C42   H23   S    
C49   H46   S    
C4    O14   A    
C11   C12   T    
C17   C21   A    
C27   C36   S    
C51   C52   S    
C18   C47   S    
C22   C37   S    
C28   C35   S    
C28   C32   A    
C1    C12   S    
C15   C24   A    
