data_mof_unit_66505.cif
_audit_creation_date              2012-12-10T20:43:43-0500
_audit_creation_method            fapswitch 2.2
_symmetry_space_group_name_H-M    P1
_symmetry_Int_Tables_number       1
_space_group_crystal_system       triclinic
_cell_length_a                    10.828832
_cell_length_b                    19.225193
_cell_length_c                    19.212958
_cell_angle_alpha                 94.803268
_cell_angle_beta                  92.05989
_cell_angle_gamma                 96.648479
_cell_volume                      3954.81410461

loop_
_atom_site_label
_atom_site_type_symbol
_atom_type_description
_atom_site_fract_x
_atom_site_fract_y
_atom_site_fract_z
_atom_type_partial_charge
C1    C     C_R   0.514342 0.690098 0.508770 0.853855
C2    C     C_R   0.522136 0.766999 0.512506 -0.093133
C3    C     C_R   0.637979 0.809171 0.513424 0.372145
C4    C     C_R   0.486518 0.309699 0.491961 0.794786
C5    C     C_R   0.641785 0.881976 0.514015 -0.223191
C6    C     C_R   0.487731 0.512265 0.765851 -0.068974
C7    C     C_R   0.544705 0.463731 0.802706 -0.211268
C8    C     C_R   0.548737 0.469249 0.875397 -0.231067
C9    C     C_R   0.495820 0.523766 0.912922 0.251276
C10   C     C_R   0.440361 0.572981 0.876056 0.388566
C11   C     C_R   0.435264 0.566778 0.802971 -0.250400
C12   C     C_R   0.563625 0.201885 0.531227 -0.221221
C13   C     C_R   0.561524 0.543687 0.127709 -0.136115
C14   C     C_R   0.564312 0.547150 0.200606 -0.214047
C15   C     C_R   0.511917 0.481123 0.087841 0.317095
C16   C     C_R   0.512847 0.492648 0.310929 0.793192
C17   C     C_R   0.516368 0.488664 0.234434 -0.003001
C18   C     C_R   0.468934 0.426149 0.194523 -0.204994
C19   C     C_R   0.468398 0.422301 0.121838 -0.185782
C20   C     C_R   0.487661 0.507251 0.689070 0.828357
C21   C     C_R   0.835202 0.515308 0.515269 0.874462
C22   C     C_R   0.163864 0.485037 0.485050 0.894083
C23   C     C_R   0.554921 0.129185 0.531834 -0.162349
C24   C     C_2   0.028957 0.479147 0.479241 -0.353257
C25   C     C_2   0.968531 0.521136 0.521012 -0.274488
C26   C     C_R   0.478179 0.232688 0.490617 -0.003583
C27   C     C_R   0.459946 0.085601 0.491632 0.321268
C28   C     C_R   0.374011 0.116457 0.451744 -0.186595
C29   C     C_R   0.383374 0.189424 0.450694 -0.209891
C30   C     C_R   0.416613 0.871680 0.513277 -0.144027
C31   C     C_R   0.412101 0.798945 0.513713 -0.269585
C32   C     C_R   0.532135 0.913654 0.512507 0.254166
Cl1   Cl    Cl    0.374878 0.642467 0.920677 -0.567722
Cl2   Cl    Cl    0.780750 0.773576 0.516814 -0.593173
H1    H     H_    0.978494 0.440441 0.440777 0.148726
H2    H     H_    0.016695 0.560258 0.559790 0.175054
H3    H     H_    0.322401 0.767405 0.513455 0.186606
H4    H     H_    0.330182 0.894906 0.513789 0.172576
H5    H     H_    0.300044 0.083747 0.421003 0.150923
H6    H     H_    0.315681 0.211946 0.419354 0.169041
H7    H     H_    0.621894 0.107335 0.564253 0.157261
H8    H     H_    0.730840 0.914275 0.514954 0.179252
H9    H     H_    0.637334 0.233976 0.562752 0.171225
H10   H     H_    0.601674 0.595811 0.230431 0.174745
H11   H     H_    0.598495 0.589529 0.102632 0.170229
H12   H     H_    0.392010 0.605175 0.775364 0.202784
H13   H     H_    0.432642 0.380099 0.219534 0.167033
H14   H     H_    0.594533 0.431284 0.902214 0.175268
H15   H     H_    0.431702 0.373670 0.091745 0.150188
H16   H     H_    0.586519 0.421430 0.775362 0.181023
N1    N     N_2   0.447080 0.011132 0.490843 -0.188339
N2    N     N_2   0.542945 0.987828 0.512277 -0.184348
N3    N     N_2   0.499363 0.531029 0.987180 -0.133627
N4    N     N_2   0.507094 0.474617 0.013792 -0.197100
O1    O     O_3   0.500000 0.500000 0.500000 -0.494642
O2    O     O_R   0.783160 0.551820 0.473170 -0.608101
O3    O     O_R   0.222430 0.530340 0.530340 -0.637516
O4    O     O_R   0.771990 0.472690 0.551320 -0.638668
O5    O     O_R   0.222420 0.445150 0.445160 -0.644047
O6    O     O_R   0.435070 0.449940 0.339290 -0.645777
O7    O     O_R   0.419380 0.543640 0.654290 -0.639918
O8    O     O_R   0.586230 0.658380 0.469080 -0.593163
O9    O     O_R   0.559310 0.348040 0.537340 -0.646664
O10   O     O_R   0.435110 0.654980 0.544320 -0.644805
O11   O     O_R   0.419350 0.338590 0.449260 -0.647630
O12   O     O_R   0.586210 0.538520 0.349230 -0.639994
O13   O     O_R   0.559330 0.467910 0.657200 -0.645053
Zn1   Zn    Zn3+2 0.396020 0.434560 0.434560 0.969454
Zn2   Zn    Zn3+2 0.611960 0.561120 0.448760 1.025124
Zn3   Zn    Zn3+2 0.595990 0.448060 0.560420 0.976594
Zn4   Zn    Zn3+2 0.396040 0.556260 0.556260 0.990891

loop_
_geom_bond_atom_site_label_1
_geom_bond_atom_site_label_2
_ccdc_geom_bond_type
C21   O2    A    
C4    C26   S    
C5    H8    S    
C8    H14   S    
O1    Zn4   S    
C6    C7    A    
C23   C27   A    
O5    Zn1   S    
C10   Cl1   S    
C6    C20   S    
C9    C10   A    
C19   H15   S    
C20   O13   A    
C4    O9    A    
O9    Zn3   S    
O11   Zn1   S    
C18   H13   S    
C5    C32   A    
C22   O3    A    
C17   C18   A    
O6    Zn1   S    
C21   O4    A    
N3    N4    D    
C1    O8    A    
C30   C32   A    
C20   O7    A    
C14   C17   A    
C30   H4    S    
O7    Zn4   S    
O1    Zn2   S    
C6    C11   A    
C1    C2    S    
C29   H6    S    
C28   C29   A    
C27   N1    S    
C2    C3    A    
C12   H9    S    
O8    Zn2   S    
C13   C15   A    
C30   C31   A    
C16   C17   S    
C22   C24   S    
O1    Zn3   S    
C9    N3    S    
C10   C11   A    
C25   H2    S    
C28   H5    S    
N1    N2    D    
O12   Zn2   S    
C15   N4    S    
C12   C23   A    
C27   C28   A    
C16   O12   A    
C24   C25   D    
C13   H11   S    
C26   C29   A    
C14   H10   S    
C18   C19   A    
C16   O6    A    
O10   Zn4   S    
C22   O5    A    
O2    Zn2   S    
C7    C8    A    
O1    Zn1   S    
C4    O11   A    
O4    Zn3   S    
C11   H12   S    
C21   C25   S    
C2    C31   A    
C3    Cl2   S    
C3    C5    A    
O13   Zn3   S    
C15   C19   A    
C1    O10   A    
C24   H1    S    
O3    Zn4   S    
C31   H3    S    
C7    H16   S    
C12   C26   A    
C8    C9    A    
C32   N2    S    
C13   C14   A    
C23   H7    S    
