data_mof_unit_39107.cif
_audit_creation_date              2012-10-26T19:35:12-0400
_audit_creation_method            fapswitch 2.2
_symmetry_space_group_name_H-M    P1
_symmetry_Int_Tables_number       1
_space_group_crystal_system       triclinic
_cell_length_a                    10.85232
_cell_length_b                    10.885366
_cell_length_c                    9.578539
_cell_angle_alpha                 89.67875
_cell_angle_beta                  89.844003
_cell_angle_gamma                 90.426915
_cell_volume                      1131.47342248

loop_
_atom_site_label
_atom_site_type_symbol
_atom_type_description
_atom_site_fract_x
_atom_site_fract_y
_atom_site_fract_z
_atom_type_partial_charge
C1    C     C_R   0.499287 0.262961 0.500164 0.557391
C2    C     C_R   0.507859 0.937763 0.367508 0.244612
C3    C     C_R   0.497846 0.870325 0.494871 0.005827
C4    C     C_R   0.261684 0.506700 0.500548 0.559009
C5    C     C_R   0.484394 0.936889 0.616663 -0.079302
C6    C     C_3   0.461197 0.922645 0.769153 -0.249551
C7    C     C_3   0.457809 0.064613 0.771733 0.212326
C8    C     C_R   0.551231 0.595666 0.072644 0.178351
C9    C     C_R   0.437253 0.413053 0.075053 -0.008208
C10   C     C_R   0.436989 0.413358 0.926406 -0.006418
C11   C     C_R   0.550516 0.596122 0.925623 0.143157
C12   C     C_R   0.058623 0.499386 0.629420 -0.014524
C13   C     C_3   0.680477 0.640701 0.918512 -0.283454
C14   C     C_3   0.681891 0.638580 0.076859 -0.268651
C15   C     C_R   0.499113 0.737313 0.499001 0.563897
C16   C     C_R   0.736588 0.486669 0.500290 0.540692
C17   C     C_R   0.107418 0.534550 0.759297 -0.103743
C18   C     C_R   0.049980 0.498291 0.882085 -0.163750
C19   C     C_R   0.945503 0.423794 0.878632 -0.092818
C20   C     C_R   0.888032 0.399028 0.751196 0.129137
C21   C     C_R   0.936817 0.453449 0.626682 0.034342
C22   C     C_3   0.420931 0.901190 0.151845 -0.001213
C23   C     C_R   0.125557 0.509212 0.502260 0.025610
C24   C     C_3   0.304123 0.830364 0.196051 -0.252130
C25   C     C_3   0.199469 0.852626 0.093011 -0.488675
C26   C     C_R   0.060496 0.503799 0.375460 0.067134
C27   C     C_R   0.933681 0.488673 0.376356 -0.151678
C28   C     C_R   0.870087 0.468587 0.501123 -0.035903
C29   C     C_R   0.482817 0.060900 0.618217 0.071549
C30   C     C_R   0.498672 0.130643 0.498198 -0.040648
C31   C     C_R   0.513503 0.067277 0.371431 -0.160939
Cu1   Cu    Cu3+1 0.499990 0.499980 0.640670 0.934720
Cu2   Cu    Cu3+1 0.500010 0.500020 0.359330 0.955282
H1    H     H_    0.541519 0.882220 0.823358 0.119275
H2    H     H_    0.908171 0.386535 0.975068 0.116650
H3    H     H_    0.885305 0.494420 0.278065 0.125951
H4    H     H_    0.529532 0.117569 0.275124 0.136256
H5    H     H_    0.371245 0.876880 0.790973 0.114645
H6    H     H_    0.105690 0.439052 0.187090 0.223020
H7    H     H_    0.082088 0.594096 0.193947 0.211470
H8    H     H_    0.316307 0.092884 0.909220 0.206275
H9    H     H_    0.269058 0.073700 0.743901 0.221175
H10   H     H_    0.641963 0.084493 0.822160 0.231140
H11   H     H_    0.544233 0.101150 0.956794 0.214726
H12   H     H_    0.388181 0.341204 0.130980 0.121768
H13   H     H_    0.714791 0.341010 0.800442 0.274822
H14   H     H_    0.769714 0.280874 0.648611 0.238944
H15   H     H_    0.447614 0.868732 0.046919 0.143920
H16   H     H_    0.401370 0.000914 0.140802 0.107870
H17   H     H_    0.323588 0.730372 0.200157 0.210908
H18   H     H_    0.274078 0.860391 0.301375 0.152463
H19   H     H_    0.180502 0.952454 0.083471 0.146700
H20   H     H_    0.114401 0.805798 0.130545 0.148517
H21   H     H_    0.223788 0.815628 0.988755 0.137869
H22   H     H_    0.387061 0.342648 0.871489 0.178876
H23   H     H_    0.743208 0.572951 0.871382 0.163913
H24   H     H_    0.688713 0.734672 0.873866 0.122955
H25   H     H_    0.744769 0.568035 0.119589 0.133210
H26   H     H_    0.691745 0.731351 0.123365 0.174889
H27   H     H_    0.187514 0.593468 0.768201 0.143133
H28   H     H_    0.090966 0.524605 0.978752 0.110507
N1    N     N_R   0.500790 0.500930 0.147930 -0.237994
N2    N     N_R   0.500790 0.500890 0.852020 -0.248231
N3    N     N_3   0.121672 0.518928 0.244526 -0.614937
N4    N     N_3   0.336805 0.115482 0.805467 -0.602980
N5    N     N_3   0.557453 0.122481 0.851245 -0.584922
N6    N     N_3   0.792727 0.306618 0.750176 -0.623857
O1    O     O_R   0.500000 0.319640 0.618810 -0.470476
O2    O     O_R   0.500010 0.319680 0.381230 -0.526302
O3    O     O_R   0.319640 0.499980 0.618820 -0.522915
O4    O     O_R   0.319650 0.500020 0.381230 -0.466185
O5    O     O_R   0.499990 0.680320 0.618770 -0.512928
O6    O     O_R   0.500000 0.680360 0.381190 -0.457734
O7    O     O_R   0.680350 0.499980 0.618770 -0.510252
O8    O     O_R   0.680360 0.500020 0.381180 -0.508466
O9    O     O_3   0.521602 0.877154 0.241594 -0.565100

loop_
_geom_bond_atom_site_label_1
_geom_bond_atom_site_label_2
_ccdc_geom_bond_type
C16   C28   S    
C22   H15   S    
C9    H12   S    
C7    C29   S    
C16   O8    A    
C20   N6    S    
H11   N5    S    
C19   C20   A    
C22   O9    S    
C4    O3    A    
C2    O9    S    
Cu1   O5    S    
H6    N3    S    
C12   C23   A    
C26   C27   A    
C16   O7    A    
C25   H20   S    
C11   N2    A    
H10   N5    S    
Cu1   O7    S    
C30   C31   A    
C13   H24   S    
C1    O1    A    
C18   C19   A    
C23   C26   A    
C26   N3    S    
Cu2   O8    S    
C10   N2    A    
Cu2   N1    S    
C12   C17   A    
H9    N4    S    
C6    H5    S    
C9    C10   A    
Cu2   O2    S    
Cu1   O1    S    
C13   H23   S    
C24   H18   S    
C13   C14   S    
H14   N6    S    
C5    C29   A    
C24   H17   S    
C14   H25   S    
C9    N1    A    
C25   H21   S    
C4    C23   S    
H8    N4    S    
C12   C21   A    
C1    O2    A    
C6    H1    S    
C2    C31   A    
C29   C30   A    
C15   O5    A    
C7    N4    S    
C17   C18   A    
C24   C25   S    
C10   H22   S    
C22   H16   S    
Cu2   O6    S    
C15   O6    A    
C21   C28   A    
C22   C24   S    
C3    C15   S    
C8    C14   S    
Cu1   N2    S    
C3    C5    A    
Cu1   O3    S    
C18   H28   S    
C6    C7    S    
C27   H3    S    
H7    N3    S    
Cu1   Cu2   S    
C2    C3    A    
C25   H19   S    
H13   N6    S    
C19   H2    S    
C7    N5    S    
C11   C13   S    
C5    C6    S    
C8    C11   A    
C1    C30   S    
Cu2   O4    S    
C17   H27   S    
C31   H4    S    
C20   C21   A    
C27   C28   A    
C14   H26   S    
C4    O4    A    
C8    N1    A    
