data_mof_unit_38398.cif
_audit_creation_date              2013-03-05T16:46:58-0500
_audit_creation_method            fapswitch 2.2
_symmetry_space_group_name_H-M    P1
_symmetry_Int_Tables_number       1
_space_group_crystal_system       triclinic
_cell_length_a                    15.017057
_cell_length_b                    8.921731
_cell_length_c                    8.09087
_cell_angle_alpha                 90.079969
_cell_angle_beta                  89.879296
_cell_angle_gamma                 89.986535
_cell_volume                      1083.9962456

loop_
_atom_site_label
_atom_site_type_symbol
_atom_site_description
_atom_site_fract_x
_atom_site_fract_y
_atom_site_fract_z
_atom_type_partial_charge
O1    O     O_R   0.500000 0.285350 0.636850 -0.598504
O2    O     O_R   0.500000 0.714650 0.363150 -0.608930
O3    O     O_R   0.500000 0.714650 0.636850 -0.622588
O4    O     O_R   0.500000 0.285350 0.363150 -0.633880
C1    C     C_R   0.499985 0.217948 0.499924 0.948933
C2    C     C_R   0.500019 0.782037 0.500058 0.915473
O5    O     O_R   0.367850 0.500000 0.636890 -0.609583
O6    O     O_R   0.632150 0.500000 0.363110 -0.592425
O7    O     O_R   0.632150 0.500000 0.636890 -0.608125
O8    O     O_R   0.367850 0.500000 0.363110 -0.593303
C3    C     C_R   0.326287 0.500100 0.500237 0.972962
C4    C     C_R   0.673813 0.500060 0.499912 0.969426
Zn1   Zn    Zn3+2 0.500000 0.500000 0.682780 1.018611
Zn2   Zn    Zn3+2 0.500000 0.500000 0.317220 1.019737
N1    N     N_1   0.500000 0.500000 0.073640 -0.027568
N2    N     N_1   0.500000 0.500000 0.926360 -0.030407
C5    C     C_R   0.814533 0.576002 0.373253 0.446581
C6    C     C_R   0.185015 0.406390 0.610837 0.439779
C7    C     C_R   0.815382 0.410524 0.614408 0.438819
C8    C     C_R   0.185869 0.582363 0.379004 0.447768
C9    C     C_R   0.769738 0.497216 0.497882 -0.367600
C10   C     C_R   0.230532 0.498087 0.498986 -0.367378
C11   C     C_R   0.907331 0.388743 0.595784 -0.054923
C12   C     C_R   0.093460 0.567031 0.361666 -0.054401
C13   C     C_R   0.907046 0.562107 0.358316 -0.055540
C14   C     C_R   0.093118 0.386514 0.592522 -0.053878
C15   C     C_R   0.953677 0.473632 0.474900 -0.166804
C16   C     C_R   0.046802 0.474309 0.474858 -0.166243
C17   C     C_R   0.953628 0.284263 0.694696 0.325045
C18   C     C_R   0.046991 0.642866 0.235119 0.325798
C19   C     C_R   0.953492 0.633420 0.228683 0.328933
C20   C     C_R   0.047143 0.278304 0.686286 0.327619
C21   C     C_1   0.499986 0.065182 0.499862 -0.172368
C22   C     C_1   0.500000 0.934777 0.500053 -0.192754
O9    O     O_3   0.906741 0.187889 0.796308 -0.725051
H1    H     H_    0.943075 0.166371 0.895626 0.333385
O10   O     O_3   0.093541 0.725371 0.119085 -0.738544
H2    H     H_    0.056467 0.811515 0.084007 0.340190
O11   O     O_3   0.906735 0.691168 0.096195 -0.742773
H3    H     H_    0.944076 0.683535 0.995390 0.326816
O12   O     O_3   0.094587 0.166017 0.764350 -0.729102
H4    H     H_    0.057400 0.074441 0.769647 0.338339
O13   O     O_3   0.767022 0.668926 0.268149 -0.548853
C23   C     C_3   0.759399 0.811580 0.342590 -0.162409
H5    H     H_    0.722510 0.886414 0.257395 0.189838
H6    H     H_    0.825967 0.862672 0.364614 0.164303
H7    H     H_    0.721032 0.806238 0.460259 0.111567
O14   O     O_3   0.231729 0.333553 0.734738 -0.556666
C24   C     C_3   0.222358 0.416320 0.882988 -0.073853
H8    H     H_    0.264600 0.363812 0.979220 0.176746
H9    H     H_    0.152483 0.414730 0.928748 0.160071
H10   H     H_    0.245034 0.534389 0.868203 0.159203
O15   O     O_3   0.768516 0.342898 0.741922 -0.556129
C25   C     C_3   0.776118 0.433383 0.884888 -0.073958
H11   H     H_    0.753284 0.550322 0.862308 0.160159
H12   H     H_    0.845544 0.434811 0.932175 0.162161
H13   H     H_    0.733198 0.385520 0.983307 0.182491
O16   O     O_3   0.233751 0.679181 0.278576 -0.545057
C26   C     C_3   0.243066 0.817645 0.361549 -0.168732
H14   H     H_    0.279358 0.896299 0.279441 0.190057
H15   H     H_    0.282764 0.805662 0.476736 0.114392
H16   H     H_    0.177083 0.868512 0.390179 0.163127

loop_
_geom_bond_atom_site_label_1
_geom_bond_atom_site_label_2
_geom_bond_distance
_ccdc_geom_bond_type
C13   C19   1.410794 A    
C25   H11   1.113574 S    
C7    C11   1.402141 A    
O13   C23   1.411798 S    
C5    O13   1.386999 S    
C14   C20   1.408669 A    
O10   H2    0.991082 S    
C11   C15   1.419165 A    
C13   C15   1.416969 A    
O12   H4    0.990668 S    
C17   O9    1.382312 S    
C3    C10   1.438120 S    
C14   C16   1.417116 A    
O9    H1    0.991217 S    
O3    Zn1   1.951280 S    
C23   H7    1.112861 S    
O6    C4    1.272588 A    
C24   H10   1.113665 S    
C5    C13   1.399718 A    
C7    O15   1.386581 S    
C21   C22   1.163441 T    
C26   H14   1.109384 S    
O15   C25   1.414474 S    
O5    C3    1.270798 A    
O2    C2    1.259603 A    
C2    C22   1.362703 S    
O1    C1    1.259795 A    
C11   C17   1.413096 A    
O14   C24   1.414417 S    
C7    C9    1.400500 A    
C8    C10   1.400753 A    
C17   C20   1.406813 A    
C12   C18   1.413428 A    
C1    C21   1.362937 S    
O4    Zn2   1.951281 S    
C18   C19   1.407696 A    
O2    Zn2   1.950262 S    
O7    C4    1.271532 A    
C25   H12   1.111388 S    
C26   H15   1.112635 S    
O1    Zn1   1.950263 S    
O8    C3    1.271848 A    
C20   O12   1.383271 S    
C8    O16   1.386794 S    
N1    N2    1.191623 T    
C8    C12   1.401770 A    
O5    Zn1   2.019707 S    
C23   H5    1.109280 S    
C24   H8    1.109526 S    
O8    Zn2   2.018170 S    
Zn1   N2    1.970774 S    
O11   H3    0.991053 S    
C19   O11   1.382777 S    
O7    Zn1   2.018168 S    
Zn2   N1    1.970774 S    
C26   H16   1.113538 S    
O6    Zn2   2.019706 S    
C23   H6    1.113364 S    
C24   H9    1.112080 S    
O16   C26   1.412256 S    
C6    C10   1.398286 A    
C4    C9    1.440790 S    
O3    C2    1.260255 A    
C5    C9    1.400968 A    
C12   C16   1.419038 A    
C18   O10   1.382487 S    
C6    O14   1.387038 S    
O4    C1    1.260194 A    
C15   C16   1.398476 A    
C25   H13   1.109404 S    
C6    C14   1.399571 A    
