data_mof_unit_54871.cif
_audit_creation_date              2012-12-10T19:48:29-0500
_audit_creation_method            fapswitch 2.2
_symmetry_space_group_name_H-M    P1
_symmetry_Int_Tables_number       1
_space_group_crystal_system       triclinic
_cell_length_a                    10.809761
_cell_length_b                    10.605255
_cell_length_c                    9.446096
_cell_angle_alpha                 88.993721
_cell_angle_beta                  90.723654
_cell_angle_gamma                 89.204467
_cell_volume                      1082.54187795

loop_
_atom_site_label
_atom_site_type_symbol
_atom_type_description
_atom_site_fract_x
_atom_site_fract_y
_atom_site_fract_z
_atom_type_partial_charge
C1    C     C_R   0.500512 0.259489 0.501072 0.776329
C2    C     C_R   0.499488 0.740511 0.498928 0.776310
C3    C     C_R   0.871465 0.493571 0.502148 -0.083871
C4    C     C_R   0.128535 0.506427 0.497852 -0.083874
C5    C     C_R   0.941886 0.432885 0.610909 -0.004081
C6    C     C_R   0.058114 0.567114 0.389092 -0.004085
C7    C     C_3   0.495760 0.037212 0.635253 -0.135378
C8    C     C_3   0.504240 0.962789 0.364746 -0.135397
C9    C     C_3   0.599110 0.954047 0.571872 -0.164935
C10   C     C_3   0.400890 0.045953 0.428128 -0.164919
C11   C     C_3   0.499381 0.877546 0.497221 0.028642
C12   C     C_3   0.500619 0.122454 0.502779 0.028633
C13   C     C_3   0.396053 0.958366 0.560459 -0.177811
C14   C     C_3   0.603947 0.041634 0.439541 -0.177814
C15   C     C_3   0.464421 0.609405 0.048253 -0.086459
C16   C     C_3   0.535578 0.390593 0.951748 -0.086504
C17   C     C_3   0.389866 0.525106 0.946861 -0.127344
C18   C     C_3   0.610134 0.474893 0.053140 -0.127190
C19   C     C_3   0.573033 0.582338 0.951140 0.394909
C20   C     C_3   0.426967 0.417662 0.048863 0.394900
C21   C     C_R   0.262584 0.504312 0.498958 0.779587
C22   C     C_R   0.737416 0.495687 0.501042 0.779565
C23   C     C_R   0.223135 0.828981 0.192705 -0.157604
C24   C     C_R   0.776862 0.171034 0.807317 -0.157613
C25   C     C_R   0.184647 0.749543 0.303039 -0.094639
C26   C     C_R   0.815349 0.250465 0.696977 -0.094635
C27   C     C_R   0.112123 0.644098 0.273341 0.130287
C28   C     C_R   0.887878 0.355907 0.726666 0.130271
C29   C     C_R   0.079612 0.619542 0.132178 -0.173427
C30   C     C_R   0.920394 0.380466 0.867825 -0.173297
C31   C     C_R   0.118268 0.699074 0.022401 -0.154714
C32   C     C_R   0.881740 0.300940 0.977608 -0.154723
C33   C     C_R   0.190062 0.803842 0.052668 -0.132054
C34   C     C_R   0.809941 0.196175 0.947351 -0.132091
C35   C     C_R   0.929982 0.558961 0.392690 -0.242547
C36   C     C_R   0.070018 0.441036 0.607310 -0.242543
Cu1   Cu    Cu3+1 0.500030 0.499990 0.643150 0.944787
Cu2   Cu    Cu3+1 0.499970 0.500010 0.356850 0.944845
H1    H     H_    0.219983 0.865643 0.967735 0.126694
H2    H     H_    0.780021 0.134380 0.032289 0.126689
H3    H     H_    0.297406 0.542785 0.897799 0.139745
H4    H     H_    0.702593 0.457210 0.102205 0.139732
H5    H     H_    0.437436 0.701384 0.093344 0.140648
H6    H     H_    0.562560 0.298614 0.906654 0.140669
H7    H     H_    0.277508 0.910887 0.215265 0.126618
H8    H     H_    0.722484 0.089132 0.784765 0.126615
H9    H     H_    0.208534 0.771921 0.411306 0.091847
H10   H     H_    0.791457 0.228085 0.588713 0.091851
H11   H     H_    0.022384 0.539771 0.108342 0.116049
H12   H     H_    0.977626 0.460235 0.891655 0.116064
H13   H     H_    0.092099 0.679801 0.914006 0.127859
H14   H     H_    0.907914 0.320216 0.086001 0.127844
H15   H     H_    0.875023 0.607988 0.311462 0.150866
H16   H     H_    0.124977 0.392011 0.688538 0.150860
H17   H     H_    0.680108 0.912009 0.629744 0.134026
H18   H     H_    0.319892 0.087992 0.370254 0.134058
H19   H     H_    0.491805 0.070336 0.745961 0.125303
H20   H     H_    0.508196 0.929664 0.254037 0.125269
H21   H     H_    0.310946 0.921052 0.609572 0.121062
H22   H     H_    0.689054 0.078948 0.390428 0.121057
N1    N     N_3   0.500090 0.499970 0.858290 -0.194933
N2    N     N_3   0.499910 0.500030 0.141710 -0.194904
O1    O     O_R   0.500060 0.316850 0.620870 -0.588793
O2    O     O_R   0.499940 0.683150 0.379130 -0.588799
O3    O     O_R   0.500000 0.316860 0.379090 -0.558424
O4    O     O_R   0.500000 0.683140 0.620910 -0.558491
O5    O     O_R   0.319670 0.500010 0.620890 -0.589787
O6    O     O_R   0.680330 0.499990 0.379110 -0.589771
O7    O     O_R   0.319620 0.500010 0.379110 -0.581969
O8    O     O_R   0.680380 0.499990 0.620890 -0.582060
N3    N     N_2   0.656518 0.674128 0.891687 -0.404375
H23   H     H_    0.724358 0.633559 0.831199 0.269980
C37   C     C_3   0.706225 0.762389 0.991690 -0.759718
H24   H     H_    0.766542 0.830248 0.935457 0.230897
H25   H     H_    0.762071 0.711603 0.074859 0.227030
H26   H     H_    0.630291 0.816701 0.041481 0.229704
N4    N     N_2   0.343454 0.325909 0.108336 -0.404243
H27   H     H_    0.275479 0.366544 0.168581 0.269857
C38   C     C_3   0.294011 0.237405 0.008443 -0.759782
H28   H     H_    0.233443 0.169763 0.064636 0.230869
H29   H     H_    0.370082 0.182879 0.959211 0.229678
H30   H     H_    0.238498 0.287995 0.924845 0.227091

loop_
_geom_bond_atom_site_label_1
_geom_bond_atom_site_label_2
_ccdc_geom_bond_type
C4    C36   A    
C23   H7    S    
C35   H15   S    
C37   H24   S    
C19   N3    S    
C29   H11   S    
N4    H27   S    
C15   C19   S    
C33   H1    S    
C20   N4    S    
C34   H2    S    
C24   C26   A    
C18   H4    S    
C27   C29   A    
C5    C36   A    
C17   C20   S    
C6    C35   A    
C7    C9    S    
C18   C19   S    
C32   H14   S    
C17   N1    S    
C23   C33   A    
C1    O3    A    
C31   C33   A    
C9    H17   S    
C10   H18   S    
C16   H6    S    
C26   H10   S    
C8    H20   S    
C30   H12   S    
Cu2   O7    S    
Cu1   O8    S    
C21   O5    A    
C37   H25   S    
C1    C12   S    
C2    C11   S    
C1    O1    A    
Cu1   O1    S    
C2    O2    A    
Cu2   O2    S    
N4    C38   S    
C7    C12   S    
C4    C6    A    
N3    C37   S    
C18   N2    S    
C3    C5    A    
C24   C34   A    
C21   O7    A    
C32   C34   A    
C9    C14   S    
Cu1   Cu2   S    
C5    C28   S    
C6    C27   S    
Cu2   O3    S    
C3    C35   A    
C16   C20   S    
Cu1   O4    S    
C9    C11   S    
C22   O6    A    
C10   C12   S    
C16   C18   S    
Cu2   O6    S    
C37   H26   S    
C16   N1    S    
C38   H29   S    
C15   C17   S    
C25   H9    S    
C8    C14   S    
C31   H13   S    
C2    O4    A    
C10   C13   S    
C38   H30   S    
Cu1   N1    S    
C13   H21   S    
C25   C27   A    
C14   H22   S    
C26   C28   A    
C24   H8    S    
C28   C30   A    
C12   C14   S    
C15   H5    S    
N3    H23   S    
C29   C31   A    
C30   C32   A    
C4    C21   S    
C11   C13   S    
C19   N1    S    
C8    C11   S    
Cu1   O5    S    
C15   N2    S    
C7    H19   S    
C23   C25   A    
C20   N2    S    
C17   H3    S    
C36   H16   S    
C38   H28   S    
C7    C13   S    
C8    C10   S    
C3    C22   S    
C22   O8    A    
Cu2   N2    S    
