data_mof_unit_26123.cif
_audit_creation_date              2012-12-10T17:27:08-0500
_audit_creation_method            fapswitch 2.2
_symmetry_space_group_name_H-M    P1
_symmetry_Int_Tables_number       1
_space_group_crystal_system       triclinic
_cell_length_a                    17.977755
_cell_length_b                    18.448684
_cell_length_c                    12.11875
_cell_angle_alpha                 89.995508
_cell_angle_beta                  85.257995
_cell_angle_gamma                 90.073573
_cell_volume                      4005.614876

loop_
_atom_site_label
_atom_site_type_symbol
_atom_type_description
_atom_site_fract_x
_atom_site_fract_y
_atom_site_fract_z
_atom_type_partial_charge
C1    C     C_R   0.400459 0.100616 0.521521 0.901044
C2    C     C_R   0.535349 0.003023 0.019153 -0.091794
C3    C     C_R   0.963309 0.502557 0.980934 -0.095196
C4    C     C_R   0.035359 0.503020 0.019155 -0.091883
C5    C     C_R   0.588339 0.011149 0.826013 0.594074
C6    C     C_R   0.411171 0.008770 0.175137 0.588133
C7    C     C_R   0.088341 0.511139 0.826005 0.594201
C8    C     C_R   0.911173 0.508768 0.175133 0.588125
C9    C     C_R   0.597868 0.013803 0.940752 -0.182389
C10   C     C_R   0.400687 0.010695 0.060612 -0.193325
C11   C     C_R   0.097878 0.513783 0.940743 -0.182396
C12   C     C_R   0.597864 0.897799 0.478878 0.865660
C13   C     C_R   0.900694 0.510698 0.060609 -0.193297
C14   C     C_R   0.457220 0.995812 0.864346 -0.143836
C15   C     C_R   0.542204 0.995209 0.135154 -0.018771
C16   C     C_R   0.957224 0.495806 0.864351 -0.143832
C17   C     C_R   0.042209 0.495220 0.135161 -0.019049
C18   C     C_R   0.659917 0.152027 0.463901 -0.070364
C19   C     C_R   0.354895 0.834301 0.530310 -0.064951
C20   C     C_R   0.344027 0.155743 0.534161 -0.054633
C21   C     C_R   0.648634 0.837457 0.468001 -0.065302
C22   C     C_R   0.159915 0.652030 0.463902 -0.070379
C23   C     C_R   0.600454 0.099807 0.478097 0.893693
C24   C     C_R   0.854896 0.334300 0.530309 -0.064971
C25   C     C_R   0.844029 0.655745 0.534158 -0.054667
C26   C     C_R   0.148630 0.337454 0.468005 -0.065273
C27   C     C_R   0.289926 0.741389 0.639406 -0.193024
C28   C     C_R   0.735759 0.234778 0.349686 -0.217816
C29   C     C_R   0.710701 0.742137 0.360676 -0.187711
C30   C     C_R   0.277405 0.247196 0.643357 -0.197883
C31   C     C_R   0.789916 0.241398 0.639411 -0.193027
C32   C     C_R   0.235744 0.734793 0.349693 -0.217783
C33   C     C_R   0.210657 0.242098 0.360709 -0.187723
C34   C     C_R   0.403074 0.896926 0.520730 0.889726
C35   C     C_R   0.777372 0.747166 0.643375 -0.197891
C36   C     C_R   0.340928 0.797786 0.631120 -0.139244
C37   C     C_R   0.679408 0.183464 0.360258 -0.149430
C38   C     C_R   0.660385 0.799125 0.368378 -0.164637
C39   C     C_R   0.332135 0.194543 0.633277 -0.164494
C40   C     C_R   0.840921 0.297792 0.631123 -0.139258
C41   C     C_R   0.179394 0.683477 0.360265 -0.149394
C42   C     C_R   0.160348 0.299092 0.368404 -0.164523
C43   C     C_R   0.832110 0.694521 0.633293 -0.164516
C44   C     C_R   0.323603 0.809766 0.435329 -0.283732
C45   C     C_R   0.900460 0.600617 0.521521 0.901052
C46   C     C_R   0.698168 0.169988 0.555884 -0.256720
C47   C     C_R   0.684638 0.817013 0.560784 -0.277746
C48   C     C_R   0.302404 0.170466 0.444294 -0.249223
C49   C     C_R   0.823611 0.309759 0.435325 -0.283733
C50   C     C_R   0.198173 0.669982 0.555882 -0.256681
C51   C     C_R   0.184659 0.317032 0.560775 -0.277723
C52   C     C_R   0.802430 0.670490 0.444273 -0.249225
C53   C     C_R   0.271734 0.754855 0.442974 0.184559
C54   C     C_R   0.753599 0.221496 0.546411 0.161723
C55   C     C_R   0.736742 0.762631 0.552863 0.180821
C56   C     C_R   0.097864 0.397798 0.478879 0.865673
C57   C     C_R   0.249744 0.224626 0.452199 0.160433
C58   C     C_R   0.771741 0.254848 0.442971 0.184582
C59   C     C_R   0.253602 0.721493 0.546410 0.161715
C60   C     C_R   0.236754 0.262642 0.552859 0.180803
C61   C     C_R   0.749763 0.724644 0.452182 0.160433
C62   C     C_3   0.298720 0.968538 0.259949 -0.258988
C63   C     C_3   0.701629 0.977094 0.737471 -0.256400
C64   C     C_3   0.798724 0.468530 0.259941 -0.258902
C65   C     C_3   0.201664 0.477091 0.737547 -0.256837
C66   C     C_2   0.613635 0.971342 0.174505 0.986515
C67   C     C_R   0.100454 0.599808 0.478098 0.893678
C68   C     C_2   0.385393 0.975305 0.822744 1.045821
C69   C     C_2   0.113641 0.471387 0.174540 0.986764
C70   C     C_2   0.885401 0.475269 0.822764 1.045759
C71   C     C_2   0.668891 0.042909 0.976365 0.955937
C72   C     C_2   0.327338 0.035475 0.028509 0.933481
C73   C     C_2   0.168919 0.542862 0.976323 0.955812
C74   C     C_2   0.827352 0.535493 0.028498 0.933469
C75   C     C_R   0.903075 0.396926 0.520730 0.889730
C76   C     C_R   0.463301 0.002559 0.980932 -0.095299
H1    H     H_    0.683954 0.145358 0.635949 0.217029
H2    H     H_    0.369223 0.812451 0.702922 0.213675
H3    H     H_    0.365837 0.185380 0.701819 0.162562
H4    H     H_    0.630356 0.812529 0.297467 0.207975
H5    H     H_    0.150545 0.669357 0.288244 0.211070
H6    H     H_    0.869210 0.312461 0.702927 0.213695
H7    H     H_    0.865793 0.685344 0.701850 0.162580
H8    H     H_    0.130294 0.312474 0.297509 0.207983
H9    H     H_    0.777720 0.214587 0.718461 0.166424
H10   H     H_    0.249727 0.760072 0.269894 0.153567
H11   H     H_    0.219889 0.212674 0.283372 0.168822
H12   H     H_    0.337908 0.834364 0.355415 0.157248
H13   H     H_    0.768270 0.777047 0.720336 0.151006
H14   H     H_    0.277736 0.714573 0.718453 0.166435
H15   H     H_    0.749750 0.260049 0.269882 0.153558
H16   H     H_    0.719959 0.712736 0.283323 0.168830
H17   H     H_    0.268326 0.277097 0.720302 0.151000
H18   H     H_    0.316167 0.917825 0.214863 0.140775
H19   H     H_    0.246649 0.989209 0.228265 0.203037
H20   H     H_    0.284675 0.954875 0.348299 0.188485
H21   H     H_    0.687715 0.925785 0.783436 0.145924
H22   H     H_    0.754471 0.999313 0.764593 0.207597
H23   H     H_    0.311576 0.140806 0.367244 0.214322
H24   H     H_    0.712741 0.964487 0.648236 0.180993
H25   H     H_    0.816174 0.417819 0.214852 0.140765
H26   H     H_    0.746651 0.489198 0.228262 0.203052
H27   H     H_    0.784683 0.454864 0.348291 0.188481
H28   H     H_    0.187730 0.425774 0.783480 0.145974
H29   H     H_    0.254467 0.499333 0.764774 0.207547
H30   H     H_    0.212851 0.464488 0.648321 0.181044
H31   H     H_    0.704459 0.995732 0.254180 0.339038
H32   H     H_    0.356286 0.077821 0.793166 0.308183
H33   H     H_    0.204485 0.495853 0.254128 0.339099
H34   H     H_    0.673116 0.843799 0.639534 0.155119
H35   H     H_    0.856267 0.577767 0.793122 0.308193
H36   H     H_    0.721456 0.126704 0.043378 0.348560
H37   H     H_    0.263465 0.119982 0.989921 0.351759
H38   H     H_    0.221603 0.626738 0.042897 0.348549
H39   H     H_    0.763508 0.620010 0.989857 0.351746
H40   H     H_    0.183968 0.645343 0.635942 0.217043
H41   H     H_    0.837922 0.334352 0.355409 0.157250
H42   H     H_    0.811625 0.640851 0.367206 0.214312
H43   H     H_    0.173162 0.343841 0.639511 0.155133
H44   H     H_    0.650567 0.169335 0.288233 0.211092
N1    N     N_R   0.480750 0.000000 0.209750 -0.179813
N2    N     N_R   0.519250 0.000000 0.790250 -0.174315
N3    N     N_R   0.980750 0.500000 0.209750 -0.179815
N4    N     N_R   0.019250 0.500000 0.790250 -0.174314
O1    O     O_R   0.418020 0.076820 0.422210 -0.571010
O2    O     O_R   0.569630 0.923170 0.391410 -0.624352
O3    O     O_R   0.569630 0.076830 0.391410 -0.586050
O4    O     O_R   0.430370 0.923170 0.608590 -0.612733
O5    O     O_R   0.930370 0.576830 0.608590 -0.630183
O6    O     O_R   0.069630 0.423170 0.391410 -0.624371
O7    O     O_R   0.069630 0.576830 0.391410 -0.586155
O8    O     O_R   0.930370 0.423170 0.608590 -0.612746
O9    O     O_3   0.353012 0.024154 0.253780 -0.606035
O10   O     O_3   0.645932 0.031055 0.749195 -0.616073
O11   O     O_3   0.853011 0.524151 0.253773 -0.606051
O12   O     O_R   0.581980 0.923180 0.577790 -0.618619
O13   O     O_3   0.145934 0.531024 0.749171 -0.615997
O14   O     O_2   0.637607 0.911214 0.148622 -0.644123
O15   O     O_R   0.656087 0.018427 0.233947 -0.777263
O16   O     O_2   0.364177 0.912718 0.832741 -0.593246
O17   O     O_R   0.338347 0.026721 0.780969 -0.743127
O18   O     O_2   0.137595 0.411228 0.148794 -0.643945
O19   O     O_R   0.156113 0.518530 0.233856 -0.777423
O20   O     O_2   0.864197 0.412681 0.832810 -0.593293
O21   O     O_R   0.838346 0.526659 0.780947 -0.743107
O22   O     O_2   0.724878 0.005142 0.971387 -0.621641
O23   O     O_R   0.581980 0.076820 0.577790 -0.576062
O24   O     O_R   0.670497 0.113032 0.019731 -0.782148
O25   O     O_2   0.277271 0.991720 0.017954 -0.596891
O26   O     O_R   0.315645 0.109336 0.011470 -0.797166
O27   O     O_2   0.224836 0.505004 0.971619 -0.621629
O28   O     O_R   0.170633 0.613085 0.019273 -0.782038
O29   O     O_2   0.777269 0.491751 0.017968 -0.596898
O30   O     O_R   0.815685 0.609354 0.011411 -0.797207
O31   O     O_R   0.418020 0.923180 0.422210 -0.619494
O32   O     O_R   0.918020 0.576820 0.422210 -0.571026
O33   O     O_R   0.081980 0.423180 0.577790 -0.618543
O34   O     O_R   0.081980 0.576820 0.577790 -0.576019
O35   O     O_R   0.918020 0.423180 0.422210 -0.619488
O36   O     O_R   0.430370 0.076830 0.608590 -0.630177
Zn1   Zn    Zn3+2 0.491750 0.000000 0.375560 1.014005
Zn2   Zn    Zn3+2 0.508250 1.000000 0.624440 0.999247
Zn3   Zn    Zn3+2 0.991750 0.500000 0.375560 1.013963
Zn4   Zn    Zn3+2 0.008250 0.500000 0.624440 0.999292

loop_
_geom_bond_atom_site_label_1
_geom_bond_atom_site_label_2
_ccdc_geom_bond_type
O6    Zn3   S    
C64   H27   S    
C45   O5    A    
C8    C13   A    
C14   N2    A    
C62   H20   S    
C43   H7    S    
C65   H30   S    
H38   O28   S    
C7    N4    A    
C25   C43   A    
C53   C59   A    
C48   C57   A    
O12   Zn2   S    
C34   O31   A    
O31   Zn1   S    
C7    C11   A    
C56   O33   A    
C31   H9    S    
C50   C59   A    
C62   O9    S    
C47   C55   A    
C18   C37   A    
C1    O1    A    
C6    O9    S    
C52   C61   A    
H35   O21   S    
C22   C41   A    
C12   O2    A    
C31   C40   A    
C74   O30   S    
C27   H14   S    
C10   C76   A    
C44   C53   A    
C17   N3    A    
C49   H41   S    
C66   O15   S    
O32   Zn3   S    
C30   C60   A    
C29   C38   A    
C51   H43   S    
C32   C41   A    
C67   O34   A    
O2    Zn1   S    
C35   C43   A    
C3    C13   A    
O34   Zn4   S    
C19   C44   A    
C22   C50   A    
C65   O13   S    
C71   O24   S    
C64   O11   S    
C41   H5    S    
O3    Zn1   S    
C62   H19   S    
C73   O27   D    
C8    O11   S    
C64   H25   S    
C18   C46   A    
C65   H29   S    
H32   O17   S    
C5    O10   S    
C29   C61   A    
C21   C38   A    
C35   C55   A    
C18   C23   S    
C63   O10   S    
C40   H6    S    
C31   C54   A    
C16   C70   S    
C11   C73   S    
C7    O13   S    
C20   C39   A    
C57   C60   A    
C69   O18   D    
C15   C66   S    
C23   O23   A    
C12   C21   S    
O23   Zn2   S    
C49   C58   A    
H36   O24   S    
O5    Zn4   S    
C39   H3    S    
C64   H26   S    
O8    Zn4   S    
C5    C9    A    
C63   H24   S    
N3    Zn3   S    
C66   O14   D    
O7    Zn3   S    
C32   H10   S    
C46   C54   A    
O4    Zn2   S    
C42   H8    S    
C68   O17   S    
H33   O19   S    
C45   O32   A    
C4    C11   A    
C2    C15   A    
O33   Zn4   S    
C20   C48   A    
C70   O21   S    
C4    C17   A    
C35   H13   S    
C34   O4    A    
C72   O26   S    
C62   H18   S    
C73   O28   S    
C10   C72   S    
O35   Zn3   S    
C68   O16   D    
C69   O19   S    
C33   C42   A    
C3    C4    A    
C25   C45   S    
C32   C53   A    
C2    C76   A    
C75   O8    A    
C26   C42   A    
C23   O3    A    
C54   C58   A    
C75   O35   A    
C24   C49   A    
C48   H23   S    
C17   C69   S    
C1    C20   S    
C33   C57   A    
C15   N1    A    
C14   C76   A    
C30   H17   S    
H37   O26   S    
C1    O36   A    
O1    Zn1   S    
C9    C71   S    
C19   C34   S    
C26   C56   S    
C6    C10   A    
C46   H1    S    
C24   C75   S    
C28   C58   A    
C27   C36   A    
C63   H22   S    
C47   H34   S    
C70   O20   D    
N2    Zn2   S    
C19   C36   A    
C33   H11   S    
C25   C52   A    
H39   O30   S    
C36   H2    S    
C26   C51   A    
C65   H28   S    
C37   H44   S    
C38   H4    S    
C28   C37   A    
C55   C61   A    
C24   C40   A    
C30   C39   A    
C28   H15   S    
C50   H40   S    
C8    N3    A    
H31   O15   S    
C67   O7    A    
C44   H12   S    
C22   C67   S    
C3    C16   A    
C71   O22   D    
C13   C74   S    
C74   O29   D    
C63   H21   S    
C72   O25   D    
C12   O12   A    
C14   C68   S    
C27   C59   A    
C51   C60   A    
C6    N1    A    
N4    Zn4   S    
C16   N4    A    
C2    C9    A    
C5    N2    A    
C29   H16   S    
C56   O6    A    
N1    Zn1   S    
O36   Zn2   S    
C21   C47   A    
C52   H42   S    
