data_mof_unit_21951.cif
_audit_creation_date              2012-12-10T20:39:58-0500
_audit_creation_method            fapswitch 2.2
_symmetry_space_group_name_H-M    P1
_symmetry_Int_Tables_number       1
_space_group_crystal_system       triclinic
_cell_length_a                    23.428706
_cell_length_b                    10.690487
_cell_length_c                    9.889573
_cell_angle_alpha                 89.428344
_cell_angle_beta                  89.738238
_cell_angle_gamma                 90.961113
_cell_volume                      2476.48521077

loop_
_atom_site_label
_atom_site_type_symbol
_atom_type_description
_atom_site_fract_x
_atom_site_fract_y
_atom_site_fract_z
_atom_type_partial_charge
C1    C     C_R   0.501360 0.260164 0.500362 0.882806
C2    C     C_R   0.119308 0.586293 0.478293 0.519165
C3    C     C_R   0.236213 0.535220 0.608141 -0.182415
C4    C     C_R   0.389408 0.499865 0.500426 0.897006
C5    C     C_R   0.295614 0.544994 0.609599 0.489646
C6    C     C_R   0.327175 0.496021 0.500895 -0.156594
C7    C     C_R   0.298707 0.441515 0.391182 -0.291496
C8    C     C_R   0.239603 0.434652 0.389510 -0.103779
C9    C     C_R   0.208419 0.481377 0.497833 0.249187
C10   C     C_R   0.762201 0.451580 0.605729 -0.126852
C11   C     C_R   0.703259 0.459641 0.611413 -0.230842
C12   C     C_R   0.968459 0.240418 0.487346 0.529732
C13   C     C_R   0.672787 0.492186 0.495359 -0.023976
C14   C     C_R   0.701757 0.512614 0.372303 -0.302395
C15   C     C_R   0.760845 0.501288 0.364212 0.042582
C16   C     C_R   0.501084 0.740030 0.499565 0.876161
C17   C     C_R   0.791164 0.472871 0.483469 0.298857
C18   C     C_R   0.515438 0.063371 0.620789 0.135490
C19   C     C_R   0.509368 0.129023 0.499675 -0.113402
C20   C     C_R   0.512597 0.066364 0.376031 -0.203158
C21   C     C_R   0.511673 0.937535 0.375762 -0.204329
C22   C     C_R   0.508664 0.871995 0.498859 -0.135414
C23   C     C_R   0.028652 0.240231 0.493883 -0.133224
C24   C     C_R   0.515334 0.935504 0.620433 0.181443
C25   C     C_3   0.480835 0.926483 0.747943 -0.430361
C26   C     C_3   0.480828 0.068192 0.747855 -0.507388
C27   C     C_R   0.472860 0.406424 0.072464 0.183637
C28   C     C_R   0.610641 0.498951 0.499282 0.870827
C29   C     C_R   0.531164 0.587230 0.069825 -0.129015
C30   C     C_R   0.532608 0.583965 0.924876 0.548423
C31   C     C_R   0.472687 0.406761 0.930299 0.092318
C32   C     C_3   0.410744 0.373821 0.925358 -0.445805
C33   C     C_3   0.410750 0.374202 0.078810 -0.480283
C34   C     C_R   0.059858 0.355849 0.492681 -0.168934
C35   C     C_R   0.881274 0.582267 0.478054 0.570992
C36   C     C_R   0.878814 0.358897 0.490212 0.580687
C37   C     C_R   0.938877 0.354724 0.486981 -0.167066
C38   C     C_R   0.969838 0.468986 0.481268 -0.075086
C39   C     C_R   0.940696 0.583677 0.475601 0.010680
C40   C     C_3   0.932637 0.091450 0.347461 -0.163924
C41   C     C_2   0.788637 0.518544 0.229846 0.430024
C42   C     C_2   0.562243 0.688912 0.139712 0.410900
C43   C     C_2   0.057274 0.117201 0.494987 0.531253
C44   C     C_3   0.623678 0.638357 0.861173 -0.217933
C45   C     C_R   0.029929 0.469625 0.482281 -0.013687
C46   C     C_3   0.325961 0.728590 0.698549 -0.283889
C47   C     C_R   0.059980 0.585382 0.475256 -0.004017
C48   C     C_R   0.030378 0.697986 0.466179 -0.132950
C49   C     C_R   0.971280 0.697214 0.467271 -0.133441
C50   C     C_R   0.119959 0.363856 0.504691 0.531844
H1    H     H_    0.681653 0.438923 0.705931 0.151734
H2    H     H_    0.402837 0.279479 0.882544 0.195202
H3    H     H_    0.385099 0.450930 0.121643 0.220143
H4    H     H_    0.402532 0.280242 0.124697 0.198520
H5    H     H_    0.052776 0.787330 0.459913 0.215788
H6    H     H_    0.949698 0.785951 0.461710 0.206595
H7    H     H_    0.211603 0.570839 0.691939 0.164122
H8    H     H_    0.322135 0.402439 0.307568 0.176533
H9    H     H_    0.217898 0.393117 0.304106 0.153698
H10   H     H_    0.785666 0.428988 0.696617 0.152996
H11   H     H_    0.909517 0.162907 0.287221 0.171748
H12   H     H_    0.678236 0.535989 0.281600 0.137932
H13   H     H_    0.907097 0.003210 0.344471 0.207479
H14   H     H_    0.974733 0.073023 0.299895 0.110583
H15   H     H_    0.764100 0.554316 0.145398 0.048803
H16   H     H_    0.582421 0.673054 0.235740 0.118673
H17   H     H_    0.093387 0.100907 0.428879 0.092607
H18   H     H_    0.645927 0.669788 0.767262 0.192992
H19   H     H_    0.630974 0.536139 0.873989 0.103369
H20   H     H_    0.643966 0.689241 0.945981 0.176696
H21   H     H_    0.352834 0.752543 0.608491 0.146938
H22   H     H_    0.346515 0.771489 0.788023 0.188830
H23   H     H_    0.511401 0.115607 0.279812 0.182610
H24   H     H_    0.282885 0.769999 0.688266 0.182258
H25   H     H_    0.508939 0.890530 0.279841 0.216200
H26   H     H_    0.437825 0.883915 0.732198 0.184683
H27   H     H_    0.505340 0.886009 0.833277 0.267888
H28   H     H_    0.437784 0.107744 0.731419 0.201807
H29   H     H_    0.505294 0.109488 0.833013 0.220527
H30   H     H_    0.384831 0.449561 0.880445 0.262280
N1    N     N_R   0.851946 0.471129 0.483714 -0.343662
N2    N     N_R   0.147671 0.477004 0.493873 -0.337462
N3    N     N_R   0.499610 0.499140 0.142800 -0.166017
N4    N     N_R   0.499610 0.499180 0.857150 -0.157880
O1    O     O_R   0.500010 0.316790 0.614690 -0.619037
O2    O     O_R   0.583850 0.500060 0.614640 -0.603311
O3    O     O_R   0.583840 0.500020 0.385300 -0.651439
O4    O     O_2   0.852705 0.690919 0.474685 -0.553334
O5    O     O_3   0.938663 0.127420 0.483733 -0.528613
O6    O     O_2   0.838280 0.490731 0.210187 -0.571005
O7    O     O_2   0.566018 0.793464 0.089224 -0.588161
O8    O     O_2   0.040050 0.032146 0.568581 -0.528169
O9    O     O_3   0.565364 0.668846 0.850326 -0.561219
O10   O     O_3   0.322396 0.598125 0.719698 -0.614285
O11   O     O_2   0.847139 0.252603 0.500159 -0.495665
O12   O     O_2   0.150881 0.261192 0.530444 -0.571968
O13   O     O_2   0.148746 0.695591 0.466265 -0.559914
O14   O     O_R   0.500000 0.316760 0.385350 -0.621506
O15   O     O_R   0.416160 0.499980 0.614700 -0.576737
O16   O     O_R   0.416150 0.499940 0.385360 -0.623487
O17   O     O_R   0.500000 0.683240 0.614650 -0.566126
O18   O     O_R   0.499990 0.683210 0.385310 -0.645993
Zn1   Zn    Zn3+2 0.500000 0.500020 0.653130 0.996379
Zn2   Zn    Zn3+2 0.500000 0.499980 0.346870 0.936379

loop_
_geom_bond_atom_site_label_1
_geom_bond_atom_site_label_2
_ccdc_geom_bond_type
C48   H5    S    
O15   Zn1   S    
C29   C42   S    
C10   H10   S    
C19   C20   A    
C18   C26   S    
C5    O10   S    
C35   N1    A    
C7    C8    A    
C27   C33   S    
C12   C23   A    
C26   H28   S    
C40   H13   S    
C25   H27   S    
C36   C37   A    
C29   N3    A    
C30   O9    S    
C8    H9    S    
C38   C39   A    
C10   C17   A    
C14   H12   S    
O16   Zn2   S    
C23   C43   S    
C42   O7    D    
C12   C37   A    
C32   H2    S    
C38   C45   A    
C44   O9    S    
C31   C32   S    
C2    O13   S    
C8    C9    A    
C13   C28   S    
C44   H20   S    
C18   C24   A    
C40   O5    S    
C29   C30   A    
C7    H8    S    
C46   H22   S    
O1    Zn1   S    
C9    N2    S    
C41   O6    D    
O17   Zn1   S    
C13   C14   A    
C33   H3    S    
O2    Zn1   S    
C45   C47   A    
C1    O1    A    
C34   C50   A    
C1    C19   S    
N3    Zn2   S    
C27   C31   A    
C12   O5    S    
C24   C25   S    
C15   C41   S    
C4    C6    S    
C18   C19   A    
C41   H15   S    
C25   C26   S    
C40   H11   S    
C35   C39   A    
C37   C38   A    
C3    C9    A    
C32   H30   S    
C35   O4    S    
C47   C48   A    
C46   O10   S    
C36   N1    A    
C23   C34   A    
C28   O3    A    
C44   H19   S    
C34   C45   A    
O18   Zn2   S    
C46   H21   S    
C3    H7    S    
C16   O18   A    
C48   C49   A    
C39   C49   A    
C4    O16   A    
C28   O2    A    
C22   C24   A    
C2    N2    A    
C46   H24   S    
C50   N2    A    
C33   H4    S    
C15   C17   A    
C16   C22   S    
C14   C15   A    
C26   H29   S    
C3    C5    A    
C1    O14   A    
C6    C7    A    
C2    C47   A    
C49   H6    S    
C21   H25   S    
C43   O8    D    
C40   H14   S    
C25   H26   S    
C32   C33   S    
C27   N3    A    
C11   C13   A    
C36   O11   S    
C50   O12   S    
C5    C6    A    
O14   Zn2   S    
C20   H23   S    
C17   N1    S    
C30   N4    A    
C11   H1    S    
C10   C11   A    
C31   N4    A    
O3    Zn2   S    
C16   O17   A    
C20   C21   A    
C43   H17   S    
C4    O15   A    
C42   H16   S    
N4    Zn1   S    
C44   H18   S    
C21   C22   A    
