data_mof_unit_26543.cif
_audit_creation_date              2013-03-05T15:41:01-0500
_audit_creation_method            fapswitch 2.2
_symmetry_space_group_name_H-M    P1
_symmetry_Int_Tables_number       1
_space_group_crystal_system       triclinic
_cell_length_a                    28.089978
_cell_length_b                    18.453458
_cell_length_c                    16.919567
_cell_angle_alpha                 89.818312
_cell_angle_beta                  61.133737
_cell_angle_gamma                 89.759243
_cell_volume                      7680.57655191

loop_
_atom_site_label
_atom_site_type_symbol
_atom_site_description
_atom_site_fract_x
_atom_site_fract_y
_atom_site_fract_z
_atom_type_partial_charge
O1    O     O_R   0.746490 0.236330 0.638080 -0.587864
O2    O     O_R   0.253510 0.763670 0.361920 -0.634172
O3    O     O_R   0.253510 0.236330 0.361920 -0.657488
O4    O     O_R   0.746490 0.763670 0.638080 -0.597242
O5    O     O_R   0.246490 0.736330 0.638080 -0.628525
O6    O     O_R   0.753510 0.263670 0.361920 -0.646667
O7    O     O_R   0.753510 0.736330 0.361920 -0.644177
O8    O     O_R   0.246490 0.263670 0.638080 -0.658737
O9    O     O_R   0.674170 0.186160 0.516270 -0.621551
O10   O     O_R   0.325830 0.813840 0.483730 -0.638631
O11   O     O_R   0.325830 0.186160 0.483730 -0.599286
O12   O     O_R   0.674170 0.813840 0.516270 -0.595034
O13   O     O_R   0.174170 0.686160 0.516270 -0.619766
O14   O     O_R   0.825830 0.313840 0.483730 -0.629924
O15   O     O_R   0.825830 0.686160 0.483730 -0.633495
O16   O     O_R   0.174170 0.313840 0.516270 -0.602593
O17   O     O_R   0.739960 0.127620 0.525000 -0.576008
O18   O     O_R   0.260040 0.872380 0.475000 -0.559236
O19   O     O_R   0.260040 0.127620 0.475000 -0.577553
O20   O     O_R   0.739960 0.872380 0.525000 -0.574863
O21   O     O_R   0.239960 0.627620 0.525000 -0.584401
O22   O     O_R   0.760040 0.372380 0.475000 -0.572671
O23   O     O_R   0.760040 0.627620 0.475000 -0.572207
O24   O     O_R   0.239960 0.372380 0.525000 -0.574501
O25   O     O_R   0.680700 0.294870 0.629350 -0.600153
O26   O     O_R   0.319300 0.705130 0.370650 -0.628678
O27   O     O_R   0.319300 0.294870 0.370650 -0.580217
O28   O     O_R   0.680700 0.705130 0.629350 -0.587276
O29   O     O_R   0.180700 0.794870 0.629350 -0.576749
O30   O     O_R   0.819300 0.205130 0.370650 -0.624507
O31   O     O_R   0.819300 0.794870 0.370650 -0.625913
O32   O     O_R   0.180700 0.205130 0.629350 -0.570635
C1    C     C_R   0.700697 0.265562 0.677365 0.948556
C2    C     C_R   0.293486 0.722131 0.327206 0.893834
C3    C     C_R   0.299113 0.266029 0.322928 0.900855
C4    C     C_R   0.700527 0.734711 0.677186 0.956664
C5    C     C_R   0.200387 0.765005 0.677180 0.976367
C6    C     C_R   0.799629 0.235036 0.322545 0.886005
C7    C     C_R   0.799015 0.766207 0.322903 0.883737
C8    C     C_R   0.200903 0.233942 0.677060 0.916065
C9    C     C_R   0.691218 0.129118 0.535890 0.919225
C10   C     C_R   0.305189 0.872569 0.476382 0.982496
C11   C     C_R   0.309677 0.130004 0.462101 0.930537
C12   C     C_R   0.690121 0.869944 0.539384 0.917746
C13   C     C_R   0.190628 0.629828 0.539075 0.897420
C14   C     C_R   0.805149 0.371761 0.478542 0.959822
C15   C     C_R   0.805259 0.628244 0.478137 0.946412
C16   C     C_R   0.190601 0.370052 0.539240 0.917367
Zn1   Zn    Zn3+2 0.792340 0.208750 0.507670 1.076596
Zn2   Zn    Zn3+2 0.207660 0.791250 0.492330 1.094626
Zn3   Zn    Zn3+2 0.207660 0.208750 0.492330 1.085605
Zn4   Zn    Zn3+2 0.792340 0.791250 0.507670 1.070202
Zn5   Zn    Zn3+2 0.292340 0.708750 0.507670 1.039485
Zn6   Zn    Zn3+2 0.707660 0.291250 0.492330 1.064099
Zn7   Zn    Zn3+2 0.707660 0.708750 0.492330 1.089588
Zn8   Zn    Zn3+2 0.292340 0.291250 0.507670 1.097369
H1    H     H_    0.008578 0.252114 0.604756 0.198941
H2    H     H_    0.932390 0.747006 0.575922 0.188089
H3    H     H_    0.932838 0.252746 0.580331 0.190890
H4    H     H_    0.008866 0.748312 0.598926 0.198844
H5    H     H_    0.489308 0.764792 0.637884 0.196484
H6    H     H_    0.495796 0.239992 0.415442 0.201043
H7    H     H_    0.410970 0.770175 0.618649 0.184647
H8    H     H_    0.556915 0.242791 0.476682 0.180280
C17   C     C_R   0.544317 0.130923 0.521370 -0.003629
C18   C     C_R   0.421527 0.882131 0.572490 0.005585
C19   C     C_R   0.468756 0.128521 0.455495 -0.013480
C20   C     C_R   0.518097 0.873970 0.588803 -0.009894
C21   C     C_R   0.024283 0.631790 0.583943 -0.012968
C22   C     C_R   0.930850 0.369391 0.562675 -0.005556
C23   C     C_R   0.930224 0.630121 0.561948 -0.005707
C24   C     C_R   0.024287 0.368373 0.586502 -0.008903
C25   C     C_R   0.534921 0.193173 0.483090 -0.144075
C26   C     C_R   0.435052 0.818801 0.603979 -0.148400
C27   C     C_R   0.499598 0.191083 0.446879 -0.166182
C28   C     C_R   0.482149 0.814860 0.612239 -0.169069
C29   C     C_R   0.996024 0.696108 0.588280 -0.177197
C30   C     C_R   0.950672 0.304524 0.579584 -0.167343
C31   C     C_R   0.950318 0.695336 0.576527 -0.163628
C32   C     C_R   0.996022 0.304097 0.592269 -0.173854
C33   C     C_R   0.478534 0.065788 0.493960 0.027633
C34   C     C_R   0.504653 0.937758 0.557397 0.025652
C35   C     C_R   0.519652 0.065668 0.519277 0.023031
C36   C     C_R   0.458293 0.940477 0.544526 0.022525
C37   C     C_R   0.959003 0.565607 0.554334 0.025899
C38   C     C_R   0.005413 0.433871 0.567808 0.025312
C39   C     C_R   0.005340 0.566040 0.566742 0.025521
C40   C     C_R   0.959260 0.434003 0.554862 0.027475
C41   C     C_R   0.938080 0.499730 0.543345 -0.039738
C42   C     C_R   0.029751 0.500011 0.569723 -0.037034
C43   C     C_R   0.447183 0.003300 0.508146 -0.032077
C44   C     C_R   0.534793 0.000906 0.545880 -0.035379
C45   C     C_R   0.870108 0.434452 0.520687 -0.054955
C46   C     C_R   0.101634 0.566421 0.579952 -0.065018
C47   C     C_R   0.101554 0.433820 0.581139 -0.064387
C48   C     C_R   0.869688 0.564826 0.520985 -0.054006
C49   C     C_R   0.369203 0.943590 0.510839 -0.065492
C50   C     C_R   0.605494 0.066022 0.560374 -0.060710
C51   C     C_R   0.600775 0.933855 0.574135 -0.061931
C52   C     C_R   0.393154 0.066069 0.450174 -0.067162
C53   C     C_R   0.832543 0.435808 0.485183 -0.185344
C54   C     C_R   0.155098 0.565443 0.569896 -0.187580
C55   C     C_R   0.155024 0.434538 0.570547 -0.191359
C56   C     C_R   0.832399 0.563835 0.485129 -0.191731
C57   C     C_R   0.332379 0.939796 0.474959 -0.205371
C58   C     C_R   0.655893 0.064767 0.561925 -0.194453
C59   C     C_R   0.653550 0.934066 0.568668 -0.176971
C60   C     C_R   0.345191 0.065945 0.440660 -0.141283
C61   C     C_R   0.821358 0.499882 0.455240 0.213812
C62   C     C_R   0.177895 0.499907 0.576994 0.247644
C63   C     C_R   0.323166 0.000780 0.434989 0.221997
C64   C     C_R   0.676000 0.999444 0.576039 0.239532
C65   C     C_R   0.894490 0.499652 0.523966 -0.000253
C66   C     C_R   0.077842 0.500099 0.576363 -0.013177
C67   C     C_R   0.403916 0.003918 0.488158 -0.016806
C68   C     C_R   0.580587 0.999992 0.559741 -0.015493
C69   C     C_R   0.069707 0.369615 0.601542 0.295570
C70   C     C_R   0.880239 0.626407 0.560736 0.285113
C71   C     C_R   0.881267 0.372641 0.559950 0.285561
C72   C     C_R   0.069721 0.630807 0.599051 0.293506
C73   C     C_R   0.565979 0.871789 0.598267 0.297788
C74   C     C_R   0.429091 0.126442 0.426228 0.294457
C75   C     C_R   0.372028 0.890079 0.569475 0.277208
C76   C     C_R   0.577702 0.131339 0.562155 0.283755
C77   C     C_R   0.731790 0.286108 0.942315 0.025627
C78   C     C_R   0.267364 0.708903 0.056119 0.023719
C79   C     C_R   0.282400 0.260678 0.042459 0.026563
C80   C     C_R   0.716281 0.741405 0.958363 0.027353
C81   C     C_R   0.206464 0.739216 0.966407 0.025661
C82   C     C_R   0.791562 0.255282 0.033649 0.025463
C83   C     C_R   0.781184 0.762661 0.043130 0.025004
C84   C     C_R   0.217676 0.239272 0.957424 0.027727
C85   C     C_R   0.772217 0.231936 0.909048 0.038735
C86   C     C_R   0.212771 0.733169 0.106067 0.051301
C87   C     C_R   0.233991 0.219876 0.086270 0.045866
C88   C     C_R   0.764270 0.783005 0.914926 0.036984
C89   C     C_R   0.257116 0.703282 0.920586 0.048469
C90   C     C_R   0.749944 0.307972 0.069016 0.048087
C91   C     C_R   0.732959 0.721498 0.086790 0.048376
C92   C     C_R   0.266091 0.280068 0.913603 0.046914
C93   C     C_R   0.805963 0.222768 0.949262 0.051066
C94   C     C_R   0.183774 0.754028 0.059687 0.053421
C95   C     C_R   0.200306 0.212072 0.045454 0.054785
C96   C     C_R   0.798162 0.790554 0.955460 0.051450
C97   C     C_R   0.290007 0.695390 0.962661 0.047910
C98   C     C_R   0.723349 0.327905 0.018500 0.055566
C99   C     C_R   0.699229 0.713651 0.046071 0.059724
C100  C     C_R   0.299780 0.287866 0.954417 0.046685
C101  C     C_R   0.662406 0.356497 0.927523 0.073295
C102  C     C_R   0.353705 0.673269 0.050696 0.072963
C103  C     C_R   0.361768 0.315477 0.043946 0.065410
C104  C     C_R   0.637482 0.685416 0.956400 0.075030
C105  C     C_R   0.131516 0.804027 0.960101 0.074446
C106  C     C_R   0.865144 0.189063 0.041351 0.066813
C107  C     C_R   0.860848 0.816907 0.044244 0.069753
C108  C     C_R   0.138283 0.184499 0.955979 0.075674
C109  C     C_R   0.627219 0.363687 0.889203 -0.137706
C110  C     C_R   0.382577 0.654269 0.098358 -0.134505
C111  C     C_R   0.386984 0.340027 0.095260 -0.150475
C112  C     C_R   0.612623 0.660350 0.904824 -0.140249
C113  C     C_R   0.110357 0.836071 0.906106 -0.151902
C114  C     C_R   0.888180 0.161256 0.094522 -0.133909
C115  C     C_R   0.886478 0.840680 0.095331 -0.132042
C116  C     C_R   0.113035 0.159976 0.904705 -0.152763
C117  C     C_R   0.636653 0.325842 0.813095 -0.258414
C118  C     C_R   0.362553 0.674044 0.186778 -0.287626
C119  C     C_R   0.368084 0.317114 0.182935 -0.247158
C120  C     C_R   0.631523 0.683252 0.817090 -0.236789
C121  C     C_R   0.131109 0.816424 0.816832 -0.217455
C122  C     C_R   0.868424 0.182773 0.182922 -0.292662
C123  C     C_R   0.867746 0.817475 0.182830 -0.296407
C124  C     C_R   0.131900 0.182937 0.817059 -0.233165
H9    H     H_    0.612064 0.336353 0.780729 0.208949
H10   H     H_    0.386842 0.664761 0.219950 0.191930
H11   H     H_    0.387036 0.337270 0.221200 0.209588
H12   H     H_    0.612960 0.662459 0.778521 0.208571
H13   H     H_    0.114691 0.841180 0.776855 0.206910
H14   H     H_    0.885446 0.159252 0.222681 0.194213
H15   H     H_    0.886956 0.837180 0.220895 0.192590
H16   H     H_    0.112914 0.162832 0.778823 0.211840
C125  C     C_R   0.679681 0.278785 0.774102 -0.089936
C126  C     C_R   0.310549 0.700611 0.234934 -0.106671
C127  C     C_R   0.322855 0.273531 0.224665 -0.099377
C128  C     C_R   0.676310 0.727670 0.775712 -0.075874
C129  C     C_R   0.175201 0.770359 0.775829 -0.073165
C130  C     C_R   0.824628 0.229209 0.223465 -0.108572
C131  C     C_R   0.822441 0.774106 0.224661 -0.107693
C132  C     C_R   0.177152 0.226481 0.775311 -0.092055
C133  C     C_R   0.708094 0.258253 0.822403 0.098438
C134  C     C_R   0.276175 0.706402 0.194128 0.065691
C135  C     C_R   0.296529 0.248040 0.175080 0.059818
C136  C     C_R   0.701962 0.754094 0.825927 0.076455
C137  C     C_R   0.198826 0.739567 0.827196 0.082469
C138  C     C_R   0.801704 0.260360 0.170921 0.067551
C139  C     C_R   0.795821 0.749130 0.175257 0.067681
C140  C     C_R   0.203504 0.251957 0.824860 0.054523
C141  C     C_R   0.700471 0.299767 0.897945 0.090181
C142  C     C_R   0.299199 0.696880 0.100128 0.078161
C143  C     C_R   0.313567 0.274725 0.087201 0.074277
C144  C     C_R   0.685232 0.727008 0.913531 0.073875
C145  C     C_R   0.178778 0.760764 0.917995 0.079658
C146  C     C_R   0.819437 0.234951 0.082143 0.076473
C147  C     C_R   0.812601 0.776269 0.087600 0.073902
C148  C     C_R   0.186487 0.225250 0.912714 0.074885
C149  C     C_R   0.661521 0.404605 0.993003 -0.157860
C150  C     C_R   0.376977 0.668633 0.956067 -0.162506
C151  C     C_R   0.383051 0.328962 0.950701 -0.149490
C152  C     C_R   0.616265 0.671643 0.049568 -0.180445
C153  C     C_R   0.107224 0.812920 0.054501 -0.176427
C154  C     C_R   0.886163 0.173585 0.948448 -0.162224
C155  C     C_R   0.881720 0.831043 0.951151 -0.163174
C156  C     C_R   0.117023 0.170991 0.049206 -0.166336
C157  C     C_R   0.689794 0.389376 0.039530 -0.202524
C158  C     C_R   0.345589 0.677632 0.913323 -0.198821
C159  C     C_R   0.352180 0.317666 0.907794 -0.202260
C160  C     C_R   0.647062 0.683184 0.092512 -0.222807
C161  C     C_R   0.132854 0.789154 0.102908 -0.204472
C162  C     C_R   0.855568 0.185745 0.905329 -0.206231
C163  C     C_R   0.850462 0.820538 0.908733 -0.202598
C164  C     C_R   0.147910 0.182265 0.092083 -0.213113
C165  C     C_R   0.744159 0.198991 0.797646 -0.069027
C166  C     C_R   0.219594 0.719147 0.243621 -0.173503
C167  C     C_R   0.254478 0.196062 0.208511 -0.134629
C168  C     C_R   0.743096 0.807244 0.793342 -0.052514
C169  C     C_R   0.241417 0.687878 0.792445 -0.077664
C170  C     C_R   0.762467 0.316367 0.202324 -0.151219
C171  C     C_R   0.753781 0.697150 0.208589 -0.148611
C172  C     C_R   0.245565 0.303930 0.791416 -0.135102
C173  C     C_R   0.776508 0.187196 0.838417 -0.166995
C174  C     C_R   0.189084 0.734443 0.200707 -0.206969
C175  C     C_R   0.222910 0.184100 0.166861 -0.214324
C176  C     C_R   0.774713 0.819546 0.835004 -0.163372
C177  C     C_R   0.271968 0.673678 0.835503 -0.169218
C178  C     C_R   0.737015 0.339205 0.153067 -0.207884
C179  C     C_R   0.722141 0.685332 0.167038 -0.217681
C180  C     C_R   0.277161 0.315859 0.833026 -0.211020
H17   H     H_    0.640153 0.455759 0.008273 0.178710
H18   H     H_    0.420043 0.659997 0.913161 0.175735
H19   H     H_    0.424337 0.346262 0.907890 0.186491
H20   H     H_    0.575095 0.653895 0.092318 0.175227
H21   H     H_    0.067366 0.836491 0.093600 0.168463
H22   H     H_    0.926604 0.153040 0.906098 0.183023
H23   H     H_    0.922983 0.848192 0.907936 0.181878
H24   H     H_    0.075737 0.153702 0.092035 0.171632
H25   H     H_    0.686314 0.428314 0.089514 0.144081
H26   H     H_    0.366172 0.673513 0.840549 0.151969
H27   H     H_    0.371129 0.330233 0.836656 0.155914
H28   H     H_    0.628218 0.670251 0.163538 0.144425
H29   H     H_    0.112486 0.801349 0.174062 0.141981
H30   H     H_    0.872798 0.169355 0.835513 0.153788
H31   H     H_    0.869068 0.833657 0.837759 0.153193
H32   H     H_    0.128969 0.169682 0.163214 0.143154
H33   H     H_    0.747381 0.160287 0.747474 0.180563
H34   H     H_    0.197149 0.715485 0.316228 0.175820
H35   H     H_    0.246008 0.161549 0.265294 0.202623
H36   H     H_    0.751267 0.841342 0.736303 0.193529
H37   H     H_    0.252217 0.656946 0.732207 0.185897
H38   H     H_    0.751864 0.345755 0.263614 0.198365
H39   H     H_    0.745433 0.662403 0.265119 0.195823
H40   H     H_    0.254019 0.338467 0.734658 0.202297
H41   H     H_    0.803514 0.140874 0.815898 0.144547
H42   H     H_    0.146280 0.744491 0.243708 0.142137
H43   H     H_    0.191098 0.144141 0.197348 0.152283
H44   H     H_    0.806243 0.859918 0.804836 0.143954
H45   H     H_    0.305922 0.636663 0.802922 0.139098
H46   H     H_    0.705962 0.380215 0.184008 0.147131
H47   H     H_    0.690473 0.645166 0.197345 0.146501
H48   H     H_    0.308981 0.355810 0.802534 0.150694
O33   O     O_R   0.062020 0.072840 0.007170 -0.628661
O34   O     O_R   0.937980 0.927160 0.992830 -0.631160
O35   O     O_R   0.937980 0.072840 0.992830 -0.631561
O36   O     O_R   0.062020 0.927160 0.007170 -0.624531
O37   O     O_R   0.562020 0.572840 0.007170 -0.651411
O38   O     O_R   0.437980 0.427160 0.992830 -0.630494
O39   O     O_R   0.437980 0.572840 0.992830 -0.626592
O40   O     O_R   0.562020 0.427160 0.007170 -0.630676
O41   O     O_R   0.947860 0.073950 0.109290 -0.620509
O42   O     O_R   0.052140 0.926050 0.890710 -0.608422
O43   O     O_R   0.052140 0.073950 0.890710 -0.608920
O44   O     O_R   0.947860 0.926050 0.109290 -0.620892
O45   O     O_R   0.447860 0.573950 0.109290 -0.615792
O46   O     O_R   0.552140 0.426050 0.890710 -0.615315
O47   O     O_R   0.552140 0.573950 0.890710 -0.615046
O48   O     O_R   0.447860 0.426050 0.109290 -0.599222
C181  C     C_R   0.072427 0.102398 0.936047 0.923246
C182  C     C_R   0.927400 0.897801 0.064037 0.911314
C183  C     C_R   0.927686 0.102393 0.063822 0.917541
C184  C     C_R   0.071453 0.896400 0.936951 0.920261
C185  C     C_R   0.572354 0.602429 0.936064 0.897433
C186  C     C_R   0.427610 0.397575 0.063913 0.939106
C187  C     C_R   0.427469 0.602553 0.063693 0.906755
C188  C     C_R   0.579623 0.409053 0.928673 0.939218
Zn9   Zn    Zn3+2 0.505960 0.500000 0.080520 0.959919
Zn10  Zn    Zn3+2 0.494040 0.500000 0.919480 0.973402
Zn11  Zn    Zn3+2 0.005960 0.000000 0.080520 0.944490
Zn12  Zn    Zn3+2 0.994040 0.000000 0.919480 0.967767
N1    N     N_R   0.801239 0.499891 0.391348 0.201804
O49   O     O_R   0.749270 0.501155 0.418446 -0.366514
O50   O     O_R   0.835180 0.490809 0.306066 -0.409403
N2    N     N_R   0.220898 0.499712 0.600281 0.225660
O51   O     O_R   0.271779 0.499961 0.538134 -0.373293
O52   O     O_R   0.208751 0.496700 0.684757 -0.396093
N3    N     N_R   0.292524 0.997637 0.387131 0.214390
O53   O     O_R   0.239605 0.997309 0.431146 -0.358112
O54   O     O_R   0.317002 0.011612 0.301074 -0.376746
N4    N     N_R   0.715985 0.999374 0.606162 0.220487
O55   O     O_R   0.767734 0.000938 0.548504 -0.372759
O56   O     O_R   0.700575 0.986826 0.690788 -0.399009
N5    N     N_R   0.076403 0.313616 0.655233 0.207204
O57   O     O_R   0.081009 0.245737 0.632025 -0.417502
O58   O     O_R   0.082715 0.331544 0.723931 -0.399546
N6    N     N_R   0.834567 0.666969 0.627204 0.231821
O59   O     O_R   0.839269 0.734376 0.644191 -0.431992
O60   O     O_R   0.789196 0.633457 0.678419 -0.410080
N7    N     N_R   0.836071 0.331129 0.625244 0.227760
O61   O     O_R   0.791130 0.364410 0.679657 -0.412328
O62   O     O_R   0.840515 0.262179 0.636200 -0.427905
N8    N     N_R   0.075951 0.687100 0.652440 0.210236
O63   O     O_R   0.081874 0.669546 0.721763 -0.405405
O64   O     O_R   0.080509 0.754859 0.628426 -0.418964
N9    N     N_R   0.573762 0.812733 0.646756 0.203880
O65   O     O_R   0.577425 0.746257 0.618808 -0.416355
O66   O     O_R   0.581448 0.826049 0.715242 -0.406520
N10   N     N_R   0.429846 0.179566 0.362914 0.204491
O67   O     O_R   0.429385 0.158322 0.290020 -0.382721
O68   O     O_R   0.424426 0.248328 0.382312 -0.406975
N11   N     N_R   0.321771 0.860076 0.640337 0.220683
O69   O     O_R   0.276280 0.894512 0.664301 -0.420034
O70   O     O_R   0.321777 0.809831 0.694285 -0.420730
N12   N     N_R   0.571689 0.188518 0.625020 0.234013
O71   O     O_R   0.582274 0.175290 0.690614 -0.393493
O72   O     O_R   0.547960 0.249569 0.626448 -0.415157

loop_
_geom_bond_atom_site_label_1
_geom_bond_atom_site_label_2
_geom_bond_distance
_ccdc_geom_bond_type
C140  C172  1.412988 A    
C159  H27   1.080043 S    
O5    C5    1.250606 A    
C59   C64   1.397157 A    
O7    Zn7   2.010195 S    
O31   Zn4   2.063215 S    
O8    Zn8   2.010195 S    
O4    C4    1.252616 A    
N3    O54   1.300696 A    
C134  C142  1.409356 A    
C116  C181  1.460783 S    
C122  H14   1.084681 S    
C77   C98   1.422097 A    
C38   C40   1.415233 A    
C139  C147  1.412413 A    
O47   Zn10  2.002535 S    
C3    C127  1.468614 S    
O44   Zn11  2.002536 S    
C137  C145  1.413123 A    
C104  C144  1.407126 A    
C82   C93   1.417016 A    
C33   C35   1.412513 A    
C95   C164  1.405018 A    
C5    C129  1.468504 S    
C76   N12   1.450990 S    
N10   O67   1.301335 A    
C62   N2    1.440088 S    
C36   C43   1.413560 A    
C49   C67   1.408031 A    
C82   C146  1.429314 A    
C51   C73   1.433495 A    
C49   C57   1.431975 A    
C150  C158  1.393427 A    
O48   C186  1.271165 A    
C162  H30   1.081708 S    
C52   C67   1.414128 A    
O37   C185  1.220575 A    
O6    Zn6   2.010998 S    
C105  C145  1.410280 A    
C29   C31   1.390940 A    
C41   C65   1.412222 A    
C118  H10   1.085361 S    
N12   O71   1.302295 A    
C126  C134  1.436238 A    
C154  H22   1.076947 S    
C38   C42   1.409507 A    
C45   C53   1.444527 A    
C51   C68   1.412815 A    
C81   C94   1.414858 A    
C156  C164  1.390167 A    
O27   C3    1.305399 A    
C105  C113  1.433653 A    
O39   Zn10  1.983061 S    
C93   C162  1.398593 A    
N3    O53   1.302090 A    
O41   Zn11  1.995279 S    
O42   Zn12  1.995280 S    
N4    O55   1.302515 A    
C150  H18   1.080286 S    
C44   C68   1.414593 A    
O42   C184  1.269011 A    
H2    C31   1.078757 S    
O45   C187  1.274129 A    
O46   C188  1.257942 A    
O30   Zn1   2.063485 S    
C34   C36   1.420905 A    
C164  H32   1.080009 S    
C91   C179  1.406702 A    
H6    C27   1.076986 S    
C160  H28   1.079965 S    
O17   Zn1   2.022726 S    
C82   C90   1.410276 A    
C135  C167  1.412868 A    
N2    O51   1.302842 A    
C168  H36   1.078635 S    
C133  C141  1.416657 A    
C48   C56   1.441965 A    
C15   C56   1.444460 S    
C20   C73   1.429592 A    
C80   C99   1.415938 A    
O23   Zn7   2.014936 S    
H7    C26   1.079801 S    
O24   Zn8   2.014936 S    
O9    C9    1.262769 A    
C50   C58   1.428658 A    
C60   C63   1.379257 A    
C139  C171  1.412713 A    
C153  C161  1.394943 A    
C137  C169  1.414793 A    
C106  C154  1.416444 A    
O13   C13   1.268414 A    
C111  C119  1.377939 A    
C11   C60   1.472268 S    
C112  C120  1.378750 A    
O33   Zn11  1.986694 S    
C13   C54   1.477559 S    
O36   Zn11  1.983064 S    
O34   Zn12  1.986695 S    
C97   C158  1.407456 A    
C81   C89   1.412592 A    
C40   C41   1.402665 A    
C78   C86   1.418342 A    
O12   C12   1.265398 A    
N9    O65   1.301790 A    
O7    C7    1.250016 A    
O9    Zn6   2.110040 S    
O8    C8    1.250549 A    
C103  C151  1.412953 A    
O11   Zn8   2.105130 S    
C21   C29   1.407339 A    
C118  C126  1.373113 A    
O16   Zn3   2.105130 S    
C113  C121  1.379988 A    
C23   C31   1.403477 A    
O22   Zn6   2.022726 S    
C47   C69   1.425247 A    
C42   C66   1.408550 A    
C50   C76   1.425748 A    
O30   C6    1.304282 A    
C26   C28   1.397385 A    
C55   C62   1.398127 A    
C134  C166  1.412683 A    
C30   C32   1.390237 A    
C18   C26   1.407730 A    
C104  C152  1.412917 A    
N6    O59   1.299075 A    
C17   C76   1.407344 A    
N8    O64   1.301093 A    
O2    Zn2   2.010998 S    
O45   Zn9   1.995279 S    
C46   C72   1.426016 A    
N6    O60   1.301726 A    
H8    C25   1.082244 S    
O6    C6    1.250797 A    
C81   C145  1.429797 A    
C78   C142  1.429551 A    
C87   C95   1.423251 A    
C115  C182  1.460048 S    
N1    O50   1.300390 A    
H1    C32   1.075667 S    
C123  H15   1.084851 S    
C161  H29   1.078397 S    
C107  C147  1.407963 A    
H3    C30   1.077900 S    
C121  H13   1.084615 S    
O20   C12   1.301019 A    
C78   C97   1.413230 A    
C47   C55   1.424256 A    
O21   C13   1.288240 A    
N5    O58   1.301489 A    
H5    C28   1.078182 S    
C179  H47   1.079968 S    
C14   C53   1.446911 S    
C165  H33   1.080754 S    
C52   C60   1.431958 A    
O23   C15   1.296748 A    
O24   C16   1.288465 A    
C102  C150  1.409950 A    
C109  C117  1.375065 A    
N11   O70   1.299079 A    
C136  C144  1.411530 A    
C107  C115  1.436600 A    
C6    C130  1.476089 S    
C16   C55   1.475886 S    
C103  C111  1.435170 A    
O3    C3    1.250672 A    
O37   Zn9   1.986694 S    
C157  H25   1.079124 S    
O38   C186  1.219957 A    
C46   C54   1.427505 A    
C73   N9    1.440157 S    
C19   C33   1.415717 A    
C116  C124  1.377888 A    
C19   C27   1.410709 A    
C165  C173  1.396984 A    
C83   C147  1.432536 A    
C119  H11   1.084850 S    
C12   C59   1.484259 S    
C120  H12   1.084782 S    
C175  H43   1.080004 S    
C176  H44   1.080097 S    
C130  C138  1.442850 A    
C79   C143  1.431698 A    
C92   C100  1.423312 A    
C172  H40   1.077965 S    
C8    C132  1.468329 S    
C173  H41   1.081123 S    
C20   C28   1.409482 A    
C155  C163  1.390806 A    
C170  C178  1.397803 A    
C20   C34   1.413014 A    
O5    Zn5   2.010998 S    
C111  C186  1.460665 S    
C24   C32   1.406843 A    
O2    C2    1.245929 A    
C90   C98   1.426910 A    
C86   C174  1.406671 A    
O44   C182  1.272085 A    
O12   Zn7   2.105130 S    
C83   C91   1.413029 A    
C177  H45   1.081385 S    
O13   Zn2   2.110040 S    
C166  C174  1.392427 A    
N10   O68   1.301452 A    
C18   C75   1.422726 A    
C87   C175  1.406506 A    
C45   C71   1.426129 A    
O25   C1    1.305089 A    
C100  C159  1.405042 A    
C70   N6    1.440532 S    
O10   C10   1.260800 A    
C25   C27   1.395979 A    
C170  H38   1.078033 S    
O14   C14   1.237347 A    
O41   C183  1.266609 A    
N12   O72   1.300911 A    
O43   C181  1.271163 A    
C89   C97   1.419463 A    
C79   C87   1.413267 A    
C80   C88   1.412500 A    
C22   C30   1.403844 A    
C47   C66   1.410875 A    
C53   C61   1.378453 A    
C138  C146  1.415742 A    
C34   C44   1.400100 A    
O10   Zn5   2.110040 S    
C125  C133  1.440045 A    
C167  C175  1.391981 A    
N4    O56   1.300560 A    
C128  C136  1.440662 A    
C115  C123  1.377571 A    
C21   C39   1.413216 A    
C113  C184  1.465878 S    
C151  H19   1.078011 S    
C79   C100  1.415697 A    
C114  C183  1.455368 S    
C124  H16   1.084870 S    
C84   C95   1.415654 A    
C166  H34   1.078535 S    
C57   C63   1.397311 A    
C149  C157  1.389187 A    
N7    O61   1.301272 A    
C163  H31   1.080286 S    
C109  C188  1.437484 S    
C152  H20   1.077900 S    
C110  C187  1.457473 S    
C106  C146  1.407421 A    
O19   C11   1.303959 A    
C84   C148  1.431713 A    
C9    C58   1.474241 S    
C155  H23   1.077766 S    
O25   Zn6   2.063485 S    
C136  C168  1.411383 A    
C101  C149  1.412659 A    
O3    Zn3   2.010195 S    
O27   Zn8   2.063215 S    
O46   Zn10  1.995280 S    
C153  H21   1.078392 S    
C80   C144  1.431306 A    
O32   Zn3   2.063215 S    
C86   C94   1.428304 A    
C19   C74   1.421724 A    
C114  C122  1.379564 A    
C122  C130  1.377801 A    
C151  C159  1.390246 A    
C45   C65   1.401357 A    
O15   Zn4   2.105130 S    
C149  H17   1.079424 S    
O22   C14   1.297117 A    
C1    C125  1.468125 S    
C71   N7    1.437927 S    
C48   C65   1.400323 A    
C90   C178  1.411128 A    
O18   Zn2   2.022726 S    
O33   C181  1.220076 A    
C37   C41   1.403853 A    
C102  C110  1.434670 A    
C106  C114  1.430975 A    
C24   C38   1.412828 A    
O35   C183  1.221181 A    
C84   C92   1.413327 A    
C51   C59   1.440087 A    
C21   C72   1.417582 A    
C85   C93   1.418023 A    
C169  C177  1.391545 A    
C138  C170  1.411999 A    
O18   C10   1.279715 A    
O38   Zn10  1.986695 S    
N11   O69   1.302179 A    
C88   C96   1.424149 A    
O39   C187  1.219163 A    
C105  C153  1.411408 A    
O40   Zn9   1.983064 S    
C75   N11   1.450883 S    
C43   C67   1.410080 A    
C10   C57   1.453603 S    
C85   C173  1.410897 A    
C98   C157  1.404107 A    
C17   C35   1.400829 A    
C121  C129  1.379548 A    
C33   C43   1.401977 A    
O28   C4    1.305305 A    
C49   C75   1.426453 A    
C39   C42   1.408333 A    
O29   C5    1.300445 A    
C92   C180  1.406502 A    
C101  C109  1.425501 A    
C102  C142  1.412025 A    
C83   C96   1.416643 A    
C74   N10   1.442446 S    
C104  C112  1.434128 A    
C108  C156  1.412824 A    
N1    O49   1.302059 A    
O15   C15   1.242473 A    
C22   C40   1.407517 A    
C112  C185  1.459660 S    
O16   C16   1.272740 A    
C46   C66   1.412362 A    
O1    C1    1.248332 A    
C58   C64   1.397064 A    
N5    O57   1.301017 A    
O47   C185  1.270118 A    
C35   C44   1.410276 A    
C88   C176  1.407911 A    
C91   C99   1.423151 A    
O4    Zn4   2.010195 S    
C48   C70   1.425391 A    
C135  C143  1.411594 A    
C168  C176  1.394395 A    
C56   C61   1.379478 A    
C133  C165  1.407672 A    
C178  H46   1.078760 S    
O14   Zn1   2.110040 S    
C117  H9    1.085368 S    
O43   Zn12  2.002535 S    
C17   C25   1.402332 A    
C23   C37   1.407031 A    
O26   C2    1.294503 A    
C119  C127  1.377787 A    
N9    O66   1.301348 A    
C24   C69   1.416624 A    
O11   C11   1.257112 A    
C4    C128  1.470729 S    
C72   N8    1.444248 S    
N2    O52   1.300451 A    
C171  H39   1.077849 S    
C180  H48   1.080028 S    
C7    C131  1.469822 S    
C77   C141  1.426764 A    
C152  C160  1.389633 A    
O28   Zn7   2.063215 S    
O34   C182  1.218554 A    
O29   Zn2   2.063485 S    
C37   C39   1.414989 A    
H4    C29   1.075798 S    
N7    O62   1.299384 A    
C103  C143  1.408076 A    
C96   C163  1.404320 A    
C99   C160  1.404711 A    
C120  C128  1.378169 A    
C94   C161  1.409279 A    
N8    O63   1.301497 A    
O19   Zn3   2.014936 S    
C140  C148  1.411446 A    
C50   C68   1.410231 A    
C22   C71   1.416637 A    
C158  H26   1.081215 S    
C132  C140  1.440961 A    
C61   N1    1.441503 S    
C89   C177  1.402868 A    
C108  C148  1.408149 A    
O26   Zn5   2.063485 S    
C77   C85   1.408052 A    
C69   N5    1.444244 S    
C23   C70   1.416039 A    
C131  C139  1.441912 A    
C129  C137  1.438459 A    
C127  C135  1.440987 A    
O36   C184  1.225962 A    
C171  C179  1.391986 A    
C154  C162  1.387055 A    
C123  C131  1.377050 A    
O20   Zn4   2.014936 S    
C117  C125  1.369328 A    
C107  C155  1.414138 A    
C169  H37   1.077180 S    
C156  H24   1.077984 S    
O21   Zn5   2.022726 S    
O48   Zn9   2.002536 S    
C124  C132  1.377841 A    
C63   N3    1.439977 S    
C174  H42   1.078762 S    
O31   C7    1.306431 A    
C2    C126  1.450734 S    
C52   C74   1.426903 A    
O32   C8    1.305348 A    
O17   C9    1.290508 A    
O35   Zn12  1.983061 S    
C172  C180  1.392037 A    
C54   C62   1.397809 A    
C18   C36   1.408560 A    
O40   C188  1.219595 A    
C110  C118  1.369999 A    
C167  H35   1.077943 S    
C108  C116  1.435149 A    
C64   N4    1.440136 S    
O1    Zn1   2.010998 S    
C101  C141  1.402467 A    
