data_mof_unit_50161.cif
_audit_creation_date              2012-12-10T20:44:41-0500
_audit_creation_method            fapswitch 2.2
_symmetry_space_group_name_H-M    P1
_symmetry_Int_Tables_number       1
_space_group_crystal_system       triclinic
_cell_length_a                    9.91268
_cell_length_b                    10.661421
_cell_length_c                    16.769025
_cell_angle_alpha                 87.403541
_cell_angle_beta                  92.485194
_cell_angle_gamma                 90.302898
_cell_volume                      1768.71082612

loop_
_atom_site_label
_atom_site_type_symbol
_atom_type_description
_atom_site_fract_x
_atom_site_fract_y
_atom_site_fract_z
_atom_type_partial_charge
C1    C     C_R   0.497949 0.261711 0.489930 0.941864
C2    C     C_R   0.643516 0.508647 0.783146 -0.160489
C3    C     C_R   0.602698 0.561831 0.140768 -0.160145
C4    C     C_R   0.599699 0.523018 0.220105 -0.136172
C5    C     C_R   0.485667 0.609706 0.100128 0.307336
C6    C     C_R   0.481208 0.534820 0.261201 -0.013051
C7    C     C_R   0.366469 0.590188 0.222703 -0.243482
C8    C     C_R   0.368241 0.630277 0.142252 -0.037312
C9    C     C_R   0.612642 0.070981 0.457805 0.088358
C10   C     C_R   0.491467 0.132807 0.466675 -0.280206
C11   C     C_R   0.367858 0.068024 0.452965 -0.161069
C12   C     C_R   0.515496 0.503293 0.653183 0.910332
C13   C     C_R   0.370467 0.936098 0.457135 0.475341
C14   C     C_R   0.494943 0.874357 0.474253 -0.138298
C15   C     C_R   0.615187 0.940351 0.462238 -0.025615
C16   C     C_3   0.703007 0.936527 0.390454 -0.147209
C17   C     C_3   0.693955 0.079056 0.383835 -0.232572
C18   C     C_R   0.076390 0.454334 0.565621 0.218238
C19   C     C_R   0.069173 0.554090 0.438567 -0.034249
C20   C     C_R   0.925845 0.555089 0.438153 -0.022198
C21   C     C_R   0.933727 0.450017 0.564298 0.030282
C22   C     C_3   0.934779 0.315696 0.596819 -0.173099
C23   C     C_R   0.499216 0.740700 0.493161 0.955569
C24   C     C_3   0.089908 0.324330 0.602242 -0.360498
C25   C     C_R   0.484641 0.505992 0.346691 0.894464
C26   C     C_R   0.520577 0.516711 0.739260 -0.106452
C27   C     C_R   0.401186 0.538628 0.777975 -0.160211
C28   C     C_R   0.401182 0.539716 0.861017 -0.032018
C29   C     C_R   0.526197 0.528737 0.904595 0.214600
C30   C     C_R   0.645926 0.513360 0.865526 -0.127816
H1    H     H_    0.690212 0.482880 0.249088 0.215310
H2    H     H_    0.793068 0.125358 0.392726 0.210564
H3    H     H_    0.121912 0.597326 0.389201 0.195082
H4    H     H_    0.694606 0.548684 0.109491 0.175480
H5    H     H_    0.141653 0.261710 0.562294 0.183371
H6    H     H_    0.741380 0.505113 0.899312 0.171131
H7    H     H_    0.737476 0.499085 0.753979 0.165283
H8    H     H_    0.276672 0.604804 0.255739 0.169407
H9    H     H_    0.307576 0.552570 0.743405 0.239271
N1    N     N_2   0.534786 0.527104 0.988119 -0.209185
N2    N     N_2   0.480018 0.619319 0.016049 -0.141985
N3    N     N_R   0.142860 0.499130 0.500540 -0.147756
N4    N     N_R   0.857210 0.499170 0.500530 -0.176060
O1    O     O_R   0.614690 0.316790 0.499990 -0.606117
O2    O     O_R   0.385350 0.316760 0.500000 -0.653852
O3    O     O_R   0.627460 0.498860 0.616130 -0.608500
O4    O     O_R   0.398120 0.498820 0.616130 -0.619398
O5    O     O_R   0.614650 0.683240 0.500000 -0.658344
O6    O     O_R   0.385310 0.683210 0.500010 -0.544967
O7    O     O_R   0.601880 0.501180 0.383870 -0.652063
O8    O     O_R   0.372540 0.501140 0.383870 -0.640844
Zn1   Zn    Zn3+2 0.653130 0.500020 0.499990 0.957610
Zn2   Zn    Zn3+2 0.346870 0.499980 0.500010 0.983734
O9    O     O_3   0.254978 0.866525 0.442347 -0.688953
H10   H     H_    0.207972 0.904151 0.393764 0.382252
C31   C     C_2   0.843812 0.893349 0.415244 0.455053
H11   H     H_    0.864012 0.844939 0.472871 0.112433
O10   O     O_2   0.936371 0.911556 0.370367 -0.533338
C32   C     C_2   0.647713 0.870900 0.317135 0.352803
H12   H     H_    0.706866 0.872399 0.264135 0.145412
O11   O     O_2   0.538364 0.817811 0.315557 -0.608801
C33   C     C_2   0.616653 0.135591 0.311184 0.397572
H13   H     H_    0.514876 0.104036 0.295806 0.092988
O12   O     O_2   0.668244 0.217597 0.269376 -0.569154
C34   C     C_2   0.853473 0.618178 0.369582 0.422318
H14   H     H_    0.757005 0.660194 0.377150 0.117280
O13   O     O_2   0.903492 0.628526 0.304293 -0.598249
C35   C     C_2   0.861594 0.300070 0.674220 0.525984
H15   H     H_    0.889890 0.356273 0.724310 0.100447
O14   O     O_2   0.768122 0.225817 0.681255 -0.537786
C36   C     C_2   0.890377 0.224334 0.535174 0.596066
H16   H     H_    0.870755 0.258421 0.474121 0.039328
O15   O     O_2   0.885418 0.111880 0.552263 -0.521989
C37   C     C_2   0.157710 0.319219 0.684559 0.445948
H17   H     H_    0.231901 0.246768 0.700094 0.096659
O16   O     O_2   0.130136 0.393922 0.734315 -0.579821
C38   C     C_2   0.270626 0.543963 0.901019 0.549338
H18   H     H_    0.264595 0.514817 0.963541 0.071506
O17   O     O_2   0.167454 0.578825 0.864327 -0.514902
C39   C     C_2   0.245047 0.689577 0.104340 0.411198
H19   H     H_    0.151932 0.688087 0.136172 0.097611
O18   O     O_2   0.246267 0.743465 0.038576 -0.528527
C40   C     C_2   0.239450 0.135839 0.431929 0.420642
H20   H     H_    0.240792 0.224303 0.397313 0.081876
O19   O     O_2   0.131191 0.094175 0.453133 -0.524589

loop_
_geom_bond_atom_site_label_1
_geom_bond_atom_site_label_2
_ccdc_geom_bond_type
C18   C21   A    
C19   C20   A    
C1    O2    A    
C16   C31   S    
C7    C8    A    
C38   H18   S    
C26   C27   A    
C29   C30   A    
C37   O16   D    
C18   C24   S    
C28   C29   A    
C18   N3    A    
N3    Zn2   S    
N4    Zn1   S    
C23   O6    A    
C6    C25   S    
C15   C16   S    
O3    Zn1   S    
C31   H11   S    
C25   O7    A    
C33   O12   D    
C21   N4    A    
C27   H9    S    
C16   C17   S    
C34   O13   D    
O7    Zn1   S    
C9    C10   A    
C19   N3    A    
O4    Zn2   S    
O1    Zn1   S    
O2    Zn2   S    
C32   H12   S    
C13   C14   A    
C12   O4    A    
C38   O17   D    
C32   O11   D    
C24   H5    S    
C37   H17   S    
C20   C34   S    
C12   O3    A    
C19   H3    S    
C36   O15   D    
C35   H15   S    
C3    H4    S    
C11   C40   S    
C12   C26   S    
O8    Zn2   S    
C16   C32   S    
C14   C23   S    
C25   O8    A    
C33   H13   S    
C17   C33   S    
C1    O1    A    
C40   H20   S    
C2    C26   A    
C28   C38   S    
C22   C35   S    
C39   O18   D    
C9    C17   S    
N1    N2    D    
C40   O19   D    
C22   C24   S    
C4    C6    A    
C3    C4    A    
C22   C36   S    
C20   N4    A    
C13   O9    S    
C5    N2    S    
O9    H10   S    
C23   O5    A    
C1    C10   S    
C39   H19   S    
C3    C5    A    
C5    C8    A    
C6    C7    A    
C30   H6    S    
C2    C30   A    
C9    C15   A    
C36   H16   S    
C11   C13   A    
C2    H7    S    
C24   C37   S    
O6    Zn2   S    
C29   N1    S    
C7    H8    S    
C31   O10   D    
C4    H1    S    
C10   C11   A    
O5    Zn1   S    
C35   O14   D    
C34   H14   S    
C27   C28   A    
C8    C39   S    
C17   H2    S    
C14   C15   A    
C21   C22   S    
