data_mof_unit_56499.cif
_audit_creation_date              2013-03-05T15:45:54-0500
_audit_creation_method            fapswitch 2.2
_symmetry_space_group_name_H-M    P1
_symmetry_Int_Tables_number       1
_space_group_crystal_system       triclinic
_cell_length_a                    20.626502
_cell_length_b                    7.252493
_cell_length_c                    20.291088
_cell_angle_alpha                 89.999957
_cell_angle_beta                  101.610531
_cell_angle_gamma                 89.999958
_cell_volume                      2973.30626752

loop_
_atom_site_label
_atom_site_type_symbol
_atom_site_description
_atom_site_fract_x
_atom_site_fract_y
_atom_site_fract_z
_atom_type_partial_charge
O1    O     O_R   0.673670 0.377510 0.185950 -0.579941
O2    O     O_R   0.326330 0.622490 0.814050 -0.579941
O3    O     O_R   0.826330 0.877510 0.314050 -0.579943
O4    O     O_R   0.173670 0.122490 0.685950 -0.579943
O5    O     O_R   0.806260 0.705340 0.185590 -0.587292
O6    O     O_R   0.193740 0.294660 0.814410 -0.587291
O7    O     O_R   0.693740 0.205340 0.314410 -0.587291
O8    O     O_R   0.306260 0.794660 0.685590 -0.587292
C1    C     C_R   0.825665 0.538602 0.170853 0.992814
C2    C     C_R   0.174335 0.461398 0.829147 0.992811
C3    C     C_R   0.674335 0.038602 0.329147 0.992814
C4    C     C_R   0.325665 0.961398 0.670853 0.992814
O9    O     O_R   0.672940 0.707120 0.178050 -0.565138
O10   O     O_R   0.327060 0.292880 0.821950 -0.565138
O11   O     O_R   0.827060 0.207120 0.321950 -0.565139
O12   O     O_R   0.172940 0.792880 0.678050 -0.565141
O13   O     O_R   0.692060 0.879040 0.306460 -0.567817
O14   O     O_R   0.307940 0.120960 0.693540 -0.567817
O15   O     O_R   0.807940 0.379040 0.193540 -0.567817
O16   O     O_R   0.192060 0.620960 0.806460 -0.567817
C5    C     C_R   0.648144 0.539929 0.161739 1.000264
C6    C     C_R   0.351856 0.460071 0.838261 1.000265
C7    C     C_R   0.851856 0.039929 0.338261 1.000266
C8    C     C_R   0.148144 0.960071 0.661739 1.000269
O17   O     O_3   0.756430 0.544390 0.292140 -0.281320
O18   O     O_3   0.243570 0.455610 0.707860 -0.281322
O19   O     O_3   0.743570 0.044390 0.207860 -0.281320
O20   O     O_3   0.256430 0.955610 0.792140 -0.281319
V1    V     V_3+5 0.748810 0.818610 0.242180 1.276046
V2    V     V_3+5 0.251190 0.181390 0.757820 1.276045
V3    V     V_3+5 0.751190 0.318610 0.257820 1.276045
V4    V     V_3+5 0.248810 0.681390 0.742180 1.276044
C9    C     C_R   0.085666 0.959939 0.609513 -0.326174
C10   C     C_R   0.914335 0.040061 0.390486 -0.326177
C11   C     C_R   0.414334 0.459938 0.890487 -0.326178
C12   C     C_R   0.585665 0.540062 0.109513 -0.326178
C13   C     C_R   0.017007 0.194769 0.445538 0.280243
C14   C     C_R   0.982993 0.805233 0.554461 0.280251
C15   C     C_R   0.482993 0.694770 0.054461 0.280245
C16   C     C_R   0.517007 0.305230 0.945539 0.280245
C17   C     C_R   0.963078 0.177886 0.390444 0.269662
C18   C     C_R   0.036921 0.822117 0.609556 0.269658
C19   C     C_R   0.536922 0.677887 0.109555 0.269665
C20   C     C_R   0.463078 0.322113 0.890445 0.269665
C21   C     C_R   0.921969 0.916275 0.444546 -0.123093
C22   C     C_R   0.078032 0.083724 0.555453 -0.123099
C23   C     C_R   0.578032 0.416276 0.055453 -0.123094
C24   C     C_R   0.421969 0.583724 0.944547 -0.123093
C25   C     C_R   0.976283 0.928913 0.499499 -0.021671
C26   C     C_R   0.023717 0.071088 0.500501 -0.021666
C27   C     C_R   0.523717 0.428912 0.000501 -0.021670
C28   C     C_R   0.476283 0.571088 0.999499 -0.021671
H1    H     H_    0.116495 0.185187 0.555496 0.182299
H2    H     H_    0.883507 0.814809 0.444503 0.182301
H3    H     H_    0.383506 0.685189 0.944503 0.182301
H4    H     H_    0.616494 0.314811 0.055497 0.182301
C29   C     C_3   0.529684 0.160710 0.506484 0.601684
C30   C     C_3   0.470316 0.839290 0.493516 0.601683
C31   C     C_3   0.970316 0.660710 0.993516 0.601684
C32   C     C_3   0.029684 0.339290 0.006484 0.601683
C33   C     C_3   0.533096 0.020916 0.564354 -0.285327
C34   C     C_3   0.466904 0.979084 0.435646 -0.285328
C35   C     C_3   0.966904 0.520917 0.935646 -0.285326
C36   C     C_3   0.033096 0.479083 0.064354 -0.285327
H5    H     H_    0.560232 0.041988 0.616873 0.193517
H6    H     H_    0.439768 0.958012 0.383127 0.193517
H7    H     H_    0.939768 0.541989 0.883127 0.193517
H8    H     H_    0.060232 0.458011 0.116873 0.193517
H9    H     H_    0.582418 0.751282 0.527717 0.195773
H10   H     H_    0.417582 0.248718 0.472283 0.195773
H11   H     H_    0.917582 0.251282 0.972283 0.195773
H12   H     H_    0.082418 0.748718 0.027717 0.195773
C37   C     C_1   0.371324 0.970417 0.625119 -0.210514
C38   C     C_1   0.628676 0.029583 0.374881 -0.210513
C39   C     C_1   0.128676 0.470417 0.874881 -0.210512
C40   C     C_1   0.871324 0.529583 0.125119 -0.210513
C41   C     C_3   0.454203 0.135369 0.484378 -0.313397
C42   C     C_3   0.545797 0.864631 0.515622 -0.313395
C43   C     C_3   0.045797 0.635368 0.015622 -0.313396
C44   C     C_3   0.954203 0.364632 0.984378 -0.313396
C45   C     C_3   0.457469 0.991689 0.541493 0.047096
C46   C     C_3   0.542530 0.008311 0.458506 0.047096
C47   C     C_3   0.042530 0.491689 0.958507 0.047096
C48   C     C_3   0.957469 0.508311 0.041493 0.047095
C49   C     C_1   0.409979 0.979399 0.587288 0.138899
C50   C     C_1   0.590021 0.020601 0.412711 0.138900
C51   C     C_1   0.090021 0.479399 0.912711 0.138900
C52   C     C_1   0.909979 0.520601 0.087289 0.138899
N1    N     N_R   0.042164 0.697467 0.665464 0.257288
O21   O     O_R   0.050504 0.761091 0.726556 -0.394429
O22   O     O_R   0.038911 0.520130 0.655548 -0.329864
N2    N     N_R   0.957833 0.302540 0.334538 0.257292
O23   O     O_R   0.961081 0.479877 0.344455 -0.329866
O24   O     O_R   0.949496 0.238921 0.273445 -0.394429
N3    N     N_R   0.457833 0.197458 0.834538 0.257292
O25   O     O_R   0.449496 0.261077 0.773446 -0.394429
O26   O     O_R   0.461080 0.020122 0.844456 -0.329863
N4    N     N_R   0.542167 0.802542 0.165462 0.257292
O27   O     O_R   0.538919 0.979878 0.155544 -0.329863
O28   O     O_R   0.550504 0.738923 0.226554 -0.394429
N5    N     N_R   0.065365 0.336702 0.444699 0.249065
O29   O     O_R   0.097886 0.343613 0.396069 -0.327215
O30   O     O_R   0.072796 0.468183 0.489221 -0.360563
N6    N     N_R   0.934633 0.663305 0.555302 0.249067
O31   O     O_R   0.927206 0.531811 0.510785 -0.360554
O32   O     O_R   0.902103 0.656422 0.603925 -0.327220
N7    N     N_R   0.434635 0.836703 0.055300 0.249065
O33   O     O_R   0.402114 0.843614 0.103930 -0.327216
O34   O     O_R   0.427205 0.968184 0.010778 -0.360561
N8    N     N_R   0.565365 0.163297 0.944700 0.249065
O35   O     O_R   0.572795 0.031816 0.989222 -0.360561
O36   O     O_R   0.597885 0.156384 0.896070 -0.327215
O37   O     O_3   0.561922 0.331228 0.512624 -0.740749
H13   H     H_    0.544240 0.398921 0.547618 0.329847
O38   O     O_3   0.438078 0.668772 0.487376 -0.740750
H14   H     H_    0.455760 0.601079 0.452382 0.329847
O39   O     O_3   0.938078 0.831228 0.987376 -0.740750
H15   H     H_    0.955760 0.898922 0.952382 0.329847
O40   O     O_3   0.061922 0.168772 0.012624 -0.740749
H16   H     H_    0.044240 0.101078 0.047618 0.329847

loop_
_geom_bond_atom_site_label_1
_geom_bond_atom_site_label_2
_geom_bond_distance
_ccdc_geom_bond_type
O17   V3    1.774161 S    
C24   H3    1.081955 S    
C47   C51   1.482347 S    
C30   C34   1.542225 S    
N5    O29   1.300990 A    
O19   V1    1.774159 S    
O13   V1    1.969278 S    
C34   C41   1.560581 S    
O3    C7    1.342382 A    
N3    O25   1.301294 A    
C19   N4    1.437535 S    
C44   C48   1.549862 S    
O15   V3    1.969275 S    
N6    O32   1.301001 A    
C5    C12   1.494680 S    
O1    C5    1.342384 A    
C6    C11   1.494682 S    
C12   C23   1.401609 A    
C9    C18   1.417866 A    
C36   H8    1.110035 S    
O9    V1    1.994100 S    
C14   C18   1.414755 A    
H12   C43   1.109942 S    
O4    C8    1.342382 A    
C32   C47   1.530815 S    
O38   H14   0.991213 S    
O1    V3    1.981735 S    
C32   O40   1.397757 S    
O2    V4    1.981738 S    
O3    V1    1.981738 S    
N8    O35   1.301217 A    
C36   C48   1.549895 S    
C14   N6    1.435847 S    
C1    O15   1.323819 A    
C3    O13   1.323820 A    
C2    O16   1.323819 A    
C43   C47   1.549862 S    
O2    C6    1.342382 A    
N7    O33   1.300991 A    
O14   V2    1.969275 S    
C1    C40   1.450581 S    
C21   C25   1.415630 A    
N1    O22   1.301418 A    
C40   C52   1.214727 T    
C16   C20   1.414756 A    
C16   N8    1.435850 S    
O11   C7    1.331646 A    
C15   C28   1.416117 A    
C34   C46   1.549895 S    
O12   C8    1.331646 A    
C4    C37   1.450580 S    
H10   C41   1.109943 S    
C9    C22   1.401608 A    
N7    O34   1.301217 A    
H9    C42   1.109943 S    
C10   C17   1.417867 A    
O10   V2    1.994099 S    
C11   C24   1.401608 A    
H11   C44   1.109943 S    
O5    V1    1.986273 S    
C35   C44   1.560580 S    
C35   H7    1.110035 S    
O7    V3    1.986276 S    
C34   H6    1.110035 S    
C27   C28   1.418761 A    
O8    V4    1.986276 S    
C29   C41   1.542038 S    
C31   C48   1.530815 S    
C30   C45   1.530815 S    
C31   C43   1.542040 S    
C14   C25   1.416116 A    
O18   V4    1.774160 S    
C15   C19   1.414756 A    
C46   C50   1.482345 S    
O4    V2    1.981737 S    
C35   C47   1.549893 S    
O7    C3    1.326698 A    
O5    C1    1.326697 A    
C2    C39   1.450580 S    
C42   C46   1.549863 S    
C41   C45   1.549863 S    
C33   C42   1.560581 S    
O8    C4    1.326697 A    
C7    C10   1.494682 S    
N2    O24   1.301295 A    
O9    C5    1.331646 A    
C10   C21   1.401608 A    
C29   O37   1.397757 S    
C38   C50   1.214727 T    
O11   V3    1.994098 S    
C11   C20   1.417867 A    
C37   C49   1.214727 T    
C39   C51   1.214727 T    
O6    V2    1.986276 S    
C21   H2    1.081957 S    
N4    O27   1.301417 A    
N4    O28   1.301292 A    
C30   O38   1.397757 S    
C36   C43   1.560580 S    
C31   O39   1.397756 S    
O37   H13   0.991213 S    
O16   V4    1.969277 S    
C32   C44   1.542038 S    
C48   C52   1.482345 S    
C3    C38   1.450580 S    
N6    O31   1.301217 A    
C15   N7    1.435851 S    
C23   C27   1.415629 A    
O40   H16   0.991213 S    
N3    O26   1.301417 A    
C29   C33   1.542225 S    
O12   V4    1.994098 S    
C16   C27   1.416120 A    
C22   C26   1.415629 A    
C31   C35   1.542225 S    
C8    C9    1.494682 S    
C32   C36   1.542225 S    
C18   N1    1.437535 S    
O10   C6    1.331647 A    
O20   V2    1.774160 S    
C20   N3    1.437534 S    
C33   C45   1.549895 S    
O39   H15   0.991213 S    
C13   N5    1.435851 S    
C13   C26   1.416117 A    
C22   H1    1.081956 S    
N2    O23   1.301417 A    
C13   C17   1.414758 A    
N8    O36   1.300992 A    
O6    C2    1.326698 A    
C30   C42   1.542038 S    
C33   H5    1.110035 S    
C24   C28   1.415629 A    
C17   N2    1.437533 S    
N5    O30   1.301218 A    
C25   C26   1.418760 A    
C4    O14   1.323819 A    
C29   C46   1.530815 S    
C12   C19   1.417867 A    
N1    O21   1.301294 A    
C45   C49   1.482345 S    
C23   H4    1.081955 S    
