data_mof_unit_14163.cif
_audit_creation_date              2012-12-10T19:37:34-0500
_audit_creation_method            fapswitch 2.2
_symmetry_space_group_name_H-M    P1
_symmetry_Int_Tables_number       1
_space_group_crystal_system       triclinic
_cell_length_a                    13.928044
_cell_length_b                    15.917477
_cell_length_c                    17.199533
_cell_angle_alpha                 94.723915
_cell_angle_beta                  87.899781
_cell_angle_gamma                 83.499982
_cell_volume                      3771.67260488

loop_
_atom_site_label
_atom_site_type_symbol
_atom_type_description
_atom_site_fract_x
_atom_site_fract_y
_atom_site_fract_z
_atom_type_partial_charge
C1    C     C_R   0.501080 0.509268 0.650706 0.848378
C2    C     C_R   0.499962 0.490304 0.348281 0.828459
C3    C     C_R   0.434135 0.570412 0.862283 -0.341066
C4    C     C_R   0.520030 0.397267 0.136407 -0.340024
C5    C     C_R   0.440507 0.573637 0.781475 0.424932
C6    C     C_R   0.516685 0.403195 0.218066 0.423315
C7    C     C_R   0.435797 0.248980 0.520553 0.023858
C8    C     C_R   0.552551 0.752468 0.465998 0.033543
C9    C     C_R   0.437117 0.159722 0.512108 0.338522
C10   C     C_R   0.542174 0.842099 0.464841 0.355666
C11   C     C_R   0.526211 0.108184 0.493802 0.205647
C12   C     C_R   0.475886 0.893113 0.518728 0.218638
C13   C     C_R   0.605831 0.148960 0.468123 -0.192083
C14   C     C_R   0.411158 0.850893 0.563236 -0.190132
C15   C     C_R   0.594461 0.237794 0.463483 -0.070677
C16   C     C_R   0.418203 0.761135 0.556051 -0.079662
C17   C     C_R   0.316766 0.513021 0.501020 0.830083
C18   C     C_R   0.683234 0.486962 0.498920 0.781866
C19   C     C_1   0.785923 0.479773 0.496365 -0.104109
C20   C     C_1   0.214106 0.520111 0.502340 -0.083163
C21   C     C_2   0.976365 0.465302 0.489955 -0.007741
C22   C     C_2   0.023723 0.534960 0.504853 -0.027307
C23   C     C_1   0.127476 0.526926 0.503526 -0.009432
C24   C     C_1   0.872584 0.473001 0.493575 -0.028185
C25   C     C_R   0.504080 0.512243 0.735936 -0.262486
C26   C     C_R   0.503544 0.484356 0.261065 -0.271639
C27   C     C_R   0.569193 0.454160 0.772167 -0.206438
C28   C     C_R   0.495740 0.557862 0.218931 -0.191362
C29   C     C_R   0.568975 0.458335 0.854370 0.476622
C30   C     C_R   0.512557 0.549998 0.137654 0.465349
C31   C     C_R   0.496287 0.513482 0.899159 0.164330
C32   C     C_R   0.518604 0.469050 0.095798 0.166806
Cu1   Cu    Cu3+1 0.495370 0.585120 0.503830 0.956485
Cu2   Cu    Cu3+1 0.504630 0.414880 0.496170 0.957651
H1    H     H_    0.380479 0.613611 0.897170 0.189048
H2    H     H_    0.523684 0.335487 0.104105 0.191242
H3    H     H_    0.654333 0.267968 0.441349 0.143449
H4    H     H_    0.367657 0.729264 0.588900 0.161991
N1    N     N_2   0.486568 0.519501 0.981688 -0.165533
N2    N     N_2   0.524955 0.457278 0.013074 -0.174035
N3    N     N_R   0.511590 0.287020 0.490400 -0.220566
N4    N     N_R   0.488410 0.712980 0.509600 -0.223218
N5    N     N_2   0.537970 0.017296 0.497736 -0.122377
N6    N     N_2   0.467181 0.984817 0.524634 -0.130213
O1    O     O_R   0.495670 0.579790 0.617520 -0.539979
O2    O     O_R   0.504330 0.420210 0.382480 -0.514733
O3    O     O_R   0.503490 0.436020 0.611040 -0.623003
O4    O     O_R   0.496510 0.563980 0.388960 -0.636122
O5    O     O_R   0.357690 0.582040 0.503680 -0.579789
O6    O     O_R   0.642310 0.417960 0.496320 -0.604317
O7    O     O_R   0.365510 0.438280 0.497200 -0.584936
O8    O     O_R   0.634490 0.561720 0.502800 -0.572453
C33   C     C_2   0.975321 0.623193 0.524109 0.391882
H5    H     H_    0.019431 0.673995 0.537985 0.070903
O9    O     O_2   0.887736 0.641037 0.524366 -0.490966
C34   C     C_2   0.024854 0.377286 0.469602 0.376204
H6    H     H_    0.980888 0.325225 0.462718 0.059438
O10   O     O_2   0.112407 0.361262 0.459431 -0.525527
C35   C     C_2   0.466134 0.643969 0.256476 0.485167
H7    H     H_    0.505905 0.669653 0.303508 0.011567
O11   O     O_2   0.397225 0.687770 0.233154 -0.514182
C36   C     C_2   0.641065 0.392508 0.724629 0.441955
H8    H     H_    0.666548 0.406389 0.667272 0.056221
O12   O     O_2   0.672145 0.325116 0.748714 -0.488788
O13   O     O_3   0.521064 0.622666 0.099721 -0.564471
C37   C     C_3   0.619353 0.626248 0.076971 0.057577
H9    H     H_    0.621081 0.652316 0.019037 0.165532
H10   H     H_    0.664091 0.563102 0.069854 0.107092
C38   C     C_3   0.665375 0.685603 0.135236 -0.374752
H11   H     H_    0.625086 0.750054 0.137462 0.239726
H12   H     H_    0.661493 0.662263 0.194263 0.202896
C39   C     C_3   0.771060 0.690782 0.111613 -0.870841
H13   H     H_    0.813477 0.627173 0.110212 0.254316
H14   H     H_    0.802108 0.734747 0.154720 0.273501
H15   H     H_    0.776871 0.715023 0.053077 0.251813
O14   O     O_3   0.640101 0.408855 0.889957 -0.543532
C40   C     C_3   0.711806 0.459207 0.917246 0.074642
H16   H     H_    0.732582 0.438804 0.975160 0.164165
H17   H     H_    0.686679 0.528578 0.926145 0.093285
C41   C     C_3   0.801582 0.444850 0.861679 -0.322179
H18   H     H_    0.826361 0.375787 0.851852 0.259872
H19   H     H_    0.783382 0.469212 0.804717 0.205051
C42   C     C_3   0.883563 0.490703 0.894837 -0.905927
H20   H     H_    0.860612 0.560067 0.904370 0.254817
H21   H     H_    0.947297 0.479771 0.853032 0.270630
H22   H     H_    0.904951 0.466283 0.951128 0.258325
O15   O     O_3   0.377485 0.630705 0.745636 -0.595860
C43   C     C_3   0.387866 0.715714 0.772786 0.064234
H23   H     H_    0.414813 0.747970 0.722993 0.157406
H24   H     H_    0.441128 0.722610 0.819240 0.133686
C44   C     C_3   0.289187 0.761340 0.802322 -0.367977
H25   H     H_    0.239007 0.762152 0.753530 0.221553
H26   H     H_    0.258687 0.726497 0.849019 0.231830
C45   C     C_3   0.296888 0.852324 0.834952 -0.862119
H27   H     H_    0.343013 0.852568 0.886292 0.259479
H28   H     H_    0.223745 0.884341 0.853682 0.265980
H29   H     H_    0.328490 0.888408 0.789798 0.267944
O16   O     O_3   0.513182 0.329412 0.255016 -0.566020
C46   C     C_3   0.604100 0.279070 0.246662 0.073301
H30   H     H_    0.649476 0.298862 0.295222 0.140001
H31   H     H_    0.644592 0.284379 0.190425 0.124492
C47   C     C_3   0.588264 0.186049 0.250912 -0.337395
H32   H     H_    0.552356 0.177950 0.308082 0.220868
H33   H     H_    0.539913 0.167216 0.204157 0.228035
C48   C     C_3   0.683642 0.127992 0.240547 -0.910286
H34   H     H_    0.717196 0.131096 0.181419 0.264048
H35   H     H_    0.670159 0.061497 0.247202 0.259738
H36   H     H_    0.734569 0.147121 0.285033 0.246916
C49   C     C_2   0.634531 0.702862 0.418974 0.458116
H37   H     H_    0.628758 0.641027 0.390672 0.070329
O17   O     O_2   0.711941 0.731166 0.411427 -0.468441
C50   C     C_2   0.357741 0.299011 0.571470 0.503368
H38   H     H_    0.372743 0.353614 0.608328 0.096574
O18   O     O_2   0.275838 0.278873 0.575108 -0.511256
O19   O     O_3   0.601113 0.877860 0.412780 -0.513850
C51   C     C_3   0.546840 0.913807 0.352811 0.108380
H39   H     H_    0.591168 0.958436 0.325859 0.191234
H40   H     H_    0.477664 0.951361 0.374657 0.106182
C52   C     C_3   0.524412 0.846428 0.290143 -0.422578
H41   H     H_    0.590304 0.801417 0.274136 0.232485
H42   H     H_    0.466978 0.812181 0.314643 0.223780
C53   C     C_3   0.487408 0.886344 0.217575 -0.846111
H43   H     H_    0.422512 0.932814 0.233213 0.252632
H44   H     H_    0.467127 0.836175 0.174629 0.292544
H45   H     H_    0.544561 0.919002 0.190078 0.244446
O20   O     O_3   0.352672 0.124304 0.527377 -0.514952
C54   C     C_3   0.313660 0.096499 0.455872 0.094826
H46   H     H_    0.277958 0.039073 0.465849 0.183506
H47   H     H_    0.369451 0.077128 0.407546 0.084258
C55   C     C_3   0.237720 0.164604 0.430095 -0.276076
H48   H     H_    0.180001 0.181095 0.476967 0.275217
H49   H     H_    0.272160 0.222506 0.419456 0.248789
C56   C     C_3   0.192018 0.133796 0.355297 -0.912282
H50   H     H_    0.248087 0.118349 0.307052 0.256542
H51   H     H_    0.137282 0.184489 0.338332 0.275979
H52   H     H_    0.155678 0.076545 0.364498 0.259004
C57   C     C_2   0.702510 0.102146 0.445459 0.422297
H53   H     H_    0.761178 0.136835 0.427612 0.038435
O21   O     O_2   0.718719 0.025306 0.446551 -0.460577
C58   C     C_2   0.333728 0.897330 0.617215 0.387434
H54   H     H_    0.282311 0.862274 0.645927 0.051276
O22   O     O_2   0.326084 0.974314 0.630906 -0.465872

loop_
_geom_bond_atom_site_label_1
_geom_bond_atom_site_label_2
_ccdc_geom_bond_type
C37   H10   S    
O15   C43   S    
C4    H2    S    
O20   C54   S    
C27   C29   A    
Cu1   O1    S    
C33   O9    D    
C17   O7    A    
C50   O18   D    
C18   O8    A    
C29   O14   S    
C40   H16   S    
C7    C50   S    
Cu1   O8    S    
C57   O21   D    
Cu2   O7    S    
Cu1   N4    S    
C6    O16   S    
C8    N4    A    
C38   H11   S    
C41   C42   S    
C47   H33   S    
C52   C53   S    
C37   C38   S    
Cu1   O5    S    
O19   C51   S    
O16   C46   S    
C17   C20   S    
C51   H39   S    
C47   C48   S    
C18   C19   S    
C38   H12   S    
C15   H3    S    
C36   O12   D    
C42   H20   S    
C7    N3    A    
C31   N1    S    
C56   H52   S    
C20   C23   T    
C11   N5    S    
Cu2   O2    S    
C45   H28   S    
C40   H17   S    
C37   H9    S    
C35   H7    S    
C21   C22   D    
C1    C25   S    
C45   H27   S    
Cu2   N3    S    
C39   H15   S    
C50   H38   S    
C22   C33   S    
C52   H42   S    
C48   H36   S    
Cu2   O6    S    
C35   O11   D    
O14   C40   S    
C15   N3    A    
C39   H13   S    
C39   H14   S    
C17   O5    A    
C44   H25   S    
C1    O3    A    
C45   H29   S    
C2    O4    A    
C33   H5    S    
C2    O2    A    
C13   C57   S    
C38   C39   S    
C55   H49   S    
N5    N6    D    
C54   H47   S    
C36   H8    S    
C27   C36   S    
C44   H26   S    
C48   H35   S    
C46   H30   S    
C43   C44   S    
C3    H1    S    
C46   C47   S    
Cu1   Cu2   S    
C2    C26   S    
C58   H54   S    
C3    C31   A    
C9    C11   A    
C4    C32   A    
C10   C12   A    
C51   H40   S    
C5    C25   A    
C4    C6    A    
C46   H31   S    
C43   H24   S    
C14   C58   S    
C13   C15   A    
C56   H50   S    
C14   C16   A    
C55   C56   S    
C34   H6    S    
C53   H44   S    
C54   H46   S    
C16   N4    A    
N1    N2    D    
C18   O6    A    
C48   H34   S    
C28   C35   S    
C7    C9    A    
C42   H21   S    
C12   C14   A    
C41   H18   S    
C3    C5    A    
C21   C34   S    
C52   H41   S    
C58   O22   D    
C25   C27   A    
C57   H53   S    
C26   C28   A    
C9    O20   S    
C51   C52   S    
C53   H45   S    
C49   O17   D    
C19   C24   T    
C54   C55   S    
C29   C31   A    
C8    C49   S    
C44   C45   S    
C30   C32   A    
C11   C13   A    
C1    O1    A    
C6    C26   A    
C40   C41   S    
C28   C30   A    
C41   H19   S    
C34   O10   D    
C55   H48   S    
C32   N2    S    
C47   H32   S    
C30   O13   S    
C5    O15   S    
C42   H22   S    
C43   H23   S    
C8    C10   A    
O13   C37   S    
C21   C24   S    
C56   H51   S    
Cu1   O4    S    
C22   C23   S    
C12   N6    S    
Cu2   O3    S    
C53   H43   S    
C49   H37   S    
C10   O19   S    
C16   H4    S    
