data_mof_unit_13087.cif
_audit_creation_date              2012-12-10T17:22:39-0500
_audit_creation_method            fapswitch 2.2
_symmetry_space_group_name_H-M    P1
_symmetry_Int_Tables_number       1
_space_group_crystal_system       triclinic
_cell_length_a                    10.65075
_cell_length_b                    10.859711
_cell_length_c                    9.629466
_cell_angle_alpha                 88.082678
_cell_angle_beta                  89.294143
_cell_angle_gamma                 93.539898
_cell_volume                      1110.92025889

loop_
_atom_site_label
_atom_site_type_symbol
_atom_type_description
_atom_site_fract_x
_atom_site_fract_y
_atom_site_fract_z
_atom_type_partial_charge
C1    C     C_R   0.502551 0.261810 0.503153 0.865327
C2    C     C_3   0.960691 0.500899 0.365365 -0.314899
C3    C     C_3   0.034945 0.401041 0.439923 0.253128
C4    C     C_3   0.123467 0.500241 0.502435 -0.120752
C5    C     C_R   0.422139 0.098021 0.756324 -0.234748
C6    C     C_R   0.346578 0.028487 0.853037 0.610976
C7    C     C_R   0.296734 0.912250 0.820226 -0.244022
C8    C     C_R   0.332744 0.860351 0.696892 0.574739
C9    C     C_R   0.419362 0.926014 0.603952 -0.041381
C10   C     C_R   0.449183 0.052537 0.623592 -0.126145
C11   C     C_R   0.505541 0.126049 0.510391 -0.056406
C12   C     C_R   0.259827 0.499528 0.500813 0.967466
C13   C     C_R   0.554534 0.067871 0.394293 0.453723
C14   C     C_R   0.544530 0.939520 0.390011 -0.285306
C15   C     C_R   0.479255 0.868855 0.494117 -0.063352
C16   C     C_R   0.669917 0.662465 0.136275 -0.218704
C17   C     C_R   0.755062 0.741181 0.060976 -0.278960
C18   C     C_R   0.756439 0.740947 0.917694 0.619404
C19   C     C_R   0.672435 0.662090 0.848875 -0.198031
C20   C     C_R   0.585099 0.578881 0.921447 0.069332
C21   C     C_R   0.584337 0.579177 0.070689 0.112237
C22   C     C_R   0.416839 0.426296 0.080610 0.541698
C23   C     C_R   0.491943 0.736322 0.497960 0.858282
C24   C     C_R   0.415016 0.427344 0.932031 0.388252
C25   C     C_R   0.740131 0.500856 0.499203 0.873907
C26   C     C_3   0.036721 0.501275 0.630556 0.329673
C27   C     C_3   0.949477 0.400267 0.569196 0.563161
C28   C     C_3   0.876378 0.501755 0.497739 -0.288883
C29   C     C_3   0.962527 0.604326 0.562044 -0.334634
C30   C     C_3   0.048426 0.600104 0.432103 0.403082
Cu1   Cu    Cu3+1 0.499990 0.499990 0.640660 1.008716
Cu2   Cu    Cu3+1 0.500010 0.500010 0.359340 1.046927
H1    H     H_    0.232827 0.860667 0.892170 0.212769
H2    H     H_    0.590439 0.894437 0.306277 0.147850
H3    H     H_    0.673952 0.671460 0.245633 0.210539
H4    H     H_    0.819619 0.803615 0.114551 0.182285
H5    H     H_    0.679141 0.671660 0.738912 0.200398
H6    H     H_    0.931326 0.688307 0.611553 0.225272
H7    H     H_    0.928448 0.501456 0.256146 0.203501
H8    H     H_    0.465244 0.182345 0.792921 0.213423
N1    N     N_R   0.501210 0.501210 0.147910 -0.237579
N2    N     N_R   0.501250 0.501290 0.852040 -0.249842
O1    O     O_R   0.499990 0.319640 0.618810 -0.646706
O2    O     O_R   0.500000 0.319660 0.381240 -0.480098
O3    O     O_R   0.316850 0.499960 0.618770 -0.534906
O4    O     O_R   0.316860 0.499980 0.381190 -0.520351
O5    O     O_R   0.500000 0.680340 0.618760 -0.578526
O6    O     O_R   0.500010 0.680360 0.381190 -0.613716
O7    O     O_R   0.683140 0.500020 0.618810 -0.589033
O8    O     O_R   0.683150 0.500040 0.381230 -0.603719
F1    F     F_    0.896428 0.296585 0.639970 -0.612178
F2    F     F_    0.277320 0.749079 0.665798 -0.622224
O9    O     O_3   0.333746 0.350635 0.161049 -0.630397
H9    H     H_    0.279055 0.298320 0.101747 0.399142
F3    F     F_    0.838727 0.819032 0.844243 -0.644644
O10   O     O_3   0.320788 0.355163 0.872914 -0.688622
H10   H     H_    0.341189 0.345401 0.775084 0.377820
O11   O     O_3   0.078287 0.500219 0.767704 -0.609736
H11   H     H_    0.001432 0.504873 0.825923 0.347358
O12   O     O_3   0.104287 0.704178 0.361129 -0.658181
H12   H     H_    0.033330 0.750628 0.325921 0.334742
O13   O     O_3   0.075825 0.295451 0.378598 -0.653574
H13   H     H_    0.998411 0.250358 0.346398 0.362474
O14   O     O_3   0.617868 0.137744 0.289656 -0.692834
H14   H     H_    0.645209 0.082840 0.216294 0.336625
F4    F     F_    0.320667 0.074793 0.978529 -0.621140

loop_
_geom_bond_atom_site_label_1
_geom_bond_atom_site_label_2
_ccdc_geom_bond_type
C29   H6    S    
C14   H2    S    
C20   N2    A    
Cu2   N1    S    
C29   C30   S    
Cu1   N2    S    
C24   O10   S    
C24   N2    A    
C9    C10   A    
C8    F2    S    
C1    O2    A    
C4    C26   S    
Cu1   Cu2   S    
C1    C11   S    
C6    F4    S    
C2    C30   S    
O14   H14   S    
O13   H13   S    
C15   C23   S    
C17   C18   A    
Cu2   O2    S    
C5    C10   A    
Cu1   O5    S    
C13   C14   A    
O10   H10   S    
C25   C28   S    
Cu2   O6    S    
Cu2   O8    S    
C26   C27   S    
C16   C21   A    
C13   O14   S    
Cu1   O1    S    
C18   F3    S    
Cu1   O7    S    
C21   N1    A    
C22   O9    S    
C3    C27   S    
C28   C29   S    
C17   H4    S    
C27   F1    S    
C2    C3    S    
C6    C7    A    
C22   C24   A    
C16   H3    S    
C9    C15   A    
C5    C6    A    
C25   O7    A    
C3    O13   S    
C22   N1    A    
C23   O5    A    
C10   C11   A    
C7    H1    S    
C19   C20   A    
C3    C4    S    
C11   C13   A    
C20   C21   A    
C26   C29   S    
C12   O4    A    
C18   C19   A    
Cu1   O3    S    
C5    H8    S    
C26   O11   S    
C27   C28   S    
C7    C8    A    
C25   O8    A    
C8    C9    A    
C2    C28   S    
C23   O6    A    
C19   H5    S    
C4    C12   S    
O11   H11   S    
O9    H9    S    
Cu2   O4    S    
C2    H7    S    
C1    O1    A    
O12   H12   S    
C4    C30   S    
C14   C15   A    
C16   C17   A    
C12   O3    A    
C30   O12   S    
