data_mof_unit_23537.cif
_audit_creation_date              2012-12-10T18:52:19-0500
_audit_creation_method            fapswitch 2.2
_symmetry_space_group_name_H-M    P1
_symmetry_Int_Tables_number       1
_space_group_crystal_system       triclinic
_cell_length_a                    15.712089
_cell_length_b                    10.659278
_cell_length_c                    9.919886
_cell_angle_alpha                 88.932323
_cell_angle_beta                  88.772936
_cell_angle_gamma                 91.39856
_cell_volume                      1660.19698443

loop_
_atom_site_label
_atom_site_type_symbol
_atom_type_description
_atom_site_fract_x
_atom_site_fract_y
_atom_site_fract_z
_atom_type_partial_charge
C1    C     C_R   0.499521 0.260213 0.500833 0.856316
C2    C     C_R   0.449997 0.417180 0.077128 -0.116911
C3    C     C_R   0.337976 0.499708 0.501249 0.900424
C4    C     C_R   0.662025 0.500290 0.498751 0.900344
C5    C     C_3   0.968515 0.394140 0.559867 -0.164645
C6    C     C_3   0.031484 0.605843 0.440133 -0.164643
C7    C     C_3   0.028054 0.399804 0.433574 -0.166701
C8    C     C_3   0.971945 0.600179 0.566426 -0.166701
C9    C     C_1   0.248904 0.499607 0.503856 -0.192260
C10   C     C_1   0.751095 0.500386 0.496144 -0.192239
C11   C     C_3   0.024821 0.494116 0.628798 -0.165123
C12   C     C_R   0.500514 0.739790 0.499168 0.856288
C13   C     C_3   0.975178 0.505867 0.371201 -0.165122
C14   C     C_3   0.082565 0.499782 0.502495 0.212517
C15   C     C_3   0.917434 0.500201 0.497505 0.212518
C16   C     C_1   0.173507 0.499621 0.504209 -0.087617
C17   C     C_1   0.826494 0.500365 0.495791 -0.087622
C18   C     C_R   0.456518 0.064616 0.399791 -0.195080
C19   C     C_R   0.543570 0.935385 0.600211 -0.195033
C20   C     C_3   0.608218 0.681742 0.127410 -0.389260
C21   C     C_3   0.575961 0.814187 0.102998 -0.877431
C22   C     C_3   0.391789 0.318244 0.872592 -0.389251
C23   C     C_R   0.457352 0.935977 0.398383 -0.198716
C24   C     C_3   0.424047 0.185799 0.896982 -0.877421
C25   C     C_R   0.542756 0.064031 0.601592 -0.198731
C26   C     C_R   0.501050 0.872327 0.498338 0.001963
C27   C     C_R   0.499030 0.127679 0.501660 0.001993
C28   C     C_R   0.550370 0.584420 0.065915 0.223475
C29   C     C_R   0.449636 0.415570 0.934084 0.223504
C30   C     C_R   0.550004 0.582817 0.922872 -0.116869
H1    H     H_    0.053182 0.317857 0.379432 0.130032
H2    H     H_    0.577413 0.113657 0.678241 0.145768
H3    H     H_    0.590063 0.648242 0.863899 0.146180
H4    H     H_    0.409937 0.351759 0.136101 0.146177
H5    H     H_    0.582303 0.841202 0.994522 0.243690
H6    H     H_    0.508059 0.819385 0.134886 0.271025
H7    H     H_    0.613912 0.882302 0.161876 0.255740
H8    H     H_    0.615411 0.666796 0.235714 0.266791
H9    H     H_    0.673269 0.675179 0.082154 0.174182
H10   H     H_    0.491903 0.180546 0.864870 0.271078
H11   H     H_    0.417849 0.158839 0.005484 0.243700
H12   H     H_    0.946817 0.682126 0.620567 0.130031
H13   H     H_    0.386000 0.117664 0.838279 0.255698
H14   H     H_    0.326745 0.324796 0.917868 0.174180
H15   H     H_    0.384580 0.333201 0.764293 0.266786
H16   H     H_    0.940584 0.307581 0.608648 0.131025
H17   H     H_    0.059414 0.692402 0.391351 0.131025
H18   H     H_    0.952724 0.510676 0.265917 0.130776
H19   H     H_    0.047275 0.489307 0.734082 0.130776
H20   H     H_    0.422184 0.114678 0.322813 0.141851
H21   H     H_    0.577889 0.885308 0.677208 0.141817
H22   H     H_    0.422712 0.886351 0.321706 0.145832
N1    N     N_R   0.499980 0.499970 0.857200 -0.116332
N2    N     N_R   0.500020 0.500030 0.142800 -0.116326
O1    O     O_R   0.499990 0.316750 0.614620 -0.627930
O2    O     O_R   0.500010 0.683250 0.385380 -0.627917
O3    O     O_R   0.500000 0.316780 0.385290 -0.621134
O4    O     O_R   0.500000 0.683220 0.614710 -0.621116
O5    O     O_R   0.376780 0.499970 0.614640 -0.634814
O6    O     O_R   0.623220 0.500030 0.385360 -0.634831
O7    O     O_R   0.376780 0.500000 0.385310 -0.611967
O8    O     O_R   0.623220 0.500000 0.614690 -0.611987
Zn1   Zn    Zn3+2 0.500000 0.499980 0.653120 0.934114
Zn2   Zn    Zn3+2 0.500000 0.500020 0.346880 0.934112

loop_
_geom_bond_atom_site_label_1
_geom_bond_atom_site_label_2
_ccdc_geom_bond_type
O7    Zn2   S    
C6    C8    S    
O2    Zn2   S    
O8    Zn1   S    
C3    C9    S    
C22   C29   S    
C1    O3    A    
C6    C14   S    
C20   H8    S    
C5    H16   S    
O5    Zn1   S    
C18   H20   S    
O6    Zn2   S    
C4    O8    A    
C12   O4    A    
C2    H4    S    
C25   H2    S    
C28   C30   A    
C1    O1    A    
C1    C27   S    
C21   H6    S    
C6    C13   S    
C24   H11   S    
N1    Zn1   S    
C4    O6    A    
C23   H22   S    
C12   O2    A    
C29   N1    A    
C2    C29   A    
C8    C11   S    
C21   H5    S    
O1    Zn1   S    
C11   C14   S    
C9    C16   T    
C8    H12   S    
C5    C11   S    
C8    C15   S    
C22   C24   S    
C13   C15   S    
C19   C25   A    
C30   N1    A    
C14   C16   S    
C5    C15   S    
C25   C27   A    
C6    H17   S    
C3    O7    A    
C4    C10   S    
C18   C23   A    
C20   C28   S    
C19   H21   S    
C7    C13   S    
C22   H15   S    
C21   H7    S    
C20   C21   S    
N2    Zn2   S    
O3    Zn2   S    
C15   C17   S    
C2    N2    A    
C23   C26   A    
C12   C26   S    
O4    Zn1   S    
C5    C7    S    
C20   H9    S    
C28   N2    A    
C22   H14   S    
C24   H13   S    
C11   H19   S    
C10   C17   T    
C30   H3    S    
C24   H10   S    
C7    H1    S    
C7    C14   S    
C18   C27   A    
C3    O5    A    
C13   H18   S    
C19   C26   A    
