data_mof_unit_17906.cif
_audit_creation_date              2013-03-05T16:23:18-0500
_audit_creation_method            fapswitch 2.2
_symmetry_space_group_name_H-M    P1
_symmetry_Int_Tables_number       1
_space_group_crystal_system       triclinic
_cell_length_a                    27.640318
_cell_length_b                    10.482185
_cell_length_c                    9.809336
_cell_angle_alpha                 89.800267
_cell_angle_beta                  88.937776
_cell_angle_gamma                 90.018554
_cell_volume                      2841.56212604

loop_
_atom_site_label
_atom_site_type_symbol
_atom_site_description
_atom_site_fract_x
_atom_site_fract_y
_atom_site_fract_z
_atom_type_partial_charge
O1    O     O_R   0.500000 0.313960 0.616610 -0.634903
O2    O     O_R   0.500000 0.686040 0.383390 -0.635914
O3    O     O_R   0.500020 0.313950 0.383350 -0.597835
O4    O     O_R   0.499980 0.686050 0.616650 -0.597199
C1    C     C_R   0.499990 0.257937 0.500360 0.927277
C2    C     C_R   0.500012 0.742063 0.499641 0.926150
O5    O     O_R   0.428750 0.500030 0.616610 -0.638229
O6    O     O_R   0.571250 0.499970 0.383390 -0.633819
O7    O     O_R   0.428770 0.500020 0.383360 -0.602078
O8    O     O_R   0.571230 0.499980 0.616640 -0.604939
C3    C     C_R   0.406108 0.500186 0.501313 0.911028
C4    C     C_R   0.593893 0.499945 0.498693 0.913829
Zn1   Zn    Zn3+2 0.499990 0.500010 0.655740 0.965519
Zn2   Zn    Zn3+2 0.500010 0.499990 0.344260 0.965510
C5    C     C_R   0.177323 0.383824 0.513671 0.549482
C6    C     C_R   0.822661 0.620471 0.489653 0.478503
O9    O     O_2   0.203343 0.278574 0.483289 -0.561558
O10   O     O_2   0.796593 0.725673 0.519896 -0.560055
N1    N     N_R   0.200787 0.497537 0.527941 -0.328677
N2    N     N_R   0.799181 0.507045 0.473603 -0.358411
C7    C     C_R   0.176704 0.607846 0.556916 0.576048
C8    C     C_R   0.823314 0.396592 0.445770 0.523098
C9    C     C_R   0.276380 0.508197 0.388667 0.030916
C10   C     C_R   0.723681 0.496150 0.611246 0.020749
C11   C     C_R   0.326980 0.507267 0.384735 -0.282880
C12   C     C_R   0.673009 0.495035 0.615468 -0.150131
C13   C     C_R   0.328567 0.493831 0.631709 -0.210920
C14   C     C_R   0.671446 0.507979 0.368335 -0.206988
C15   C     C_R   0.278498 0.493408 0.636953 -0.148194
C16   C     C_R   0.721526 0.510034 0.363161 -0.075072
C17   C     C_R   0.252265 0.500323 0.516913 0.315886
C18   C     C_R   0.747672 0.504329 0.483369 0.219998
C19   C     C_R   0.100887 0.494943 0.537813 -0.041290
C20   C     C_R   0.899123 0.509087 0.467557 -0.054380
C21   C     C_R   0.126426 0.378435 0.524941 -0.099335
C22   C     C_R   0.873596 0.625667 0.480052 -0.095731
C23   C     C_R   0.099916 0.262862 0.523303 -0.001575
C24   C     C_R   0.900134 0.741161 0.482740 0.002247
C25   C     C_R   0.126243 0.608686 0.562170 -0.071776
C26   C     C_R   0.873783 0.395473 0.442372 -0.075543
C27   C     C_R   0.353195 0.500273 0.505660 -0.006509
C28   C     C_R   0.646804 0.500921 0.494409 -0.072597
H1    H     H_    0.347873 0.488762 0.726603 0.156892
H2    H     H_    0.652138 0.512223 0.273400 0.168721
H3    H     H_    0.259796 0.487458 0.734798 0.143387
H4    H     H_    0.740269 0.516094 0.265391 0.161847
C29   C     C_R   0.975282 0.388872 0.462091 0.027952
C30   C     C_R   0.024698 0.614899 0.544578 0.029111
C31   C     C_R   0.974912 0.619346 0.512325 0.025782
C32   C     C_R   0.025057 0.384459 0.494460 0.028198
C33   C     C_R   0.949931 0.505546 0.481282 0.038941
C34   C     C_R   0.050047 0.498306 0.525096 0.043013
C35   C     C_R   0.949628 0.283415 0.406020 0.162155
C36   C     C_R   0.050422 0.720348 0.600398 0.164612
C37   C     C_R   0.899183 0.284885 0.407935 -0.089869
C38   C     C_R   0.100875 0.719116 0.597421 -0.090155
O11   O     O_2   0.798381 0.288014 0.423877 -0.544213
O12   O     O_2   0.201663 0.716538 0.577959 -0.550280
C39   C     C_R   0.049696 0.268165 0.511084 -0.197853
C40   C     C_R   0.950313 0.735718 0.495842 -0.199515
H5    H     H_    0.654012 0.489055 0.712884 0.190226
H6    H     H_    0.345921 0.512922 0.287139 0.148572
H7    H     H_    0.879851 0.201182 0.373746 0.215464
H8    H     H_    0.120257 0.802863 0.631258 0.214063
H9    H     H_    0.029709 0.180085 0.520892 0.191772
H10   H     H_    0.970320 0.823806 0.486565 0.193496
C41   C     C_3   0.505189 0.040467 0.629414 -0.233465
C42   C     C_3   0.494815 0.959532 0.370588 -0.234288
C43   C     C_3   0.541838 0.959152 0.548324 0.039563
C44   C     C_3   0.458166 0.040847 0.451679 0.043003
H11   H     H_    0.510140 0.075296 0.734934 0.145483
H12   H     H_    0.489863 0.924705 0.265068 0.144878
C45   C     C_3   0.500312 0.876888 0.498785 0.008963
C46   C     C_3   0.499692 0.123111 0.501217 0.008409
C47   C     C_3   0.463084 0.956175 0.579052 -0.262839
C48   C     C_3   0.536920 0.043824 0.420950 -0.261552
H13   H     H_    0.432929 0.916739 0.642615 0.150274
H14   H     H_    0.567075 0.083260 0.357387 0.152229
C49   C     C_3   0.515354 0.393050 0.046885 0.230111
C50   C     C_3   0.484646 0.606950 0.953114 0.232312
C51   C     C_3   0.543332 0.481298 0.948458 -0.152713
C52   C     C_3   0.456668 0.518703 0.051541 -0.159758
H15   H     H_    0.579656 0.465491 0.901351 0.154039
H16   H     H_    0.420346 0.534514 0.098650 0.139414
N3    N     N_3   0.499960 0.500030 0.863290 -0.101856
N4    N     N_3   0.500040 0.499970 0.136710 -0.100802
C53   C     C_3   0.472462 0.411694 0.954069 0.219238
C54   C     C_3   0.527538 0.588307 0.045930 0.214528
C55   C     C_3   0.534049 0.266441 0.100506 -0.848730
H17   H     H_    0.548474 0.208940 0.014112 0.214066
H18   H     H_    0.563468 0.283523 0.173707 0.248114
H19   H     H_    0.504079 0.212448 0.150550 0.260493
C56   C     C_3   0.465952 0.733559 0.899491 -0.859672
H20   H     H_    0.451526 0.791061 0.985883 0.212042
H21   H     H_    0.495922 0.787551 0.849448 0.263194
H22   H     H_    0.436533 0.716476 0.826287 0.245895
C57   C     C_3   0.439565 0.308058 0.899981 -0.837218
H23   H     H_    0.420615 0.260068 0.986713 0.229368
H24   H     H_    0.412339 0.350479 0.831868 0.249177
H25   H     H_    0.461267 0.236263 0.843487 0.246730
C58   C     C_3   0.560429 0.691959 0.100009 -0.817230
H26   H     H_    0.579389 0.739921 0.013278 0.233182
H27   H     H_    0.538721 0.763771 0.156460 0.242559
H28   H     H_    0.587646 0.649562 0.168164 0.251216
C59   C     C_2   0.122454 0.135790 0.543944 0.475878
H29   H     H_    0.154649 0.125757 0.604481 0.117216
O13   O     O_2   0.104568 0.039977 0.495412 -0.583924
C60   C     C_2   0.877709 0.868369 0.462014 0.474526
H30   H     H_    0.845736 0.878712 0.400617 0.124017
O14   O     O_2   0.895453 0.963957 0.511440 -0.590565
C61   C     C_2   0.751316 0.488014 0.739267 0.456355
H31   H     H_    0.790561 0.486780 0.736217 0.071753
O15   O     O_2   0.730587 0.482235 0.850172 -0.576380
C62   C     C_2   0.250659 0.518235 0.257446 0.446985
H32   H     H_    0.271273 0.518127 0.162132 0.045753
O16   O     O_2   0.206720 0.527982 0.253007 -0.550571
C63   C     C_3   0.973120 0.177873 0.323368 -0.859975
H33   H     H_    0.951959 0.159488 0.230203 0.240283
H34   H     H_    0.009908 0.204274 0.286068 0.258191
H35   H     H_    0.974012 0.088096 0.383621 0.264531
C64   C     C_3   0.027044 0.825631 0.683656 -0.865016
H36   H     H_    0.048280 0.843472 0.776801 0.241882
H37   H     H_    0.026177 0.915663 0.623834 0.265342
H38   H     H_    0.990251 0.799272 0.720946 0.255436
C65   C     C_2   0.589433 0.916174 0.602903 0.374483
H39   H     H_    0.615370 0.986714 0.635978 0.077542
O17   O     O_2   0.599368 0.803031 0.610408 -0.560877
C66   C     C_2   0.410571 0.083827 0.397106 0.367845
H40   H     H_    0.384638 0.013289 0.364005 0.073329
O18   O     O_2   0.400631 0.196970 0.389637 -0.564415

loop_
_geom_bond_atom_site_label_1
_geom_bond_atom_site_label_2
_geom_bond_distance
_ccdc_geom_bond_type
C56   H20   1.109807 S    
C13   C15   1.383911 A    
C61   H31   1.084688 S    
N1    C17   1.425256 S    
C66   H40   1.084393 S    
C8    O11   1.350226 S    
C49   C53   1.520396 S    
C54   C58   1.519744 S    
C19   C34   1.413507 A    
C5    N1    1.365659 A    
C59   O13   1.221238 D    
C20   C33   1.413768 A    
C58   H26   1.109748 S    
C31   C40   1.407004 A    
C46   C48   1.531200 S    
O1    C1    1.284486 A    
C32   C39   1.407004 A    
C21   C23   1.415896 A    
C12   H5    1.083404 S    
C10   C12   1.400462 A    
C63   H34   1.108918 S    
N4    C54   1.482154 S    
C52   C53   1.534691 S    
C1    C46   1.413291 S    
C60   H30   1.083882 S    
C43   C48   1.538181 S    
C14   C28   1.402470 A    
O4    Zn1   1.986135 S    
C64   H38   1.108927 S    
C4    C28   1.462341 S    
C57   H24   1.107830 S    
C31   C33   1.415000 A    
C37   H7    1.084526 S    
C44   C46   1.523189 S    
C32   C34   1.414629 A    
C38   H8    1.084495 S    
C43   C45   1.523194 S    
C55   H18   1.109667 S    
C41   H11   1.109619 S    
O6    C4    1.302764 A    
C29   C35   1.430205 A    
N3    C53   1.482145 S    
C40   H10   1.078839 S    
C56   H21   1.109134 S    
C50   C54   1.520391 S    
C45   C47   1.531197 S    
O2    C2    1.284489 A    
C10   C61   1.484130 S    
C5    C21   1.410206 A    
C51   H15   1.110153 S    
C57   H23   1.109751 S    
C29   C32   1.418424 A    
C35   C37   1.394193 A    
C36   C38   1.394361 A    
C49   C55   1.520072 S    
Zn2   N4    2.035913 S    
C50   C52   1.533463 S    
C63   H35   1.110047 S    
C11   C27   1.403116 A    
C49   C51   1.533472 S    
C29   C33   1.421057 A    
C42   C45   1.534431 S    
C52   N4    1.486544 S    
C14   H2    1.082662 S    
C15   H3    1.083272 S    
C42   H12   1.109617 S    
C41   C43   1.536492 S    
C9    C17   1.414867 A    
C30   C36   1.430133 A    
O5    C3    1.302706 A    
O7    Zn2   1.999109 S    
C10   C18   1.410304 A    
C23   C59   1.485465 S    
C50   N3    1.484920 S    
O7    C3    1.305478 A    
C13   C27   1.401772 A    
C25   C38   1.394787 A    
C7    C25   1.394795 A    
C30   C34   1.420662 A    
C6    N2    1.365357 A    
C26   C37   1.394709 A    
C8    C26   1.394816 A    
C61   O15   1.221435 D    
C41   C46   1.534432 S    
C19   C25   1.406220 A    
C55   H19   1.109134 S    
C47   H13   1.110435 S    
C64   H36   1.111468 S    
C23   C39   1.396582 A    
O3    Zn2   1.986137 S    
O8    C4    1.305417 A    
C24   C40   1.396434 A    
O4    C2    1.287401 A    
C30   C31   1.418466 A    
C36   C64   1.513154 S    
N2    C8    1.362311 A    
C56   H22   1.109668 S    
C52   H16   1.110139 S    
C65   H39   1.084392 S    
C20   C26   1.406340 A    
C41   C47   1.550113 S    
C57   H25   1.106404 S    
C12   C28   1.403583 A    
C2    C45   1.413286 S    
N2    C18   1.425440 S    
C44   C66   1.498335 S    
C5    O9    1.348368 S    
O6    Zn2   2.013133 S    
N1    C7    1.362588 A    
C16   H4    1.083213 S    
C6    O10   1.348361 S    
C48   H14   1.110433 S    
O3    C1    1.287404 A    
O8    Zn1   1.999112 S    
C66   O18   1.219736 D    
C62   O16   1.220390 D    
C62   H32   1.085849 S    
C42   C48   1.550113 S    
C59   H29   1.083878 S    
C58   H27   1.106408 S    
C22   C24   1.415892 A    
C55   H17   1.109807 S    
C7    O12   1.350197 S    
C15   C17   1.395939 A    
C63   H33   1.111487 S    
C39   H9    1.078866 S    
C9    C62   1.485396 S    
C16   C18   1.395499 A    
C14   C16   1.384383 A    
C19   C21   1.415640 A    
C20   C22   1.415828 A    
C60   O14   1.221250 D    
C3    C27   1.462358 S    
C35   C63   1.513306 S    
C11   H6    1.084019 S    
C9    C11   1.398452 A    
C24   C60   1.485546 S    
O2    Zn2   1.988936 S    
C51   N3    1.486547 S    
C64   H37   1.110062 S    
C51   C54   1.534692 S    
C43   C65   1.498338 S    
C13   H1    1.082657 S    
O5    Zn1   2.013128 S    
O1    Zn1   1.988938 S    
C42   C44   1.536489 S    
Zn1   N3    2.035912 S    
C44   C47   1.538176 S    
C65   O17   1.219732 D    
C58   H28   1.107803 S    
C50   C56   1.520074 S    
C49   N4    1.484926 S    
C6    C22   1.410279 A    
C53   C57   1.519747 S    
