data_mof_unit_21051.cif
_audit_creation_date              2013-03-05T15:47:29-0500
_audit_creation_method            fapswitch 2.2
_symmetry_space_group_name_H-M    P1
_symmetry_Int_Tables_number       1
_space_group_crystal_system       triclinic
_cell_length_a                    15.118219
_cell_length_b                    14.923679
_cell_length_c                    27.622722
_cell_angle_alpha                 89.504284
_cell_angle_beta                  90.028201
_cell_angle_gamma                 120.422629
_cell_volume                      5373.8759913

loop_
_atom_site_label
_atom_site_type_symbol
_atom_site_description
_atom_site_fract_x
_atom_site_fract_y
_atom_site_fract_z
_atom_type_partial_charge
O1    O     O_R   0.863770 0.527700 0.199270 -0.415329
O2    O     O_R   0.472300 0.336070 0.199270 -0.453629
O3    O     O_R   0.663930 0.136230 0.199270 -0.442563
O4    O     O_R   0.527700 0.863770 0.800730 -0.466537
O5    O     O_R   0.336070 0.472300 0.800730 -0.452139
O6    O     O_R   0.136230 0.663930 0.800730 -0.434306
O7    O     O_R   0.643280 0.490970 0.202410 -0.519283
O8    O     O_R   0.509030 0.152310 0.202410 -0.480642
O9    O     O_R   0.847690 0.356720 0.202410 -0.465705
O10   O     O_R   0.490970 0.643280 0.797590 -0.458457
O11   O     O_R   0.152310 0.509030 0.797590 -0.437883
O12   O     O_R   0.356720 0.847690 0.797590 -0.490089
C1    C     C_R   0.552793 0.429759 0.183945 0.554571
C2    C     C_R   0.589539 0.156435 0.179422 0.512760
C3    C     C_R   0.836798 0.430915 0.179438 0.529619
C4    C     C_R   0.407248 0.564207 0.820848 0.516845
C5    C     C_R   0.162722 0.596742 0.820380 0.530985
C6    C     C_R   0.450209 0.876475 0.816318 0.537900
O13   O     O_R   0.862920 0.527590 0.302350 -0.446015
O14   O     O_R   0.472410 0.335330 0.302350 -0.456884
O15   O     O_R   0.664670 0.137080 0.302350 -0.488241
O16   O     O_R   0.527590 0.862920 0.697650 -0.453136
O17   O     O_R   0.335330 0.472410 0.697650 -0.475373
O18   O     O_R   0.137080 0.664670 0.697650 -0.462766
O19   O     O_R   0.642490 0.490870 0.297970 -0.499717
O20   O     O_R   0.509130 0.151620 0.297970 -0.457911
O21   O     O_R   0.848380 0.357510 0.297970 -0.459847
O22   O     O_R   0.490870 0.642490 0.702030 -0.463691
O23   O     O_R   0.151620 0.509130 0.702030 -0.477596
O24   O     O_R   0.357510 0.848380 0.702030 -0.485930
C7    C     C_R   0.545266 0.429866 0.314982 0.553461
C8    C     C_R   0.570793 0.115774 0.315739 0.554199
C9    C     C_R   0.836893 0.432794 0.320751 0.539812
C10   C     C_R   0.426797 0.547370 0.683199 0.558512
C11   C     C_R   0.127121 0.577269 0.681167 0.571221
C12   C     C_R   0.456152 0.886987 0.686229 0.555421
Cr1   Cr    Cr6+3 0.748260 0.501860 0.250510 1.126161
Cr2   Cr    Cr6+3 0.498140 0.246400 0.250510 1.139652
Cr3   Cr    Cr6+3 0.753600 0.251740 0.250510 1.128599
Cr4   Cr    Cr6+3 0.501860 0.748260 0.749490 1.152254
Cr5   Cr    Cr6+3 0.246400 0.498140 0.749490 1.144132
Cr6   Cr    Cr6+3 0.251740 0.753600 0.749490 1.138198
O25   O     O_3   0.666667 0.333333 0.250440 -0.440493
O26   O     O_3   0.333333 0.666667 0.749560 -0.434841
C13   C     C_3   0.439698 0.119160 0.997139 0.037847
C14   C     C_3   0.914625 0.360932 0.998027 0.040907
C15   C     C_3   0.649528 0.588376 0.007352 0.045745
C16   C     C_3   0.117627 0.539291 0.003283 0.020026
C17   C     C_3   0.398937 0.911568 0.988636 0.018458
C18   C     C_3   0.481299 0.620506 0.000650 -0.008039
C19   C     C_3   0.400138 0.951390 0.042639 0.325485
C20   C     C_3   0.062283 0.491340 0.054371 0.330016
C21   C     C_3   0.522884 0.623971 0.055714 0.283159
C22   C     C_3   0.973599 0.403663 0.947570 0.266159
C23   C     C_3   0.426358 0.071504 0.943520 0.320335
C24   C     C_3   0.615897 0.600660 0.953680 0.314133
H1    H     H_    0.442799 0.873906 0.991890 0.219719
H2    H     H_    0.160114 0.622435 0.008112 0.236674
H3    H     H_    0.402273 0.571012 0.007144 0.223535
H4    H     H_    0.840631 0.340500 0.987034 0.177925
H5    H     H_    0.499874 0.196908 0.989902 0.236188
H6    H     H_    0.660794 0.525394 0.002641 0.218304
C25   C     C_1   0.462377 0.916298 0.863294 0.186651
C26   C     C_1   0.141472 0.586425 0.871341 0.152338
C27   C     C_1   0.426679 0.556700 0.870997 0.155681
C28   C     C_1   0.856864 0.421770 0.128746 0.139349
C29   C     C_1   0.549679 0.130489 0.130574 0.149814
C30   C     C_1   0.562783 0.474081 0.137415 0.177919
C31   C     C_3   0.481932 0.069312 0.039554 -0.094414
C32   C     C_3   0.945660 0.446846 0.041406 -0.094933
C33   C     C_3   0.559560 0.543832 0.049753 -0.102745
C34   C     C_3   0.048404 0.524524 0.957448 -0.117882
C35   C     C_3   0.467953 0.995038 0.949692 -0.127006
C36   C     C_3   0.497158 0.553817 0.960067 -0.103930
C37   C     C_3   0.582849 0.049720 0.969008 0.253482
C38   C     C_3   0.986813 0.581498 0.971201 0.251727
C39   C     C_3   0.440582 0.437009 0.979412 0.250017
C40   C     C_3   0.927267 0.535062 0.020259 0.222641
C41   C     C_3   0.589862 0.091065 0.021445 0.234532
C42   C     C_3   0.473895 0.431570 0.032516 0.215872
C43   C     C_1   0.465225 0.948041 0.903047 0.154981
C44   C     C_1   0.108397 0.568831 0.912218 0.160979
C45   C     C_1   0.452584 0.554913 0.912130 0.166614
C46   C     C_1   0.886458 0.417245 0.088210 0.177195
C47   C     C_1   0.509275 0.108921 0.090638 0.179263
C48   C     C_1   0.577922 0.517097 0.098649 0.164379
C49   C     C_3   0.641559 0.018625 0.474330 0.026484
C50   C     C_3   0.851988 0.462226 0.499802 0.074517
C51   C     C_3   0.465577 0.370633 0.478176 -0.008275
C52   C     C_3   0.054966 0.663147 0.511320 0.072284
C53   C     C_3   0.436290 0.885291 0.526103 0.089477
C54   C     C_3   0.343524 0.466257 0.514730 0.036990
C55   C     C_3   0.445455 0.898957 0.469050 0.053047
C56   C     C_3   0.988395 0.629861 0.463457 0.071745
C57   C     C_3   0.347135 0.436468 0.459904 0.074865
C58   C     C_3   0.905667 0.498491 0.549431 0.022474
C59   C     C_3   0.627288 0.987098 0.529171 0.098674
C60   C     C_3   0.433609 0.370968 0.533399 0.004711
H7    H     H_    0.617462 0.908661 0.529957 0.247718
H8    H     H_    0.884690 0.552477 0.565295 0.245917
H9    H     H_    0.354691 0.305982 0.534573 0.242720
H10   H     H_    0.933117 0.654936 0.468813 0.231426
H11   H     H_    0.458821 0.839900 0.452807 0.226172
H12   H     H_    0.291432 0.352885 0.459070 0.250084
H13   H     H_    0.363698 0.877696 0.538633 0.242104
H14   H     H_    0.135586 0.702071 0.499853 0.261080
H15   H     H_    0.350851 0.541365 0.515339 0.258836
H16   H     H_    0.814464 0.376904 0.498561 0.232366
H17   H     H_    0.704073 0.100536 0.471392 0.220309
H18   H     H_    0.544231 0.387501 0.476916 0.252472
C61   C     C_1   0.485755 0.942884 0.642625 0.166662
C62   C     C_1   0.095148 0.567008 0.631949 0.148619
C63   C     C_1   0.442368 0.527252 0.635149 0.160465
C64   C     C_1   0.858945 0.445164 0.370318 0.125710
C65   C     C_1   0.545962 0.061890 0.361216 0.148406
C66   C     C_1   0.516932 0.455684 0.358903 0.153267
C67   C     C_3   0.538680 0.008034 0.454480 -0.075928
C68   C     C_3   0.930468 0.507772 0.458163 -0.088174
C69   C     C_3   0.458780 0.458933 0.448931 -0.084951
C70   C     C_3   0.024902 0.560659 0.542577 -0.092266
C71   C     C_3   0.526686 0.981053 0.549691 -0.082745
C72   C     C_3   0.439086 0.476806 0.542822 -0.099015
C73   C     C_3   0.517872 0.075481 0.535603 -0.020338
C74   C     C_3   0.058915 0.496691 0.512116 0.034024
C75   C     C_3   0.545210 0.563669 0.521507 0.036872
C76   C     C_3   0.004733 0.466146 0.463304 0.003625
C77   C     C_3   0.524788 0.091769 0.480185 -0.011525
C78   C     C_3   0.534828 0.571009 0.467536 0.002742
C79   C     C_1   0.512454 0.969943 0.602024 0.144722
C80   C     C_1   0.069983 0.571705 0.591011 0.153520
C81   C     C_1   0.438839 0.502823 0.593766 0.165473
C82   C     C_1   0.884514 0.470704 0.410975 0.109803
C83   C     C_1   0.541717 0.030137 0.401967 0.116830
C84   C     C_1   0.486456 0.458615 0.398387 0.168117
H19   H     H_    0.452858 0.086018 0.467450 0.279504
H20   H     H_    0.060744 0.499964 0.433025 0.272352
H21   H     H_    0.500621 0.620045 0.461114 0.228979
H22   H     H_    0.046060 0.427109 0.532264 0.230128
H23   H     H_    0.583819 0.142704 0.552783 0.263655
H24   H     H_    0.601102 0.538206 0.527305 0.253636
S1    S     S_3+6 0.293489 0.008795 0.920891 0.162722
O27   O     O_2   0.282167 0.949430 0.875398 -0.241839
O28   O     O_2   0.218593 0.937236 0.957308 -0.148544
O29   O     O_3   0.257449 0.096443 0.908673 -0.371105
H25   H     H_    0.187611 0.055738 0.894960 0.385510
S2    S     S_3+6 0.038760 0.331878 0.929114 0.156791
O30   O     O_2   0.117308 0.387806 0.890031 -0.262499
O31   O     O_2   0.088874 0.313012 0.970803 -0.130427
O32   O     O_3   0.955813 0.211637 0.909088 -0.385973
H26   H     H_    0.998987 0.182681 0.898794 0.386516
S3    S     S_3+6 0.684339 0.734990 0.930289 0.136616
O33   O     O_2   0.635468 0.745603 0.884876 -0.272010
O34   O     O_2   0.685967 0.806896 0.966746 -0.130755
O35   O     O_3   0.808990 0.778318 0.918459 -0.392126
H27   H     H_    0.836152 0.848809 0.904415 0.388036
S4    S     S_3+6 0.078791 0.389021 0.086528 0.189877
O36   O     O_2   0.977986 0.301993 0.104946 -0.235111
O37   O     O_2   0.127926 0.343939 0.056093 -0.105770
O38   O     O_3   0.149196 0.429941 0.137298 -0.388363
H28   H     H_    0.156113 0.370610 0.148630 0.394862
S5    S     S_3+6 0.283984 0.934925 0.075772 0.190201
O39   O     O_2   0.304962 0.033801 0.099682 -0.238413
O40   O     O_2   0.191296 0.897676 0.044766 -0.099559
O41   O     O_3   0.250756 0.853178 0.123653 -0.395960
H29   H     H_    0.192752 0.854885 0.139408 0.391417
S6    S     S_3+6 0.632558 0.743978 0.085373 0.134086
O42   O     O_2   0.706555 0.719282 0.109885 -0.231701
O43   O     O_2   0.692433 0.833523 0.051682 -0.110580
O44   O     O_3   0.597880 0.793221 0.131212 -0.423580
H30   H     H_    0.661402 0.857101 0.141049 0.404653
Br1   Br    Br    0.635904 0.230958 0.462305 -0.474892
Br2   Br    Br    0.939773 0.314973 0.454247 -0.384945
Br3   Br    Br    0.667543 0.655508 0.434756 -0.260372
Br4   Br    Br    0.202420 0.576493 0.498288 -0.269667
Br5   Br    Br    0.385992 0.056902 0.561571 -0.311358
Br6   Br    Br    0.621764 0.699851 0.551416 -0.189776
Br7   Br    Br    0.324055 0.138513 0.014453 -0.101063
Br8   Br    Br    0.888197 0.222183 0.015562 -0.104687
Br9   Br    Br    0.787147 0.701809 0.021762 -0.091114
Br10  Br    Br    0.230060 0.530747 0.986174 -0.319805
Br11  Br    Br    0.287867 0.789287 0.962669 -0.368229
Br12  Br    Br    0.469419 0.727695 0.969834 -0.403329
S7    S     S_3+6 0.430939 0.873025 0.080556 0.113350
O45   O     O_2   0.446547 0.902949 0.133039 -0.198376
O46   O     O_2   0.339017 0.767518 0.074948 -0.145862
O47   O     O_3   0.528988 0.864230 0.060461 -0.434681
H31   H     H_    0.499265 0.789597 0.056851 0.427000
S8    S     S_3+6 0.114790 0.597590 0.099122 0.128693
O48   O     O_2   0.139630 0.697130 0.074612 -0.183952
O49   O     O_2   0.044982 0.580107 0.141048 -0.262163
O50   O     O_3   0.222405 0.615389 0.124486 -0.338229
H32   H     H_    0.231262 0.656095 0.154116 0.392760
S9    S     S_3+6 0.415848 0.583636 0.101074 0.105279
O51   O     O_2   0.313698 0.519380 0.078069 -0.144079
O52   O     O_2   0.419639 0.522201 0.143390 -0.286546
O53   O     O_3   0.414389 0.683840 0.126751 -0.378421
H33   H     H_    0.406811 0.669987 0.162114 0.394450
S10   S     S_3+6 0.889740 0.380884 0.892706 0.153252
O54   O     O_2   0.944129 0.459727 0.853390 -0.198739
O55   O     O_2   0.857885 0.279755 0.868413 -0.102243
O56   O     O_3   0.782895 0.384285 0.902639 -0.348386
H34   H     H_    0.753082 0.344558 0.932346 0.394794
S11   S     S_3+6 0.494806 0.167022 0.893464 0.146280
O57   O     O_2   0.580422 0.263557 0.914193 -0.190662
O58   O     O_2   0.538929 0.129176 0.855555 -0.236038
O59   O     O_3   0.420245 0.199168 0.861271 -0.373552
H35   H     H_    0.467071 0.252806 0.837736 0.404773
S12   S     S_3+6 0.648712 0.537235 0.904645 0.159287
O60   O     O_2   0.666886 0.456658 0.926183 -0.128670
O61   O     O_2   0.566380 0.485810 0.867133 -0.268761
O62   O     O_3   0.753494 0.617878 0.871944 -0.352386
H36   H     H_    0.728548 0.638761 0.843246 0.381525
Br13  Br    Br    0.672915 0.236522 0.024493 -0.466444
Br14  Br    Br    0.787844 0.474535 0.008851 -0.390092
Br15  Br    Br    0.537446 0.346879 0.040122 -0.429092
Br16  Br    Br    0.063583 0.728531 0.976727 -0.132077
Br17  Br    Br    0.642663 0.964262 0.965612 -0.154903
Br18  Br    Br    0.294606 0.365434 0.971442 -0.150102
Br19  Br    Br    0.675909 0.065136 0.068226 -0.188285
Br20  Br    Br    0.932160 0.634352 0.069563 -0.186258
Br21  Br    Br    0.355860 0.347773 0.076894 -0.168865
Br22  Br    Br    0.915827 0.601611 0.917343 -0.105716
Br23  Br    Br    0.685987 0.142446 0.924553 -0.197521
Br24  Br    Br    0.441496 0.338258 0.937345 -0.176805
S13   S     S_3+6 0.688810 0.949139 0.439392 0.085822
O63   O     O_2   0.780487 0.955455 0.463945 -0.112536
O64   O     O_2   0.608626 0.836702 0.434128 -0.235165
O65   O     O_3   0.724376 0.003196 0.383935 -0.455099
H37   H     H_    0.776666 0.076826 0.389751 0.371349
S14   S     S_3+6 0.754778 0.495905 0.494227 -0.008111
O66   O     O_2   0.677586 0.428577 0.530374 -0.204132
O67   O     O_2   0.788150 0.605690 0.508043 -0.228786
O68   O     O_3   0.704120 0.470079 0.438315 -0.532074
H38   H     H_    0.751134 0.531157 0.418266 0.374922
S15   S     S_3+6 0.389712 0.245403 0.447322 0.011204
O69   O     O_2   0.460727 0.226361 0.417102 -0.257005
O70   O     O_2   0.334539 0.158690 0.483310 -0.199002
O71   O     O_3   0.302058 0.241498 0.408405 -0.478267
H39   H     H_    0.270124 0.171758 0.393624 0.413862
S16   S     S_3+6 0.051244 0.765329 0.544696 0.094655
O72   O     O_2   0.065612 0.850161 0.510228 -0.122428
O73   O     O_2   0.952907 0.728611 0.572102 -0.211189
O74   O     O_3   0.148969 0.814308 0.584230 -0.477853
H40   H     H_    0.149328 0.875123 0.598528 0.405456
S17   S     S_3+6 0.424181 0.767155 0.550140 -0.003360
O75   O     O_2   0.436138 0.710739 0.508820 -0.269228
O76   O     O_2   0.503586 0.786108 0.587677 -0.292033
O77   O     O_3   0.310230 0.699357 0.578250 -0.490005
H41   H     H_    0.318554 0.653799 0.601827 0.366197
S18   S     S_3+6 0.221830 0.378947 0.546055 0.033506
O78   O     O_2   0.136264 0.330059 0.510009 -0.187396
O79   O     O_2   0.222084 0.293522 0.575133 -0.227660
O80   O     O_3   0.198302 0.449559 0.585455 -0.546166
H42   H     H_    0.137548 0.398174 0.604236 0.387722
S19   S     S_3+6 0.325687 0.874113 0.443161 0.051998
O81   O     O_2   0.262145 0.890628 0.479736 -0.168114
O82   O     O_2   0.336627 0.939577 0.399430 -0.253644
O83   O     O_3   0.265783 0.750004 0.426214 -0.407468
H43   H     H_    0.299200 0.750556 0.395289 0.386019
S20   S     S_3+6 0.041751 0.699585 0.407195 0.088377
O84   O     O_2   0.954068 0.689435 0.377271 -0.248617
O85   O     O_2   0.112732 0.813044 0.415605 -0.095365
O86   O     O_3   0.100318 0.648483 0.375564 -0.493820
H44   H     H_    0.114455 0.682758 0.343344 0.391164
S21   S     S_3+6 0.298920 0.487215 0.413559 0.090301
O87   O     O_2   0.315951 0.457733 0.363998 -0.247341
O88   O     O_2   0.185215 0.438630 0.419507 -0.139880
O89   O     O_3   0.355908 0.617281 0.416017 -0.472542
H45   H     H_    0.412890 0.644228 0.392199 0.361153
S22   S     S_3+6 0.854276 0.394787 0.594488 0.087301
O90   O     O_2   0.861496 0.441004 0.643482 -0.173410
O91   O     O_2   0.743267 0.319474 0.584648 -0.138820
O92   O     O_3   0.919252 0.331145 0.596015 -0.493619
H46   H     H_    0.903422 0.294776 0.564753 0.383713
S23   S     S_3+6 0.739955 0.058947 0.565676 0.074368
O93   O     O_2   0.731147 0.136268 0.596442 -0.206275
O94   O     O_2   0.749414 0.983259 0.598449 -0.180132
O95   O     O_3   0.845343 0.119735 0.530534 -0.462466
H47   H     H_    0.902498 0.128122 0.551258 0.409911
S24   S     S_3+6 0.490442 0.337960 0.583485 0.124712
O96   O     O_2   0.574845 0.432869 0.607605 -0.186894
O97   O     O_2   0.408040 0.276494 0.620363 -0.162802
O98   O     O_3   0.539343 0.266910 0.565758 -0.388454
H48   H     H_    0.521370 0.255665 0.531206 0.377416

loop_
_geom_bond_atom_site_label_1
_geom_bond_atom_site_label_2
_geom_bond_distance
_ccdc_geom_bond_type
O14   Cr2   2.125902 S    
O19   C7    1.359481 A    
O7    C1    1.306850 A    
C50   S14   1.784015 S    
S11   O57   1.484506 D    
C50   C58   1.548483 S    
C20   C32   1.579753 S    
O20   C8    1.377036 A    
C23   S1    1.845702 S    
C32   C40   1.583993 S    
C21   S9    1.885012 S    
O44   H30   0.990935 S    
C53   H13   1.100365 S    
S23   O93   1.498044 D    
S24   O98   1.647381 S    
C36   C45   1.489192 S    
C34   C38   1.594389 S    
C67   C83   1.480352 S    
C55   H11   1.098285 S    
C15   H6    1.045785 S    
S19   O82   1.502379 D    
S5    O39   1.502293 D    
C17   H1    1.067823 S    
O86   H44   0.990449 S    
C59   C71   1.582280 S    
O21   C9    1.377812 A    
C10   C63   1.409252 S    
S11   O58   1.500983 D    
C9    C64   1.400508 S    
S5    O40   1.491411 D    
C14   H4    1.045182 S    
Cr6   O26   2.196705 S    
C25   C43   1.191784 T    
S8    O50   1.665191 S    
C70   C80   1.473344 S    
C18   H3    1.053253 S    
O10   Cr4   1.987438 S    
S4    O36   1.500988 D    
S23   O94   1.503848 D    
C38   C40   1.574846 S    
C49   C67   1.580005 S    
C19   S7    1.792024 S    
S1    O28   1.480674 D    
C5    C26   1.433557 S    
O80   H42   0.990480 S    
C50   H16   1.101598 S    
C39   Br18  1.917300 S    
C57   S21   1.812480 S    
C66   C84   1.193926 T    
C37   Br17  1.903460 S    
C58   S22   1.815975 S    
O74   H40   0.990413 S    
C33   C48   1.470693 S    
C73   H23   1.104761 S    
O9    Cr3   1.987993 S    
S13   O65   1.681283 S    
O18   Cr6   2.125390 S    
C20   S8    1.852205 S    
S14   O68   1.682427 S    
S8    O49   1.496735 D    
O56   H34   0.974336 S    
S3    O35   1.684975 S    
O2    C1    1.371896 A    
C14   Br8   1.956217 S    
C22   S10   1.894764 S    
C33   C42   1.589528 S    
O5    C4    1.365976 A    
C15   Br9   1.948516 S    
O13   Cr1   2.129740 S    
O19   Cr1   2.008798 S    
C42   Br21  1.991615 S    
C73   C77   1.543144 S    
C61   C79   1.188000 T    
C56   S20   1.808824 S    
O4    Cr4   2.118300 S    
O21   Cr3   2.001695 S    
S12   O60   1.482400 D    
C17   C19   1.607189 S    
C36   C39   1.590660 S    
O15   Cr3   2.101361 S    
C75   C78   1.507834 S    
O12   Cr6   2.007274 S    
C2    C29   1.451084 S    
O11   Cr5   2.013674 S    
S10   O54   1.496314 D    
O1    C3    1.403435 A    
C32   C46   1.502829 S    
S21   O87   1.503166 D    
C49   H17   1.105635 S    
O1    Cr1   2.124286 S    
C22   S2    1.859240 S    
O4    C6    1.349339 A    
C69   C78   1.565330 S    
S9    O53   1.670821 S    
S18   O80   1.679685 S    
S3    O34   1.469071 D    
S19   O83   1.669026 S    
C37   Br23  1.908225 S    
S17   O75   1.488356 D    
S6    O43   1.491815 D    
S15   O70   1.497998 D    
S22   O92   1.677180 S    
C40   Br14  1.853156 S    
C41   Br13  1.881082 S    
C18   Br12  1.892872 S    
O8    Cr2   2.007670 S    
C16   C34   1.586429 S    
S20   O86   1.680827 S    
O24   C12   1.368400 A    
O77   H41   0.990524 S    
C78   Br3   1.963523 S    
C35   C43   1.462894 S    
O65   H37   0.990643 S    
C59   H7    1.102825 S    
C68   C76   1.539909 S    
C69   C84   1.458464 S    
C52   C56   1.584725 S    
C42   Br15  1.946699 S    
S2    O31   1.479509 D    
C75   H24   1.099122 S    
S10   O55   1.497019 D    
S13   O64   1.500098 D    
O15   C8    1.339266 A    
C29   C47   1.224752 T    
C18   C21   1.636738 S    
C24   C36   1.571472 S    
C13   C31   1.673026 S    
O50   H32   0.991421 S    
O18   C11   1.320083 A    
C51   C69   1.586897 S    
S11   O59   1.682522 S    
S23   O95   1.681156 S    
C68   C82   1.452629 S    
S24   O96   1.504471 D    
C52   H14   1.097029 S    
S20   O85   1.496304 D    
O13   C9    1.355946 A    
S7    O47   1.649780 S    
O3    Cr3   2.118095 S    
O59   H35   0.991014 S    
O20   Cr2   1.988137 S    
Cr3   O25   2.197903 S    
C65   C83   1.206575 T    
C49   S13   1.812515 S    
S18   O78   1.500856 D    
S24   O97   1.502942 D    
C3    C28   1.455000 S    
C28   C46   1.221028 T    
C51   H18   1.084110 S    
C54   C57   1.590749 S    
S8    O48   1.491302 D    
C27   C45   1.206091 T    
C52   C70   1.601540 S    
Cr1   O25   2.169140 S    
C78   H21   1.102432 S    
C14   C32   1.648231 S    
S7    O45   1.503635 D    
C54   C72   1.576350 S    
C53   C55   1.584431 S    
S2    O32   1.684073 S    
S21   O88   1.497895 D    
C38   Br16  1.900417 S    
C54   H15   1.069350 S    
C41   Br19  2.002839 S    
O38   H28   0.990893 S    
C24   S12   1.864151 S    
Cr4   O26   2.198211 S    
S15   O69   1.498073 D    
O17   C10   1.322556 A    
O16   Cr4   2.100928 S    
C14   C22   1.598174 S    
C12   C61   1.397099 S    
S9    O52   1.498271 D    
S16   O73   1.500817 D    
O7    Cr1   2.012730 S    
C22   C34   1.596594 S    
C24   S3    1.839678 S    
S14   O67   1.502669 D    
C59   S23   1.798662 S    
C18   C36   1.601847 S    
C26   C44   1.206805 T    
O35   H27   0.990669 S    
O3    C2    1.412922 A    
S6    O44   1.680815 S    
C17   Br11  1.892739 S    
C30   C48   1.204457 T    
C40   Br20  1.994931 S    
O98   H48   0.984500 S    
S17   O76   1.502067 D    
O6    Cr6   2.108708 S    
S6    O42   1.502763 D    
Cr5   O26   2.169155 S    
C17   C35   1.568190 S    
C31   C41   1.574683 S    
C35   C37   1.593396 S    
C50   C68   1.537425 S    
S19   O81   1.499769 D    
C21   C33   1.562051 S    
C7    C66   1.406967 S    
C16   Br10  1.830367 S    
S5    O41   1.685834 S    
C31   C47   1.509238 S    
C57   H12   1.096487 S    
C74   C76   1.525817 S    
S2    O30   1.501392 D    
O68   H38   0.989074 S    
C39   C42   1.565444 S    
C74   H22   1.100697 S    
C60   C72   1.563348 S    
O6    C5    1.362904 A    
O5    Cr5   2.123187 S    
O71   H39   0.990588 S    
O41   H29   0.991071 S    
O8    C2    1.346357 A    
C63   C81   1.195788 T    
C76   H20   1.109915 S    
S13   O63   1.502562 D    
S22   O90   1.502970 D    
C64   C82   1.188993 T    
C58   C70   1.565117 S    
S4    O38   1.681560 S    
C23   S11   1.867634 S    
C71   C79   1.457223 S    
O53   H33   0.991291 S    
O11   C5    1.392838 A    
C73   Br5   2.001185 S    
C55   S19   1.803005 S    
C16   H2    1.079635 S    
S1    O29   1.683947 S    
C39   Br24  1.890128 S    
C54   S18   1.840008 S    
C20   S4    1.882880 S    
C60   H9    1.092126 S    
O16   C12   1.336242 A    
O23   C11   1.369100 A    
C55   C67   1.569689 S    
O17   Cr5   2.130678 S    
C52   S16   1.813786 S    
C51   C60   1.601175 S    
O29   H25   0.990606 S    
C38   Br22  1.942163 S    
O2    Cr2   2.107807 S    
C51   S15   1.841304 S    
C72   C75   1.575634 S    
S4    O37   1.492569 D    
O83   H43   0.990511 S    
O9    C3    1.352103 A    
C67   C77   1.546356 S    
Cr2   O25   2.197028 S    
C57   C69   1.574439 S    
C60   S24   1.819522 S    
O32   H26   0.990740 S    
S20   O84   1.503711 D    
C13   Br7   1.970627 S    
C56   C68   1.580047 S    
C72   C81   1.463521 S    
C77   H19   1.104215 S    
O23   Cr5   2.007789 S    
C37   C41   1.561740 S    
S18   O79   1.502546 D    
S12   O62   1.680946 S    
C58   H8    1.098522 S    
C13   H5    1.068178 S    
S16   O72   1.502440 D    
S15   O71   1.684202 S    
C19   S5    1.882130 S    
S10   O56   1.664565 S    
S22   O91   1.499400 D    
S16   O74   1.681716 S    
C8    C65   1.429279 S    
S14   O66   1.471308 D    
C6    C25   1.404717 S    
S21   O89   1.680229 S    
C53   S17   1.798786 S    
C71   C73   1.528308 S    
C76   Br2   1.970406 S    
O22   C10   1.357818 A    
O62   H36   0.991074 S    
C23   C35   1.565247 S    
C21   S6    1.909063 S    
C16   C20   1.606520 S    
C74   Br4   1.909800 S    
O89   H45   0.990862 S    
C13   C23   1.616430 S    
S7    O46   1.490772 D    
S12   O61   1.502348 D    
S9    O51   1.489326 D    
C53   C71   1.540081 S    
S17   O77   1.678359 S    
O12   C6    1.355735 A    
C15   C33   1.654109 S    
O22   Cr4   2.001961 S    
O95   H47   0.990569 S    
O24   Cr6   1.988890 S    
O10   C4    1.371997 A    
C4    C27   1.431075 S    
C19   C31   1.557883 S    
C62   C80   1.205665 T    
O47   H31   0.973347 S    
S1    O27   1.502934 D    
C75   Br6   1.948947 S    
C77   Br1   1.956995 S    
S3    O33   1.502912 D    
C1    C30   1.412997 S    
C34   C44   1.483311 S    
C11   C62   1.425975 S    
C70   C74   1.547639 S    
C56   H10   1.085423 S    
C15   C24   1.605967 S    
C49   C59   1.564586 S    
O14   C7    1.326560 A    
O92   H46   0.986879 S    
