data_mof_unit_37722.cif
_audit_creation_date              2012-12-10T17:53:14-0500
_audit_creation_method            fapswitch 2.2
_symmetry_space_group_name_H-M    P1
_symmetry_Int_Tables_number       1
_space_group_crystal_system       triclinic
_cell_length_a                    23.339856
_cell_length_b                    10.700218
_cell_length_c                    9.938335
_cell_angle_alpha                 87.822779
_cell_angle_beta                  89.23888
_cell_angle_gamma                 94.320573
_cell_volume                      2472.85027135

loop_
_atom_site_label
_atom_site_type_symbol
_atom_type_description
_atom_site_fract_x
_atom_site_fract_y
_atom_site_fract_z
_atom_type_partial_charge
C1    C     C_R   0.500889 0.260355 0.502944 0.833184
C2    C     C_R   0.962896 0.225715 0.460074 -0.123511
C3    C     C_R   0.022504 0.228335 0.461986 -0.125448
C4    C     C_R   0.055243 0.340471 0.485226 -0.022234
C5    C     C_R   0.027622 0.451026 0.506978 -0.018701
C6    C     C_R   0.060367 0.563721 0.529529 -0.072188
C7    C     C_R   0.033008 0.673218 0.550984 -0.173266
C8    C     C_R   0.973335 0.673063 0.550432 0.210742
C9    C     C_R   0.115237 0.345372 0.487167 0.583167
C10   C     C_R   0.120193 0.564199 0.529823 0.605486
C11   C     C_R   0.236605 0.481136 0.387264 -0.151062
C12   C     C_R   0.389289 0.497703 0.501025 0.883621
C13   C     C_R   0.296141 0.494132 0.383918 -0.190360
C14   C     C_R   0.326610 0.486878 0.504122 -0.117682
C15   C     C_R   0.296893 0.464468 0.627479 -0.291303
C16   C     C_R   0.237057 0.450117 0.631552 0.510144
C17   C     C_R   0.207056 0.459964 0.510182 0.172563
C18   C     C_R   0.760507 0.455862 0.377150 -0.097244
C19   C     C_R   0.701898 0.470390 0.376616 -0.155842
C20   C     C_R   0.670826 0.467357 0.498809 -0.040217
C21   C     C_R   0.698530 0.444026 0.620792 -0.202849
C22   C     C_R   0.757085 0.429497 0.620885 -0.085984
C23   C     C_R   0.506337 0.739957 0.497593 0.926031
C24   C     C_R   0.788087 0.437475 0.499369 0.311405
C25   C     C_R   0.576991 0.135460 0.692208 -0.183709
C26   C     C_R   0.616852 0.075501 0.768688 -0.169910
C27   C     C_R   0.629449 0.955385 0.738892 -0.071417
C28   C     C_R   0.600119 0.892663 0.637116 0.132449
C29   C     C_R   0.551734 0.942841 0.576407 0.037315
C30   C     C_R   0.543508 0.070071 0.594859 0.080752
C31   C     C_R   0.504372 0.128077 0.509366 -0.083261
C32   C     C_R   0.470643 0.060396 0.418659 -0.199061
C33   C     C_R   0.473887 0.933771 0.412697 -0.122985
C34   C     C_R   0.609756 0.488522 0.499591 0.909328
C35   C     C_R   0.513232 0.874322 0.491801 -0.075404
C36   C     C_R   0.424593 0.328353 0.148434 -0.128016
C37   C     C_R   0.387759 0.243615 0.082130 -0.157983
C38   C     C_R   0.388328 0.243271 0.942626 -0.129063
C39   C     C_R   0.425616 0.327953 0.868435 -0.137588
C40   C     C_R   0.463739 0.414139 0.932221 0.139557
C41   C     C_R   0.463677 0.413938 0.076725 0.086297
C42   C     C_R   0.532975 0.587461 0.063382 0.448435
C43   C     C_R   0.533509 0.583677 0.921365 -0.166399
C44   C     C_R   0.879106 0.552190 0.524286 0.537190
C45   C     C_R   0.875216 0.333397 0.480208 0.512920
C46   C     C_R   0.934961 0.335037 0.481755 -0.010565
C47   C     C_R   0.967276 0.448850 0.505467 -0.043799
C48   C     C_R   0.939492 0.559993 0.527215 -0.088156
H1    H     H_    0.938777 0.137797 0.441383 0.213255
H2    H     H_    0.681344 0.487198 0.281253 0.186885
H3    H     H_    0.675289 0.439505 0.716125 0.165678
H4    H     H_    0.778801 0.416021 0.715365 0.142370
H5    H     H_    0.440328 0.105404 0.354776 0.150221
H6    H     H_    0.574610 0.233008 0.711476 0.181742
H7    H     H_    0.641685 0.126381 0.843037 0.155510
H8    H     H_    0.666413 0.916892 0.784879 0.183219
H9    H     H_    0.444404 0.881420 0.348407 0.175991
H10   H     H_    0.042782 0.142379 0.445055 0.203834
H11   H     H_    0.420344 0.325986 0.255449 0.191289
H12   H     H_    0.358110 0.178773 0.139488 0.162749
H13   H     H_    0.359204 0.178079 0.891436 0.172185
H14   H     H_    0.422995 0.325226 0.761400 0.196661
H15   H     H_    0.559494 0.652461 0.860179 0.217971
H16   H     H_    0.058099 0.760227 0.568651 0.215074
H17   H     H_    0.213153 0.488982 0.294381 0.177783
H18   H     H_    0.318196 0.510548 0.287560 0.188964
H19   H     H_    0.320294 0.457372 0.720441 0.205115
H20   H     H_    0.784899 0.463019 0.283361 0.145571
N1    N     N_R   0.849047 0.440622 0.501368 -0.366232
N2    N     N_R   0.146010 0.455819 0.510574 -0.346439
N3    N     N_R   0.499460 0.498800 0.142780 -0.184520
N4    N     N_R   0.499440 0.498720 0.857170 -0.158788
O1    O     O_R   0.500000 0.316780 0.614690 -0.661849
O2    O     O_2   0.843294 0.225838 0.458066 -0.526639
O3    O     O_2   0.142739 0.241104 0.466303 -0.517246
O4    O     O_2   0.152543 0.671903 0.548893 -0.505012
O5    O     O_R   0.500000 0.316750 0.385360 -0.635718
O6    O     O_R   0.416160 0.499970 0.614690 -0.628123
O7    O     O_R   0.416150 0.499950 0.385360 -0.643777
O8    O     O_R   0.500000 0.683250 0.614640 -0.616319
O9    O     O_R   0.500000 0.683220 0.385310 -0.533887
O10   O     O_R   0.583850 0.500050 0.614640 -0.630812
O11   O     O_R   0.583840 0.500030 0.385310 -0.569368
O12   O     O_2   0.849926 0.654079 0.543456 -0.487166
Zn1   Zn    Zn3+2 0.500000 0.500020 0.653130 0.946497
Zn2   Zn    Zn3+2 0.500000 0.499980 0.346870 1.017640
I1    I     I_    0.653501 0.780025 0.532592 -0.218837
S1    S     S_3+6 0.569779 0.724151 0.125005 0.035884
O13   O     O_2   0.526646 0.816994 0.155234 -0.307758
O14   O     O_2   0.603663 0.697680 0.247776 -0.267441
O15   O     O_3   0.616015 0.789895 0.006869 -0.599922
H21   H     H_    0.631426 0.869723 0.044629 0.388739
I2    I     I_    0.942296 0.851626 0.586569 -0.219583
S2    S     S_3+6 0.200651 0.421039 0.788281 0.038586
O16   O     O_2   0.157688 0.309920 0.779080 -0.275848
O17   O     O_2   0.242477 0.395004 0.897778 -0.307653
O18   O     O_3   0.165979 0.547587 0.826147 -0.519932
H22   H     H_    0.143161 0.521857 0.908668 0.384076

loop_
_geom_bond_atom_site_label_1
_geom_bond_atom_site_label_2
_ccdc_geom_bond_type
C43   N4    A    
C1    O5    A    
C19   C20   A    
C36   H11   S    
C26   H7    S    
O18   H22   S    
C43   H15   S    
C7    C8    A    
C45   C46   A    
C2    C46   A    
C5    C47   A    
C26   C27   A    
C29   C30   A    
C18   C24   A    
C36   C37   A    
C37   C38   A    
C5    C6    A    
C18   H20   S    
C15   C16   A    
C12   O7    A    
C1    C31   S    
C18   C19   A    
C10   O4    S    
C11   C17   A    
C31   C32   A    
C16   C17   A    
C12   O6    A    
C23   O8    A    
C23   O9    A    
O9    Zn2   S    
O15   H21   S    
C41   N3    A    
C38   H13   S    
C20   C34   S    
C17   N2    S    
C21   C22   A    
C36   C41   A    
C24   N1    S    
N4    Zn1   S    
C13   H18   S    
C45   N1    A    
C25   H6    S    
C39   C40   A    
C27   H8    S    
S2    O18   S    
C25   C26   A    
C45   O2    S    
C8    C48   A    
O8    Zn1   S    
C2    H1    S    
N3    Zn2   S    
C47   C48   A    
S1    O15   S    
C30   C31   A    
C15   H19   S    
C20   C21   A    
C28   I1    S    
C44   N1    A    
C9    N2    A    
S2    O17   D    
O1    Zn1   S    
C10   N2    A    
O6    Zn1   S    
C40   C41   A    
C12   C14   S    
O5    Zn2   S    
C23   C35   S    
C22   C24   A    
C42   S1    S    
C34   O11   A    
C3    C4    A    
C32   H5    S    
C21   H3    S    
C22   H4    S    
C25   C30   A    
C39   H14   S    
C46   C47   A    
C28   C29   A    
C33   H9    S    
C40   N4    A    
C8    I2    S    
S1    O14   D    
C4    C5    A    
C44   O12   S    
C6    C10   A    
C6    C7    A    
O10   Zn1   S    
C9    O3    S    
C29   C35   A    
C16   S2    S    
C1    O1    A    
C32   C33   A    
C2    C3    A    
C11   C13   A    
C19   H2    S    
C38   C39   A    
C42   N3    A    
C33   C35   A    
S2    O16   D    
C7    H16   S    
C37   H12   S    
C3    H10   S    
C44   C48   A    
O11   Zn2   S    
S1    O13   D    
C42   C43   A    
C27   C28   A    
C14   C15   A    
C34   O10   A    
C4    C9    A    
C13   C14   A    
O7    Zn2   S    
C11   H17   S    
