data_mof_unit_51864.cif
_audit_creation_date              2012-12-10T20:30:15-0500
_audit_creation_method            fapswitch 2.2
_symmetry_space_group_name_H-M    P1
_symmetry_Int_Tables_number       1
_space_group_crystal_system       triclinic
_cell_length_a                    9.872332
_cell_length_b                    10.664876
_cell_length_c                    12.933697
_cell_angle_alpha                 90.196035
_cell_angle_beta                  71.529493
_cell_angle_gamma                 89.900597
_cell_volume                      1291.59128023

loop_
_atom_site_label
_atom_site_type_symbol
_atom_type_description
_atom_site_fract_x
_atom_site_fract_y
_atom_site_fract_z
_atom_type_partial_charge
C1    C     C_R   0.501638 0.740096 0.495986 0.888176
C2    C     C_R   0.443174 0.386262 0.976587 0.098332
C3    C     C_R   0.482321 0.391989 0.862563 0.042296
C4    C     C_R   0.552813 0.401423 0.024408 0.041735
C5    C     C_R   0.697967 0.401098 0.957790 0.101164
C6    C     C_R   0.731642 0.357565 0.849382 0.123799
C7    C     C_R   0.622862 0.357398 0.801771 -0.234737
C8    C     C_R   0.520741 0.431505 0.134101 -0.281141
C9    C     C_R   0.765595 0.497089 0.106590 0.100593
C10   C     C_R   0.379534 0.432032 0.814223 -0.110712
C11   C     C_R   0.388332 0.936372 0.473982 0.142252
C12   C     C_R   0.423238 0.481343 0.702335 0.870314
C13   C     C_R   0.509578 0.871323 0.476473 -0.113172
C14   C     C_R   0.639797 0.934706 0.456509 -0.233149
C15   C     C_R   0.640205 0.064444 0.455980 -0.233477
C16   C     C_R   0.510408 0.128742 0.475241 -0.096246
C17   C     C_R   0.388935 0.064373 0.472997 0.134874
C18   C     C_3   0.239650 0.073126 0.549063 -0.493358
C19   C     C_3   0.238999 0.931246 0.550608 -0.495517
C20   C     C_R   0.910647 0.598806 0.543338 0.208198
C21   C     C_R   0.949793 0.408409 0.448056 -0.157829
C22   C     C_R   0.093773 0.408482 0.447925 -0.141520
C23   C     C_R   0.502157 0.259970 0.495325 0.865401
C24   C     C_R   0.052784 0.598351 0.544030 0.217970
C25   C     C_3   0.009281 0.642300 0.659618 -0.528955
C26   C     C_3   0.856196 0.644895 0.658027 -0.502552
C27   C     C_R   0.578425 0.498558 0.294914 0.852697
C28   C     C_R   0.801930 0.452561 0.998888 -0.242166
C29   C     C_R   0.624639 0.477294 0.176689 -0.083520
C30   C     C_R   0.234392 0.426141 0.875301 -0.201859
C31   C     C_R   0.193660 0.389736 0.984105 -0.165838
C32   C     C_R   0.296296 0.376263 0.036417 -0.173401
H1    H     H_    0.738858 0.113203 0.449055 0.163558
H2    H     H_    0.234413 0.115971 0.628772 0.206507
H3    H     H_    0.165040 0.113722 0.509247 0.202282
H4    H     H_    0.233423 0.892024 0.631397 0.200804
H5    H     H_    0.163702 0.889595 0.511895 0.204358
H6    H     H_    0.912429 0.333232 0.407803 0.142980
H7    H     H_    0.164899 0.333457 0.407419 0.144097
H8    H     H_    0.028643 0.570932 0.715804 0.205678
H9    H     H_    0.050691 0.736959 0.668160 0.202340
H10   H     H_    0.786060 0.576439 0.714391 0.227552
H11   H     H_    0.811356 0.741257 0.663215 0.202945
H12   H     H_    0.908889 0.468193 0.945116 0.120165
H13   H     H_    0.412328 0.424769 0.187196 0.166735
H14   H     H_    0.153084 0.448642 0.838625 0.136363
H15   H     H_    0.258315 0.355685 0.122442 0.119862
H16   H     H_    0.082138 0.377160 0.029541 0.139301
H17   H     H_    0.648860 0.328976 0.717376 0.193986
H18   H     H_    0.738277 0.885371 0.449750 0.173282
N1    N     N_R   0.856940 0.500860 0.500710 -0.105634
N2    N     N_R   0.142580 0.500820 0.500710 -0.102935
O1    O     O_R   0.385310 0.683210 0.499990 -0.606787
O2    O     O_R   0.614650 0.683240 0.500000 -0.612981
O3    O     O_R   0.328390 0.499940 0.653610 -0.610115
O4    O     O_R   0.557730 0.499980 0.653620 -0.616674
O5    O     O_R   0.385350 0.316760 0.500000 -0.618414
O6    O     O_R   0.614690 0.316790 0.500010 -0.636600
O7    O     O_R   0.442270 0.500020 0.346380 -0.615912
O8    O     O_R   0.671610 0.500060 0.346390 -0.609650
Zn1   Zn    Zn3+2 0.346870 0.499980 0.499990 0.933649
Zn2   Zn    Zn3+2 0.653130 0.500020 0.500010 0.923812
C33   C     C_3   0.876933 0.568650 0.141609 -0.423267
C34   C     C_3   0.832062 0.705516 0.171885 -0.303466
C35   C     C_3   0.938902 0.772199 0.216180 -0.877212
H19   H     H_    0.943014 0.725901 0.291986 0.261786
H20   H     H_    0.047052 0.770707 0.154736 0.260887
H21   H     H_    0.905432 0.871304 0.235421 0.245410
H22   H     H_    0.826113 0.755690 0.098227 0.215757
H23   H     H_    0.725285 0.711206 0.234562 0.216927
H24   H     H_    0.900068 0.519317 0.209544 0.224297
H25   H     H_    0.979625 0.571829 0.074035 0.194395
C36   C     C_3   0.878297 0.309730 0.782904 -0.425776
C37   C     C_3   0.872216 0.171083 0.754402 -0.852418
H26   H     H_    0.823393 0.115568 0.829500 0.264403
H27   H     H_    0.809668 0.157406 0.697459 0.252975
H28   H     H_    0.981720 0.135273 0.714367 0.250622
H29   H     H_    0.918914 0.364625 0.706560 0.217688
H30   H     H_    0.956814 0.317582 0.827451 0.203787

loop_
_geom_bond_atom_site_label_1
_geom_bond_atom_site_label_2
_ccdc_geom_bond_type
O6    Zn2   S    
C23   O6    A    
C24   N2    A    
C27   C29   S    
C36   C37   S    
C19   H4    S    
C4    C8    A    
C11   C19   S    
C37   H27   S    
C8    C29   A    
O8    Zn2   S    
C20   N1    A    
C3    C7    A    
C27   O8    A    
C25   H8    S    
C5    C6    A    
C15   C16   A    
C2    C32   A    
C18   C19   S    
C1    O1    A    
C8    H13   S    
C19   H5    S    
O1    Zn1   S    
C21   H6    S    
C20   C24   A    
C16   C17   A    
C35   H20   S    
C37   H28   S    
C36   H29   S    
C34   H23   S    
C18   H3    S    
C9    C29   A    
C13   C14   A    
N1    Zn2   S    
C26   H11   S    
O7    Zn1   S    
C37   H26   S    
C24   C25   S    
C7    H17   S    
C25   H9    S    
O2    Zn2   S    
C25   C26   S    
C28   H12   S    
C2    C4    A    
C1    O2    A    
C5    C28   A    
C10   C30   A    
C31   C32   A    
C30   C31   A    
C35   H21   S    
C17   C18   S    
C36   H30   S    
C34   H22   S    
C18   H2    S    
C12   O4    A    
C10   C12   S    
C33   H24   S    
C16   C23   S    
C31   H16   S    
C32   H15   S    
O4    Zn2   S    
C1    C13   S    
C21   N1    A    
C26   H10   S    
C6    C36   S    
C22   N2    A    
C23   O5    A    
C11   C17   A    
C9    C33   S    
C30   H14   S    
C4    C5    A    
O5    Zn1   S    
C6    C7    A    
N2    Zn1   S    
C34   C35   S    
C2    C3    A    
C3    C10   A    
C27   O7    A    
C11   C13   A    
C14   H18   S    
C20   C26   S    
C22   H7    S    
O3    Zn1   S    
C12   O3    A    
C33   C34   S    
C33   H25   S    
C35   H19   S    
C14   C15   A    
C21   C22   A    
C15   H1    S    
C9    C28   A    
