data_mof_unit_24203.cif
_audit_creation_date              2013-03-05T16:23:17-0500
_audit_creation_method            fapswitch 2.2
_symmetry_space_group_name_H-M    P1
_symmetry_Int_Tables_number       1
_space_group_crystal_system       triclinic
_cell_length_a                    27.641629
_cell_length_b                    10.486825
_cell_length_c                    9.77556
_cell_angle_alpha                 89.820867
_cell_angle_beta                  89.976527
_cell_angle_gamma                 89.472792
_cell_volume                      2833.53616707

loop_
_atom_site_label
_atom_site_type_symbol
_atom_site_description
_atom_site_fract_x
_atom_site_fract_y
_atom_site_fract_z
_atom_type_partial_charge
O1    O     O_R   0.500000 0.313960 0.616610 -0.640415
O2    O     O_R   0.500000 0.686040 0.383390 -0.627307
O3    O     O_R   0.500020 0.313950 0.383350 -0.559646
O4    O     O_R   0.499980 0.686050 0.616650 -0.573353
C1    C     C_R   0.500021 0.257554 0.500325 0.894103
C2    C     C_R   0.499934 0.742435 0.499660 0.895482
O5    O     O_R   0.428750 0.500030 0.616610 -0.638780
O6    O     O_R   0.571250 0.499970 0.383390 -0.589650
O7    O     O_R   0.428770 0.500020 0.383360 -0.548042
O8    O     O_R   0.571230 0.499980 0.616640 -0.598792
C3    C     C_R   0.406040 0.502506 0.500060 0.909387
C4    C     C_R   0.593981 0.496777 0.500109 0.909508
Zn1   Zn    Zn3+2 0.499990 0.500010 0.655740 1.009060
Zn2   Zn    Zn3+2 0.500010 0.499990 0.344260 1.065186
C5    C     C_R   0.177806 0.383898 0.556269 0.554331
C6    C     C_R   0.822381 0.607332 0.559002 0.553988
O9    O     O_2   0.203536 0.273877 0.560150 -0.526817
O10   O     O_2   0.796721 0.717434 0.563344 -0.526781
N1    N     N_R   0.200558 0.496647 0.530100 -0.348253
N2    N     N_R   0.799552 0.494898 0.532627 -0.348276
C7    C     C_R   0.175476 0.609547 0.522800 0.538423
C8    C     C_R   0.824561 0.381958 0.524869 0.539067
C9    C     C_R   0.274334 0.539243 0.398315 -0.143012
C10   C     C_R   0.725827 0.454857 0.400116 -0.137551
C11   C     C_R   0.324764 0.546173 0.389888 0.306751
C12   C     C_R   0.675351 0.450133 0.390641 0.288989
C13   C     C_R   0.330043 0.461259 0.622205 -0.231807
C14   C     C_R   0.670070 0.532651 0.623417 -0.209421
C15   C     C_R   0.280100 0.459058 0.630525 -0.067249
C16   C     C_R   0.719988 0.532626 0.632629 -0.073336
C17   C     C_R   0.252100 0.497202 0.518709 0.225440
C18   C     C_R   0.748019 0.494887 0.521000 0.223542
C19   C     C_R   0.101312 0.496807 0.570742 -0.054739
C20   C     C_R   0.898828 0.494066 0.572445 -0.054709
C21   C     C_R   0.127862 0.382098 0.578808 -0.083080
C22   C     C_R   0.872331 0.608771 0.581154 -0.082902
C23   C     C_R   0.104501 0.269196 0.614609 -0.171291
C24   C     C_R   0.895763 0.721319 0.617025 -0.171457
C25   C     C_R   0.125297 0.611645 0.541760 -0.031751
C26   C     C_R   0.874764 0.379527 0.543443 -0.031867
C27   C     C_R   0.353021 0.504294 0.502672 -0.168864
C28   C     C_R   0.647045 0.492458 0.503082 -0.184351
H1    H     H_    0.350697 0.428700 0.709974 0.189477
H2    H     H_    0.649497 0.564658 0.711299 0.226570
H3    H     H_    0.263006 0.427608 0.724312 0.173533
H4    H     H_    0.737046 0.562365 0.726878 0.176159
H5    H     H_    0.125428 0.182922 0.632646 0.230140
H6    H     H_    0.874885 0.807477 0.635595 0.230265
C29   C     C_R   0.975776 0.377611 0.586542 0.070123
C30   C     C_R   0.024378 0.613040 0.586377 0.069901
C31   C     C_R   0.973703 0.611649 0.607317 -0.061738
C32   C     C_R   0.026509 0.378836 0.606483 -0.061822
C33   C     C_R   0.949484 0.494292 0.590178 0.056323
C34   C     C_R   0.050686 0.496352 0.589236 0.056291
C35   C     C_R   0.951069 0.265195 0.551511 -0.101601
C36   C     C_R   0.048985 0.725751 0.551108 -0.101479
C37   C     C_R   0.901295 0.265869 0.532072 -0.096459
C38   C     C_R   0.098719 0.725328 0.530944 -0.095946
O11   O     O_2   0.800812 0.272313 0.501245 -0.524661
O12   O     O_2   0.199143 0.719508 0.499385 -0.525269
C39   C     C_R   0.054483 0.267197 0.634771 0.243480
C40   C     C_R   0.945806 0.723075 0.636438 0.243186
H7    H     H_    0.748036 0.423569 0.315056 0.192177
H8    H     H_    0.252194 0.570679 0.313011 0.190204
H9    H     H_    0.883827 0.177163 0.505908 0.209334
H10   H     H_    0.116120 0.814279 0.504738 0.209622
C41   C     C_3   0.500483 0.039895 0.630542 -0.081542
C42   C     C_3   0.499397 0.960055 0.369385 -0.064672
C43   C     C_3   0.540020 0.956368 0.563186 -0.142990
C44   C     C_3   0.459862 0.043597 0.436735 -0.120987
H11   H     H_    0.572598 0.916029 0.614406 0.200803
H12   H     H_    0.427286 0.083921 0.385494 0.201907
H13   H     H_    0.500937 0.076393 0.737051 0.201853
H14   H     H_    0.498932 0.923534 0.262885 0.204822
C45   C     C_3   0.499912 0.877583 0.498713 -0.035104
C46   C     C_3   0.499977 0.122386 0.501217 -0.045251
C47   C     C_3   0.460370 0.958402 0.565866 -0.162320
C48   C     C_3   0.539511 0.041539 0.434053 -0.166285
H15   H     H_    0.428229 0.919597 0.619313 0.177949
H16   H     H_    0.571669 0.080118 0.380557 0.207681
C49   C     C_3   0.482390 0.397631 0.047068 0.412388
C50   C     C_3   0.517566 0.602407 0.952984 0.378768
C51   C     C_3   0.525719 0.405346 0.951129 -0.163302
C52   C     C_3   0.474266 0.594615 0.048906 -0.149148
N3    N     N_3   0.499960 0.500030 0.863290 -0.144369
N4    N     N_3   0.500040 0.499970 0.136710 -0.142006
C53   C     C_3   0.456213 0.489719 0.951181 -0.185407
C54   C     C_3   0.543765 0.510358 0.048817 -0.172992
H17   H     H_    0.419669 0.478953 0.905858 0.183947
H18   H     H_    0.580230 0.522011 0.094150 0.215291
H19   H     H_    0.546631 0.325306 0.905269 0.187704
H20   H     H_    0.453483 0.674888 0.094664 0.215075
N5    N     N_R   0.461744 0.282012 0.104271 0.218598
O13   O     O_R   0.482421 0.172039 0.082592 -0.386977
O14   O     O_R   0.421498 0.287855 0.172953 -0.369263
N6    N     N_R   0.537896 0.718573 0.896100 0.223364
O15   O     O_R   0.516930 0.828099 0.918200 -0.390508
O16   O     O_R   0.578167 0.713796 0.827532 -0.399389
N7    N     N_R   0.654051 0.396023 0.270332 0.210086
O17   O     O_R   0.672815 0.419031 0.150762 -0.387198
O18   O     O_R   0.622748 0.304697 0.282113 -0.386878
N8    N     N_R   0.346136 0.602314 0.270431 0.225483
O19   O     O_R   0.329069 0.576162 0.149802 -0.369856
O20   O     O_R   0.375916 0.696916 0.283388 -0.392964
H21   H     H_    0.970021 0.176559 0.532293 0.192956
H22   H     H_    0.029973 0.814487 0.532346 0.193267
N9    N     N_R   0.034005 0.157075 0.699941 0.216499
O21   O     O_R   0.001864 0.171453 0.796151 -0.302318
O22   O     O_R   0.052907 0.044567 0.679853 -0.354629
N10   N     N_R   0.966426 0.832654 0.701533 0.216618
O23   O     O_R   0.998809 0.817496 0.796985 -0.302741
O24   O     O_R   0.947474 0.945324 0.682160 -0.353532

loop_
_geom_bond_atom_site_label_1
_geom_bond_atom_site_label_2
_geom_bond_distance
_ccdc_geom_bond_type
N5    O13   1.300340 A    
C13   C15   1.383244 A    
C41   C47   1.543022 S    
C52   C53   1.545565 S    
N1    C17   1.429060 S    
C2    C45   1.417267 S    
C42   C45   1.529544 S    
C5    N1    1.367713 A    
C19   C25   1.408011 A    
C35   H21   1.079700 S    
O1    C1    1.283080 A    
C46   C48   1.526393 S    
N1    C7    1.368188 A    
C10   C12   1.399695 A    
C32   C39   1.423550 A    
C48   H16   1.110058 S    
C11   N8    1.435541 S    
C42   H14   1.110554 S    
C49   N5    1.454889 S    
O4    Zn1   1.986863 S    
C43   H11   1.110224 S    
N10   O23   1.301678 A    
C4    C28   1.467360 S    
C50   C54   1.521821 S    
C38   H10   1.083408 S    
N6    O16   1.299818 A    
N9    O21   1.301664 A    
C43   C45   1.526323 S    
C41   H13   1.110546 S    
C23   H5    1.083373 S    
C24   H6    1.083372 S    
C49   N4    1.474311 S    
C51   N3    1.487410 S    
O6    C4    1.302968 A    
C12   N7    1.436210 S    
C47   H15   1.110319 S    
C51   C54   1.546141 S    
N5    O14   1.300204 A    
C44   C47   1.544217 S    
N9    O22   1.301396 A    
C43   C48   1.544088 S    
O2    C2    1.282896 A    
C31   C40   1.423499 A    
O2    Zn2   1.989387 S    
C5    C21   1.398201 A    
C49   C51   1.523481 S    
C32   C34   1.416882 A    
N3    C53   1.487661 S    
C42   C48   1.542943 S    
C50   N6    1.455049 S    
N4    C54   1.487232 S    
Zn2   N4    2.028918 S    
C7    O12   1.349877 S    
O4    C2    1.285809 A    
C11   C27   1.417698 A    
C8    O11   1.349837 S    
C29   C35   1.411025 A    
C25   C38   1.398327 A    
C14   H2    1.082580 S    
C30   C36   1.410909 A    
C15   H3    1.083159 S    
C31   C33   1.416828 A    
C9    C17   1.399426 A    
O5    C3    1.301127 A    
O7    Zn2   2.005783 S    
C10   C18   1.399059 A    
O7    C3    1.302369 A    
C13   C27   1.404943 A    
N7    O17   1.301341 A    
C40   N10   1.437787 S    
C6    N2    1.367703 A    
C29   C32   1.416067 A    
C8    C26   1.399575 A    
N6    O15   1.300367 A    
C30   C31   1.415750 A    
C30   C34   1.417882 A    
N8    O20   1.301449 A    
C45   C47   1.526356 S    
C36   H22   1.079704 S    
C49   C53   1.522107 S    
O3    Zn2   1.986865 S    
O8    C4    1.301356 A    
C6    O10   1.350284 S    
C9    H8    1.083319 S    
N7    O18   1.301412 A    
C54   H18   1.109168 S    
C10   H7    1.083283 S    
C50   C52   1.522784 S    
C35   C37   1.388919 A    
C44   C46   1.526526 S    
C20   C26   1.408044 A    
O1    Zn1   1.989389 S    
N2    C8    1.368155 A    
C22   C24   1.397261 A    
C12   C28   1.418931 A    
N2    C18   1.429025 S    
C19   C34   1.411008 A    
C5    O9    1.350235 S    
O6    Zn2   2.006152 S    
C26   C37   1.398396 A    
C21   C23   1.397338 A    
C7    C25   1.399284 A    
C16   H4    1.083189 S    
C37   H9    1.083406 S    
O3    C1    1.285739 A    
O8    Zn1   2.005786 S    
C23   C39   1.396830 A    
C50   N3    1.474484 S    
C51   H19   1.110330 S    
C1    C46   1.417494 S    
C53   H17   1.110050 S    
C14   C16   1.382788 A    
C15   C17   1.395030 A    
C6    C22   1.397897 A    
C16   C18   1.394338 A    
C29   C33   1.417938 A    
C14   C28   1.405400 A    
C19   C21   1.405366 A    
C36   C38   1.388677 A    
C3    C27   1.465697 S    
C20   C22   1.405345 A    
C9    C11   1.398914 A    
N8    O19   1.301224 A    
C39   N9    1.437726 S    
N10   O24   1.301400 A    
C13   H1    1.083352 S    
O5    Zn1   2.006147 S    
C20   C33   1.411002 A    
C42   C44   1.542935 S    
Zn1   N3    2.028917 S    
C52   N4    1.487140 S    
C44   H12   1.110214 S    
C41   C46   1.529618 S    
C52   H20   1.109951 S    
C41   C43   1.542903 S    
C24   C40   1.396612 A    
