data_mof_unit_34304.cif
_audit_creation_date              2013-03-05T16:07:27-0500
_audit_creation_method            fapswitch 2.2
_symmetry_space_group_name_H-M    P1
_symmetry_Int_Tables_number       1
_space_group_crystal_system       triclinic
_cell_length_a                    19.570842
_cell_length_b                    7.10245
_cell_length_c                    17.514876
_cell_angle_alpha                 89.878474
_cell_angle_beta                  108.726639
_cell_angle_gamma                 89.883689
_cell_volume                      2305.68518924

loop_
_atom_site_label
_atom_site_type_symbol
_atom_site_description
_atom_site_fract_x
_atom_site_fract_y
_atom_site_fract_z
_atom_type_partial_charge
O1    O     O_R   0.413720 0.494330 0.415730 -0.606512
O2    O     O_R   0.586280 0.994330 0.584270 -0.606881
O3    O     O_R   0.560210 0.819300 0.430070 -0.567476
O4    O     O_R   0.439790 0.319300 0.569930 -0.564870
C1    C     C_R   0.580741 0.655517 0.413526 1.001275
C2    C     C_R   0.418841 0.155171 0.585946 1.004286
O5    O     O_R   0.412670 0.823730 0.406310 -0.578598
O6    O     O_R   0.587330 0.323730 0.593690 -0.575597
O7    O     O_R   0.437690 0.998790 0.560340 -0.588430
O8    O     O_R   0.562310 0.498790 0.439660 -0.584397
C3    C     C_R   0.385461 0.655550 0.383184 0.974408
C4    C     C_R   0.614617 0.155098 0.616737 0.985999
O9    O     O_3   0.508380 0.662350 0.550560 -0.241499
O10   O     O_3   0.491620 0.162350 0.449440 -0.238984
V1    V     V_3+5 0.498450 0.935370 0.490620 1.303196
V2    V     V_3+5 0.501550 0.435370 0.509380 1.307744
C5    C     C_R   0.698487 0.999631 0.742401 0.116511
C6    C     C_R   0.302533 0.499683 0.257944 0.102593
C7    C     C_R   0.682570 0.147862 0.686340 -0.258646
C8    C     C_R   0.317873 0.648668 0.313221 -0.249375
C9    C     C_R   0.733066 0.296598 0.701308 -0.017162
C10   C     C_R   0.266944 0.796946 0.297531 -0.039251
H1    H     H_    0.722802 0.417822 0.661714 0.116076
H2    H     H_    0.276780 0.918647 0.336553 0.113117
C11   C     C_R   0.799083 0.286335 0.765436 -0.158428
C12   C     C_R   0.200913 0.785261 0.233633 -0.167962
H3    H     H_    0.837094 0.400952 0.773858 0.134565
H4    H     H_    0.162503 0.899580 0.224817 0.135560
C13   C     C_R   0.817480 0.124573 0.814940 -0.236116
C14   C     C_R   0.182988 0.622893 0.184813 -0.234003
C15   C     C_R   0.764779 0.986221 0.802662 0.261152
C16   C     C_R   0.236468 0.485119 0.197383 0.262699
C17   C     C_3   0.768538 0.778120 0.795475 -0.600316
C18   C     C_3   0.234424 0.276418 0.205663 -0.601521
C19   C     C_3   0.693493 0.791094 0.733099 0.345253
C20   C     C_3   0.309117 0.291683 0.268765 0.353279
H5    H     H_    0.771176 0.703197 0.852094 0.275449
H6    H     H_    0.233031 0.200685 0.149793 0.278606
H7    H     H_    0.810646 0.735410 0.768844 0.154235
H8    H     H_    0.192231 0.232119 0.231853 0.151473
H9    H     H_    0.689980 0.741452 0.671849 0.027397
H10   H     H_    0.312087 0.243582 0.330156 0.023683
C21   C     C_R   0.318442 0.004609 0.624221 -0.121901
C22   C     C_R   0.678351 0.499614 0.371868 -0.105770
C23   C     C_R   0.370737 0.146986 0.636964 -0.304022
C24   C     C_R   0.629301 0.649454 0.362988 -0.320315
C25   C     C_R   0.375428 0.284149 0.696660 0.335743
C26   C     C_R   0.628180 0.794765 0.307257 0.307247
C27   C     C_R   0.326866 0.281717 0.741238 0.050220
C28   C     C_R   0.676322 0.790677 0.262241 0.065799
C29   C     C_R   0.274860 0.136932 0.728441 0.013122
C30   C     C_R   0.725847 0.640143 0.272243 0.033199
C31   C     C_R   0.271152 0.994704 0.670473 -0.028010
C32   C     C_R   0.727750 0.494021 0.328179 -0.040165
C33   C     C_R   0.330191 0.420027 0.799669 -0.134489
C34   C     C_R   0.675947 0.935748 0.207316 -0.126915
C35   C     C_R   0.282383 0.418464 0.843592 -0.141094
C36   C     C_R   0.722856 0.931869 0.162302 -0.139126
C37   C     C_R   0.230030 0.277012 0.831641 -0.001119
C38   C     C_R   0.772023 0.782943 0.170586 0.002454
C39   C     C_R   0.226777 0.134424 0.774260 0.040539
C40   C     C_R   0.773331 0.636030 0.225783 0.048195
C41   C     C_R   0.175894 0.988779 0.763152 0.087342
C42   C     C_R   0.821568 0.484360 0.233989 0.082135
C43   C     C_R   0.172159 0.849118 0.705655 -0.281967
C44   C     C_R   0.823350 0.340265 0.289353 -0.289326
C45   C     C_R   0.218817 0.849860 0.659136 0.347275
C46   C     C_R   0.778409 0.345056 0.337860 0.351781
C47   C     C_R   0.182267 0.273156 0.877429 0.310010
C48   C     C_R   0.818831 0.776775 0.123712 0.307346
C49   C     C_R   0.131970 0.124385 0.867189 -0.311473
C50   C     C_R   0.867525 0.624161 0.132229 -0.312424
C51   C     C_R   0.129441 0.983891 0.809846 -0.151303
C52   C     C_R   0.868182 0.479602 0.187526 -0.150799
H11   H     H_    0.314202 0.904767 0.576481 0.182575
H12   H     H_    0.677455 0.387759 0.413417 0.199957
H13   H     H_    0.369876 0.531266 0.812335 0.180650
H14   H     H_    0.639472 0.054489 0.198708 0.176428
H15   H     H_    0.287616 0.528333 0.887802 0.189890
H16   H     H_    0.719813 0.046708 0.120633 0.186800
H17   H     H_    0.090438 0.871034 0.800810 0.168120
H18   H     H_    0.905936 0.363659 0.195274 0.173613
H19   H     H_    0.133040 0.736755 0.697331 0.181997
H20   H     H_    0.861482 0.225363 0.296582 0.185116
O11   O     O_R   0.937800 0.775460 0.060470 -0.564212
O12   O     O_R   0.062200 0.275460 0.939530 -0.564990
O13   O     O_R   0.087350 0.441340 0.093710 -0.588762
O14   O     O_R   0.912650 0.941340 0.906290 -0.589461
C53   C     C_R   0.114121 0.610243 0.117177 1.002743
C54   C     C_R   0.886164 0.110934 0.882613 1.003926
O15   O     O_R   0.939820 0.446010 0.069950 -0.577245
O16   O     O_R   0.060180 0.946010 0.930050 -0.577923
O17   O     O_R   0.913690 0.271230 0.915700 -0.594956
O18   O     O_R   0.086310 0.771230 0.084300 -0.595180
C55   C     C_R   0.917983 0.614531 0.084133 0.983174
C56   C     C_R   0.081789 0.114583 0.915607 0.983545
O19   O     O_3   0.991670 0.603050 0.949510 -0.280932
O20   O     O_3   0.008330 0.103050 0.050490 -0.279020
V3    V     V_3+5 0.001550 0.329940 0.009370 1.244037
V4    V     V_3+5 0.998450 0.829940 0.990630 1.242956
N1    N     N_R   0.186991 0.416247 0.936479 0.233939
O21   O     O_R   0.165641 0.587066 0.914009 -0.415823
O22   O     O_R   0.214843 0.377062 0.012723 -0.389908
N2    N     N_R   0.814317 0.920822 0.064843 0.234111
O23   O     O_R   0.839131 0.088488 0.087361 -0.418115
O24   O     O_R   0.784386 0.884879 0.988663 -0.386052
N3    N     N_R   0.211521 0.702648 0.600833 0.228965
O25   O     O_R   0.267490 0.605305 0.599609 -0.414544
O26   O     O_R   0.147611 0.643596 0.558898 -0.385343
N4    N     N_R   0.786931 0.200923 0.398053 0.240044
O27   O     O_R   0.795005 0.247339 0.472266 -0.409027
O28   O     O_R   0.802077 0.029276 0.383056 -0.401261
S1    S     S_3+6 0.625868 0.700827 0.771343 0.038708
O29   O     O_2   0.552819 0.747060 0.713282 -0.210855
O30   O     O_2   0.635089 0.491413 0.781332 -0.240340
O31   O     O_3   0.634058 0.798747 0.861207 -0.478484
H21   H     H_    0.595715 0.739566 0.878653 0.386032
S2    S     S_3+6 0.379093 0.203359 0.233370 0.040587
O32   O     O_2   0.450492 0.278028 0.285548 -0.221952
O33   O     O_2   0.379502 0.992170 0.236987 -0.246120
O34   O     O_3   0.364815 0.273342 0.137668 -0.481790
H22   H     H_    0.404922 0.217064 0.122413 0.391319
N5    N     N_R   0.432304 0.419617 0.715236 0.235287
O35   O     O_R   0.498566 0.364342 0.748487 -0.328084
O36   O     O_R   0.418135 0.596720 0.698222 -0.338926
N6    N     N_R   0.575421 0.941633 0.292745 0.239532
O37   O     O_R   0.518824 0.933580 0.228748 -0.337097
O38   O     O_R   0.592109 0.099886 0.331396 -0.372374

loop_
_geom_bond_atom_site_label_1
_geom_bond_atom_site_label_2
_geom_bond_distance
_ccdc_geom_bond_type
C44   C46   1.405838 A    
C41   C43   1.400253 A    
N1    O21   1.300673 A    
C2    C23   1.492762 S    
C35   H15   1.082109 S    
C20   H10   1.111085 S    
O1    C3    1.316886 A    
O2    C4    1.318168 A    
C2    O7    1.295196 A    
N2    O24   1.299541 A    
N5    O35   1.298850 A    
C25   C27   1.410543 A    
O5    C3    1.319302 A    
C17   H7    1.111345 S    
C18   H8    1.111290 S    
C7    C9    1.414358 A    
C33   H13   1.081324 S    
C48   N2    1.433284 S    
C43   H19   1.084235 S    
C32   C46   1.420610 A    
C36   C38   1.404044 A    
O16   C56   1.321287 A    
C34   H14   1.082343 S    
O31   H21   0.990521 S    
C38   C40   1.415558 A    
C53   O18   1.314772 A    
C47   C49   1.417480 A    
N4    O27   1.301294 A    
N2    O23   1.300319 A    
C40   C42   1.407254 A    
N5    O36   1.300710 A    
C17   C19   1.525732 S    
S2    O32   1.501356 D    
C50   C55   1.491160 S    
C21   C31   1.413943 A    
C30   C32   1.417887 A    
C27   C29   1.415052 A    
C29   C39   1.419447 A    
C28   C30   1.413925 A    
N3    O25   1.300146 A    
C15   C17   1.487316 S    
C38   C48   1.413521 A    
C20   S2    1.787920 S    
O17   V3    2.004139 S    
C6    C8    1.402204 A    
C36   H16   1.082044 S    
S1    O31   1.682212 S    
O5    V1    2.011516 S    
O6    V2    2.006354 S    
C21   H11   1.080321 S    
N3    O26   1.301289 A    
C52   H18   1.084035 S    
C14   C53   1.484491 S    
C19   H9    1.110968 S    
C51   H17   1.084284 S    
C13   C54   1.482264 S    
O19   V3    2.181496 S    
C22   C24   1.406257 A    
S2    O33   1.501062 D    
C23   C25   1.411997 A    
C11   C13   1.412466 A    
C24   C26   1.414339 A    
C3    C8    1.487751 S    
C37   C39   1.415354 A    
O4    C2    1.296181 A    
C49   C51   1.406924 A    
C49   C56   1.491072 S    
C41   C51   1.404984 A    
C43   C45   1.405489 A    
C27   C33   1.406540 A    
C44   H20   1.084141 S    
C17   H5    1.110876 S    
C29   C31   1.419105 A    
S2    O34   1.682256 S    
C42   C44   1.401011 A    
O4    V2    2.022051 S    
O2    V1    2.003975 S    
C25   N5    1.429608 S    
O18   V4    2.001237 S    
O6    C4    1.318919 A    
C39   C41   1.407194 A    
O1    V2    2.001061 S    
C46   N4    1.438428 S    
O12   V3    1.996843 S    
C21   C23   1.406531 A    
O34   H22   0.990498 S    
O14   V4    2.006167 S    
O12   C56   1.315872 A    
C37   C47   1.413891 A    
C50   C52   1.407165 A    
C8    C10   1.413055 A    
C12   C14   1.413274 A    
O20   V4    2.186144 S    
C9    H1    1.081612 S    
C5    C15   1.387853 A    
C10   H2    1.081680 S    
C6    C16   1.388494 A    
O19   V4    1.754306 S    
O3    V1    2.021884 S    
O16   V4    2.021976 S    
C54   O17   1.314171 A    
S1    O29   1.499667 D    
C9    C11   1.415485 A    
N6    O38   1.300404 A    
C18   H6    1.110308 S    
O14   C54   1.322455 A    
O3    C1    1.293400 A    
C48   C50   1.417456 A    
C47   N1    1.433357 S    
C11   H3    1.081841 S    
C1    C24   1.492885 S    
C12   H4    1.081957 S    
O15   V3    2.021811 S    
C33   C35   1.389100 A    
O7    V1    2.010134 S    
C1    O8    1.297776 A    
C13   C15   1.392184 A    
O11   V4    1.996773 S    
C30   C40   1.418524 A    
C28   C34   1.406551 A    
C14   C16   1.395857 A    
O11   C55   1.315910 A    
C45   N3    1.438022 S    
N6    O37   1.299953 A    
C4    C7    1.488588 S    
C26   C28   1.409670 A    
C5    C7    1.402648 A    
C34   C36   1.389213 A    
C19   S1    1.783867 S    
C18   C20   1.527700 S    
C31   C45   1.421751 A    
N4    O28   1.301151 A    
C35   C37   1.403666 A    
C26   N6    1.429978 S    
O13   V3    2.011319 S    
C22   C32   1.413070 A    
O15   C55   1.320723 A    
N1    O22   1.299339 A    
O20   V3    1.751002 S    
C10   C12   1.414765 A    
O9    V2    1.755249 S    
O13   C53   1.322464 A    
C42   C52   1.404409 A    
O10   V1    1.751938 S    
O8    V2    2.010055 S    
C5    C19   1.490374 S    
C22   H12   1.080207 S    
C6    C20   1.489068 S    
C16   C18   1.490929 S    
S1    O30   1.500975 D    
