data_mof_unit_57578.cif
_audit_creation_date              2012-12-10T17:44:53-0500
_audit_creation_method            fapswitch 2.2
_symmetry_space_group_name_H-M    P1
_symmetry_Int_Tables_number       1
_space_group_crystal_system       triclinic
_cell_length_a                    15.124491
_cell_length_b                    13.665645
_cell_length_c                    19.355942
_cell_angle_alpha                 90.06655
_cell_angle_beta                  89.672965
_cell_angle_gamma                 89.304338
_cell_volume                      4000.23770151

loop_
_atom_site_label
_atom_site_type_symbol
_atom_type_description
_atom_site_fract_x
_atom_site_fract_y
_atom_site_fract_z
_atom_type_partial_charge
C1    C     C_R   0.328454 0.500826 0.497886 0.843258
C2    C     C_R   0.671546 0.499174 0.502114 0.843257
C3    C     C_R   0.816422 0.408024 0.510248 0.453430
C4    C     C_R   0.183577 0.591976 0.489751 0.453430
C5    C     C_R   0.909175 0.409032 0.504159 -0.049979
C6    C     C_R   0.090824 0.590968 0.495840 -0.049979
C7    C     C_R   0.953591 0.499366 0.502075 -0.031574
C8    C     C_R   0.046409 0.500634 0.497925 -0.031575
C9    C     C_R   0.905300 0.588413 0.504034 0.030222
C10   C     C_R   0.094700 0.411587 0.495966 0.030223
C11   C     C_R   0.957988 0.321220 0.499274 -0.297382
C12   C     C_R   0.042012 0.678780 0.500726 -0.297381
C13   C     C_R   0.050198 0.321756 0.496521 0.438896
C14   C     C_R   0.949802 0.678244 0.503479 0.438896
C15   C     C_R   0.445528 0.793984 0.544493 0.034270
C16   C     C_R   0.554472 0.206016 0.455506 0.034271
C17   C     C_R   0.554160 0.792415 0.455277 -0.011764
C18   C     C_R   0.445839 0.207586 0.544722 -0.011763
C19   C     C_R   0.555307 0.895515 0.454092 -0.002236
C20   C     C_R   0.444693 0.104485 0.545908 -0.002236
C21   C     C_R   0.444328 0.897132 0.545654 -0.007999
C22   C     C_R   0.555672 0.102868 0.454346 -0.007999
C23   C     C_R   0.499917 0.948146 0.499943 0.088304
C24   C     C_R   0.500083 0.051854 0.500057 0.088303
C25   C     C_R   0.610315 0.946983 0.408419 -0.221676
C26   C     C_R   0.389684 0.053017 0.591580 -0.221675
C27   C     C_R   0.389296 0.950224 0.591316 -0.193434
C28   C     C_R   0.610703 0.049776 0.408683 -0.193434
C29   C     C_R   0.500120 0.499968 0.367299 0.813330
C30   C     C_R   0.499880 0.500032 0.632701 0.813330
C31   C     C_R   0.496384 0.588314 0.254950 -0.269450
C32   C     C_R   0.503616 0.411686 0.745050 -0.269450
C33   C     C_R   0.491109 0.588360 0.745080 -0.250105
C34   C     C_R   0.508888 0.411639 0.254920 -0.250104
C35   C     C_R   0.499169 0.589309 0.182713 0.232120
C36   C     C_R   0.500831 0.410691 0.817287 0.232120
C37   C     C_R   0.487807 0.589152 0.817295 0.217654
C38   C     C_R   0.512190 0.410847 0.182705 0.217654
C39   C     C_R   0.506044 0.499946 0.145955 -0.010374
C40   C     C_R   0.493955 0.500054 0.854045 -0.010373
C41   C     C_R   0.501416 0.499941 0.291363 -0.099979
C42   C     C_R   0.498584 0.500058 0.708637 -0.099978
C43   C     C_R   0.497172 0.500350 0.930100 0.439663
C44   C     C_R   0.502826 0.499650 0.069899 0.439663
C45   C     C_R   0.813227 0.586240 0.504888 -0.301602
C46   C     C_R   0.186773 0.413760 0.495113 -0.301602
C47   C     C_R   0.768428 0.497207 0.505819 -0.184051
C48   C     C_R   0.231572 0.502793 0.494181 -0.184051
Cu1   Cu    Cu3+1 0.500000 0.597420 0.500000 0.941943
Cu2   Cu    Cu3+1 0.500000 0.402580 0.500000 0.941943
H1    H     H_    0.491140 0.657202 0.282552 0.158970
H2    H     H_    0.508862 0.342799 0.717448 0.158970
H3    H     H_    0.487393 0.657335 0.717618 0.161465
H4    H     H_    0.512603 0.342664 0.282381 0.161465
H5    H     H_    0.775972 0.654446 0.503852 0.215235
H6    H     H_    0.224028 0.345554 0.496149 0.215235
H7    H     H_    0.925064 0.251359 0.497258 0.182688
H8    H     H_    0.074936 0.748641 0.502742 0.182688
H9    H     H_    0.403105 0.753492 0.579139 0.141083
H10   H     H_    0.596895 0.246508 0.420861 0.141083
H11   H     H_    0.596481 0.750725 0.420524 0.130970
H12   H     H_    0.403518 0.249275 0.579476 0.130970
H13   H     H_    0.653245 0.907746 0.372661 0.137297
H14   H     H_    0.346754 0.092254 0.627339 0.137297
H15   H     H_    0.346071 0.912293 0.626872 0.139582
H16   H     H_    0.653929 0.087707 0.373128 0.139581
N1    N     N_R   0.557935 0.440907 0.032511 -0.218820
N2    N     N_R   0.442063 0.559093 0.967489 -0.218819
N3    N     N_R   0.555152 0.441200 0.963866 -0.206615
N4    N     N_R   0.444846 0.558801 0.036134 -0.206616
N5    N     N_R   0.500000 0.743810 0.500000 -0.190727
N6    N     N_R   0.500000 0.256190 0.500000 -0.190727
O1    O     O_R   0.370260 0.582280 0.500020 -0.531164
O2    O     O_R   0.629740 0.417720 0.499980 -0.531164
O3    O     O_R   0.629740 0.582280 0.499980 -0.597186
O4    O     O_R   0.370260 0.417720 0.500020 -0.597186
O5    O     O_R   0.499990 0.582300 0.400140 -0.597271
O6    O     O_R   0.500010 0.417700 0.599860 -0.597271
O7    O     O_R   0.500010 0.582300 0.599860 -0.588046
O8    O     O_R   0.499990 0.417700 0.400140 -0.588045
N7    N     N_2   0.495771 0.680696 0.147456 -0.411495
H17   H     H_    0.460442 0.734458 0.173446 0.248800
C49   C     C_3   0.580885 0.714993 0.123913 -0.664877
H18   H     H_    0.624321 0.729613 0.168804 0.211164
H19   H     H_    0.571742 0.783864 0.094282 0.229513
H20   H     H_    0.613359 0.660163 0.089465 0.237071
N8    N     N_2   0.504229 0.319304 0.852544 -0.411495
H21   H     H_    0.539559 0.265543 0.826554 0.248800
C50   C     C_3   0.419116 0.285006 0.876087 -0.664880
H22   H     H_    0.375681 0.270386 0.831195 0.211165
H23   H     H_    0.386641 0.339836 0.910535 0.237071
H24   H     H_    0.428259 0.216136 0.905718 0.229514
N9    N     N_2   0.482767 0.680294 0.852715 -0.417097
H25   H     H_    0.529326 0.729379 0.835645 0.249306
C51   C     C_3   0.395039 0.723669 0.854473 -0.645773
H26   H     H_    0.374072 0.744995 0.801579 0.203811
H27   H     H_    0.395321 0.790089 0.887552 0.228412
H28   H     H_    0.346672 0.671465 0.876435 0.247507
N10   N     N_2   0.517228 0.319705 0.147284 -0.417097
H29   H     H_    0.470667 0.270621 0.164355 0.249305
C52   C     C_3   0.604954 0.276327 0.145527 -0.645771
H30   H     H_    0.625920 0.255001 0.198421 0.203811
H31   H     H_    0.653323 0.328529 0.123564 0.247507
H32   H     H_    0.604671 0.209907 0.112447 0.228411
O9    O     O_3   0.772321 0.319903 0.516507 -0.580345
C53   C     C_3   0.781151 0.282636 0.584605 0.036760
H33   H     H_    0.839959 0.309968 0.613026 0.122181
H34   H     H_    0.789416 0.201931 0.580934 0.162736
C54   C     C_3   0.698150 0.304405 0.627181 -0.749865
H35   H     H_    0.639354 0.273735 0.601258 0.269133
H36   H     H_    0.704394 0.270432 0.679031 0.187095
H37   H     H_    0.689146 0.384604 0.633853 0.229674
O10   O     O_3   0.227679 0.680096 0.483493 -0.580346
C55   C     C_3   0.218849 0.717363 0.415395 0.036760
H38   H     H_    0.210584 0.798068 0.419065 0.162736
H39   H     H_    0.160042 0.690031 0.386973 0.122181
C56   C     C_3   0.301850 0.695594 0.372819 -0.749862
H40   H     H_    0.310852 0.615395 0.366145 0.229671
H41   H     H_    0.295607 0.729569 0.320969 0.187094
H42   H     H_    0.360646 0.726261 0.398743 0.269136
O11   O     O_3   0.096370 0.234416 0.488650 -0.577100
C57   C     C_3   0.103547 0.188628 0.553725 0.034468
H43   H     H_    0.037223 0.168846 0.574351 0.139628
H44   H     H_    0.137348 0.237052 0.591432 0.134964
C58   C     C_3   0.158359 0.095193 0.545859 -0.763657
H45   H     H_    0.224459 0.112498 0.524141 0.253822
H46   H     H_    0.166923 0.059716 0.597012 0.195125
H47   H     H_    0.124650 0.043603 0.510620 0.250090
O12   O     O_3   0.903630 0.765584 0.511351 -0.577100
C59   C     C_3   0.896452 0.811371 0.446275 0.034469
H48   H     H_    0.862651 0.762946 0.408568 0.134963
H49   H     H_    0.962775 0.831153 0.425648 0.139628
C60   C     C_3   0.841638 0.904806 0.454141 -0.763655
H50   H     H_    0.875347 0.956397 0.489380 0.250089
H51   H     H_    0.833074 0.940282 0.402988 0.195124
H52   H     H_    0.775539 0.887501 0.475860 0.253822

loop_
_geom_bond_atom_site_label_1
_geom_bond_atom_site_label_2
_ccdc_geom_bond_type
N8    H21   S    
C9    C45   A    
C52   H30   S    
C59   H49   S    
C51   H26   S    
C16   N6    A    
N7    H17   S    
C35   N7    S    
C51   H28   S    
C7    C8    A    
C3    O9    S    
C25   C28   A    
C26   C27   A    
N9    H25   S    
C20   C26   A    
C33   C42   A    
C32   C36   A    
C5    C11   A    
C37   C40   A    
Cu2   O2    S    
C25   H13   S    
C38   C39   A    
C53   H33   S    
C16   H10   S    
C26   H14   S    
C28   H16   S    
C32   H2    S    
Cu2   N6    S    
C54   H36   S    
C17   H11   S    
C40   C43   S    
C20   C24   A    
C43   N2    A    
C10   C46   A    
C58   H47   S    
C23   C24   A    
Cu1   O3    S    
C44   N4    A    
C50   H23   S    
C18   C20   A    
C2    O2    A    
C12   H8    S    
C21   C27   A    
C53   C54   S    
C52   H31   S    
C22   C28   A    
C18   N6    A    
C34   C41   A    
Cu2   O6    S    
N7    C49   S    
C55   H38   S    
C45   C47   A    
C36   N8    S    
C33   H3    S    
N9    C51   S    
C46   C48   A    
C4    O10   S    
C36   C40   A    
C4    C6    A    
C56   H42   S    
C5    C7    A    
C18   H12   S    
C6    C8    A    
C33   C37   A    
Cu1   O7    S    
N1    N3    A    
C19   C23   A    
C9    C14   A    
C27   H15   S    
Cu2   O4    S    
C60   H52   S    
C13   O11   S    
C49   H18   S    
C37   N9    S    
C50   H24   S    
O11   C57   S    
C30   O7    A    
C8    C10   A    
C49   H19   S    
C12   C14   A    
C34   H4    S    
C52   H32   S    
C21   C23   A    
C58   H45   S    
C22   C24   A    
C54   H37   S    
C59   C60   S    
C57   H44   S    
C50   H22   S    
C60   H51   S    
O10   C55   S    
C4    C48   A    
C7    C9    A    
C16   C22   A    
C31   C41   A    
C29   C41   S    
C34   C38   A    
C1    O4    A    
C15   H9    S    
C43   N3    A    
C31   H1    S    
C38   N10   S    
C3    C5    A    
C10   C13   A    
Cu2   O8    S    
C55   H39   S    
C51   H27   S    
C1    C48   S    
C17   N5    A    
C39   C44   S    
C2    C47   S    
C15   N5    A    
O9    C53   S    
C46   H6    S    
N10   H29   S    
C1    O1    A    
C57   C58   S    
C56   H41   S    
C59   H48   S    
O12   C59   S    
C56   H40   S    
C6    C12   A    
C11   C13   A    
C60   H50   S    
C29   O8    A    
C53   H34   S    
C35   C39   A    
C31   C35   A    
C3    C47   A    
C17   C19   A    
Cu1   O5    S    
Cu1   O1    S    
C19   C25   A    
C55   C56   S    
C30   O6    A    
C15   C21   A    
C49   H20   S    
C29   O5    A    
C45   H5    S    
N2    N4    A    
Cu1   Cu2   S    
Cu1   N5    S    
C54   H35   S    
C58   H46   S    
N8    C50   S    
C32   C42   A    
C30   C42   S    
C44   N1    A    
C57   H43   S    
C11   H7    S    
N10   C52   S    
C2    O3    A    
C14   O12   S    
