data_mof_unit_33771.cif
_audit_creation_date              2012-12-10T19:13:41-0500
_audit_creation_method            fapswitch 2.2
_symmetry_space_group_name_H-M    P1
_symmetry_Int_Tables_number       1
_space_group_crystal_system       triclinic
_cell_length_a                    10.724232
_cell_length_b                    15.98052
_cell_length_c                    14.740673
_cell_angle_alpha                 90.155463
_cell_angle_beta                  100.602966
_cell_angle_gamma                 90.28687
_cell_volume                      2483.05736401

loop_
_atom_site_label
_atom_site_type_symbol
_atom_type_description
_atom_site_fract_x
_atom_site_fract_y
_atom_site_fract_z
_atom_type_partial_charge
C1    C     C_R   0.500058 0.340867 0.499855 0.811005
C2    C     C_R   0.499050 0.659100 0.500052 0.857262
C3    C     C_R   0.568117 0.559987 0.960552 0.303086
C4    C     C_R   0.430252 0.437525 0.038649 0.319947
C5    C     C_R   0.500163 0.498195 0.902828 -0.270598
C6    C     C_R   0.498161 0.500051 0.096668 -0.274955
C7    C     C_R   0.437822 0.434128 0.943053 0.318862
C8    C     C_R   0.567690 0.560778 0.056988 0.307768
C9    C     C_1   0.499882 0.498791 0.802625 0.269954
C10   C     C_1   0.500412 0.500132 0.197314 0.273259
C11   C     C_R   0.259873 0.502250 0.464487 0.802494
C12   C     C_R   0.739872 0.500936 0.535667 0.789570
C13   C     C_2   0.120479 0.513170 0.450338 0.208166
C14   C     C_2   0.880432 0.506043 0.551796 0.195759
C15   C     C_2   0.073401 0.564786 0.508846 0.300255
C16   C     C_2   0.933198 0.566488 0.506533 0.318634
C17   C     C_R   0.485706 0.956183 0.580986 0.334425
C18   C     C_R   0.494931 0.043420 0.416285 0.333724
C19   C     C_R   0.487210 0.912421 0.498257 -0.224796
C20   C     C_R   0.496088 0.087243 0.499395 -0.226004
C21   C     C_R   0.489409 0.955717 0.415405 0.320545
C22   C     C_R   0.491512 0.043947 0.581949 0.319528
C23   C     C_1   0.490581 0.822850 0.499305 0.074494
C24   C     C_1   0.497987 0.176892 0.499163 0.082397
C25   C     C_1   0.499148 0.251898 0.499368 -0.186233
C26   C     C_1   0.494643 0.747942 0.499897 -0.198875
Cu1   Cu    Cu3+1 0.500030 0.500000 0.589230 0.976894
Cu2   Cu    Cu3+1 0.499970 0.500000 0.410770 0.998493
N1    N     N_1   0.500040 0.499980 0.276720 -0.161765
N2    N     N_1   0.499960 0.500020 0.723280 -0.169317
O1    O     O_R   0.500060 0.380310 0.575330 -0.575057
O2    O     O_R   0.499940 0.619690 0.424670 -0.564376
O3    O     O_R   0.500000 0.380310 0.424640 -0.562447
O4    O     O_R   0.500000 0.619690 0.575360 -0.567477
O5    O     O_R   0.320710 0.500010 0.547660 -0.541104
O6    O     O_R   0.679290 0.499990 0.452340 -0.524928
O7    O     O_R   0.320650 0.500010 0.396960 -0.608944
O8    O     O_R   0.679350 0.499990 0.603040 -0.597473
O9    O     O_3   0.853634 0.622561 0.451073 -0.604529
C27   C     C_3   0.913344 0.700209 0.442184 0.042501
H1    H     H_    0.988978 0.693503 0.400364 0.147861
H2    H     H_    0.953953 0.727233 0.511015 0.163533
C28   C     C_3   0.815045 0.761040 0.393039 -0.749233
H3    H     H_    0.741912 0.772965 0.435837 0.248142
H4    H     H_    0.861441 0.821254 0.381084 0.202658
H5    H     H_    0.768241 0.734464 0.325623 0.259054
O10   O     O_3   0.154101 0.622541 0.561426 -0.624319
C29   C     C_3   0.132348 0.625150 0.652991 0.066260
H6    H     H_    0.136991 0.561323 0.683618 0.181602
H7    H     H_    0.038818 0.653754 0.655969 0.125966
C30   C     C_3   0.235157 0.678364 0.711228 -0.762410
H8    H     H_    0.233332 0.742882 0.683179 0.262004
H9    H     H_    0.219197 0.681184 0.783501 0.185193
H10   H     H_    0.329786 0.650627 0.710827 0.262483
O11   O     O_3   0.961492 0.451900 0.609469 -0.660996
C31   C     C_3   0.899883 0.385033 0.646366 0.093099
H11   H     H_    0.964036 0.330331 0.651782 0.154643
H12   H     H_    0.811429 0.363009 0.600663 0.122114
C32   C     C_3   0.879225 0.407224 0.743848 -0.364945
H13   H     H_    0.972188 0.407766 0.791833 0.199242
H14   H     H_    0.838858 0.470906 0.745119 0.237820
C33   C     C_3   0.790297 0.344716 0.777961 -0.899210
H15   H     H_    0.694439 0.347376 0.734034 0.282199
H16   H     H_    0.781869 0.360303 0.850030 0.250831
H17   H     H_    0.827601 0.280176 0.776192 0.248214
O12   O     O_3   0.038204 0.458556 0.394575 -0.625357
C34   C     C_3   0.046321 0.467261 0.300363 0.040300
H18   H     H_    0.983303 0.418628 0.261897 0.179877
H19   H     H_    0.142585 0.453521 0.287187 0.157241
C35   C     C_3   0.999789 0.553141 0.261738 -0.337917
H20   H     H_    0.903829 0.565295 0.277110 0.273455
H21   H     H_    0.065747 0.602912 0.294497 0.187503
C36   C     C_3   0.993627 0.557179 0.157769 -0.924350
H22   H     H_    0.089414 0.548162 0.141011 0.235432
H23   H     H_    0.958376 0.619601 0.132295 0.260323
H24   H     H_    0.928248 0.508196 0.122415 0.257305
O13   O     O_3   0.482052 0.086487 0.662420 -0.532015
C37   C     C_3   0.603252 0.116404 0.704877 0.076784
H25   H     H_    0.629113 0.173451 0.669521 0.151794
H26   H     H_    0.678908 0.068848 0.704752 0.102717
C38   C     C_3   0.600145 0.139707 0.804554 -0.757418
H27   H     H_    0.573655 0.084193 0.842188 0.245539
H28   H     H_    0.695148 0.162354 0.839124 0.198350
H29   H     H_    0.529839 0.190116 0.806888 0.266064
O14   O     O_3   0.491443 0.913555 0.333298 -0.540798
C39   C     C_3   0.370007 0.878879 0.298719 0.097494
H30   H     H_    0.290631 0.915713 0.318153 0.106780
H31   H     H_    0.364450 0.814046 0.324602 0.155640
C40   C     C_3   0.349329 0.874934 0.193897 -0.819842
H32   H     H_    0.418557 0.831714 0.171706 0.238907
H33   H     H_    0.252109 0.851464 0.166169 0.197155
H34   H     H_    0.360837 0.938116 0.165294 0.257418
O15   O     O_3   0.464838 0.913619 0.658596 -0.530519
C41   C     C_3   0.581786 0.887174 0.710898 0.070396
H35   H     H_    0.625112 0.938852 0.756680 0.153518
H36   H     H_    0.650728 0.866278 0.667367 0.119299
C42   C     C_3   0.557747 0.813992 0.771360 -0.739116
H37   H     H_    0.519453 0.759737 0.727533 0.255984
H38   H     H_    0.647841 0.795474 0.816483 0.211793
H39   H     H_    0.488651 0.832055 0.815476 0.250180
O16   O     O_3   0.509341 0.085567 0.336877 -0.527106
C43   C     C_3   0.388853 0.109801 0.288508 0.087762
H40   H     H_    0.347660 0.159448 0.326875 0.138368
H41   H     H_    0.321613 0.055999 0.276536 0.132423
C44   C     C_3   0.402956 0.144390 0.194855 -0.732742
H42   H     H_    0.448406 0.097162 0.156288 0.249485
H43   H     H_    0.308160 0.159533 0.154068 0.192885
H44   H     H_    0.462195 0.202092 0.203924 0.270056
O17   O     O_3   0.649519 0.613675 0.114331 -0.594325
C45   C     C_3   0.601947 0.696214 0.109725 0.107769
H45   H     H_    0.562052 0.708013 0.173008 0.146115
H46   H     H_    0.525648 0.708584 0.048701 0.133454
C46   C     C_3   0.711813 0.757089 0.107141 -0.338545
H47   H     H_    0.792224 0.742303 0.163795 0.219389
H48   H     H_    0.745180 0.749654 0.040571 0.238690
C47   C     C_3   0.672513 0.847753 0.117199 -0.914696
H49   H     H_    0.590204 0.863653 0.062555 0.257122
H50   H     H_    0.752812 0.890011 0.110564 0.257347
H51   H     H_    0.647380 0.857942 0.186183 0.292092
O18   O     O_3   0.408955 0.360530 0.893650 -0.585851
C48   C     C_3   0.276923 0.350144 0.864085 0.107351
H52   H     H_    0.253035 0.364716 0.789213 0.147632
H53   H     H_    0.218001 0.391493 0.899680 0.110270
C49   C     C_3   0.243901 0.258478 0.878610 -0.281454
H54   H     H_    0.293213 0.217902 0.835167 0.225964
H55   H     H_    0.278103 0.241332 0.951908 0.247920
C50   C     C_3   0.101682 0.241833 0.854063 -0.971896
H56   H     H_    0.049930 0.282443 0.895737 0.263313
H57   H     H_    0.081821 0.175461 0.868671 0.261537
H58   H     H_    0.067392 0.253522 0.779610 0.260655
O19   O     O_3   0.636265 0.620167 0.922733 -0.570312
C51   C     C_3   0.757791 0.588156 0.918916 0.100027
H59   H     H_    0.753056 0.524438 0.887466 0.134754
H60   H     H_    0.815745 0.585488 0.989370 0.169928
C52   C     C_3   0.824024 0.645549 0.860425 -0.852829
H61   H     H_    0.835947 0.709004 0.891781 0.240129
H62   H     H_    0.919061 0.620189 0.856268 0.196014
H63   H     H_    0.767224 0.649845 0.789529 0.258115
O20   O     O_3   0.368827 0.373301 0.076153 -0.548085
C53   C     C_3   0.253706 0.403518 0.097731 0.069948
H64   H     H_    0.195539 0.436733 0.038533 0.108859
H65   H     H_    0.271397 0.447105 0.157401 0.138592
C54   C     C_3   0.176144 0.330608 0.124075 -0.811581
H66   H     H_    0.227026 0.301101 0.188366 0.247176
H67   H     H_    0.082922 0.353426 0.136033 0.195439
H68   H     H_    0.159432 0.283299 0.067946 0.250978

loop_
_geom_bond_atom_site_label_1
_geom_bond_atom_site_label_2
_ccdc_geom_bond_type
C52   H63   S    
O11   C31   S    
O15   C41   S    
C54   H68   S    
C18   C21   A    
C36   H22   S    
C10   N1    T    
C53   C54   S    
C15   O10   S    
C38   H29   S    
C42   H37   S    
C1    O3    A    
C52   H61   S    
O13   C37   S    
C31   H11   S    
O19   C51   S    
C44   H43   S    
O16   C43   S    
C3    O19   S    
Cu2   N1    S    
C19   C21   A    
C53   H65   S    
C37   H26   S    
Cu1   O8    S    
C15   C16   S    
C54   H67   S    
C1    O1    A    
C47   H49   S    
C43   C44   S    
C2    O2    A    
C23   C26   T    
C11   O7    A    
C45   H45   S    
C48   C49   S    
C33   H16   S    
C38   H28   S    
C27   C28   S    
C20   C24   S    
C31   H12   S    
C51   H59   S    
C35   H20   S    
C40   H33   S    
C18   C20   A    
C41   H36   S    
C46   C47   S    
C2    O4    A    
C29   H7    S    
C14   O11   S    
C32   H13   S    
Cu1   N2    S    
C1    C25   S    
C36   H23   S    
C43   H40   S    
C4    C7    A    
C42   H38   S    
C38   H27   S    
C13   O12   S    
C29   C30   S    
Cu1   O4    S    
C44   H44   S    
C21   O14   S    
C32   H14   S    
Cu1   O1    S    
C30   H8    S    
Cu2   O2    S    
C24   C25   T    
C4    C6    A    
C3    C8    A    
O9    C27   S    
C5    C7    A    
C39   H30   S    
C6    C8    A    
C41   C42   S    
Cu1   O5    S    
O14   C39   S    
C34   H18   S    
C30   H9    S    
C18   O16   S    
C19   C23   S    
C28   H3    S    
C50   H57   S    
C5    C9    S    
C33   H15   S    
O10   C29   S    
C35   C36   S    
C2    C26   S    
C53   H64   S    
C40   H34   S    
C43   H41   S    
C28   H4    S    
C45   C46   S    
C48   H52   S    
C9    N2    T    
C49   C50   S    
C29   H6    S    
C12   C14   S    
Cu2   O3    S    
C13   C15   D    
C36   H24   S    
C14   C16   D    
C12   O6    A    
C50   H56   S    
C42   H39   S    
O18   C48   S    
C49   H55   S    
C46   H47   S    
C52   H62   S    
C27   H1    S    
C32   C33   S    
C33   H17   S    
C37   H25   S    
C7    O18   S    
C22   O13   S    
C20   C22   A    
C3    C5    A    
C39   C40   S    
C6    C10   S    
O20   C53   S    
C31   C32   S    
C44   H42   S    
C17   C22   A    
C47   H51   S    
C30   H10   S    
C34   C35   S    
C11   O5    A    
C50   H58   S    
C8    O17   S    
C4    O20   S    
C11   C13   S    
C37   C38   S    
Cu2   O7    S    
C51   C52   S    
C27   H2    S    
C17   C19   A    
C47   H50   S    
O12   C34   S    
C39   H31   S    
C12   O8    A    
C41   H35   S    
C28   H5    S    
C45   H46   S    
C48   H53   S    
C16   O9    S    
C17   O15   S    
Cu2   O6    S    
C51   H60   S    
Cu1   Cu2   S    
C35   H21   S    
C34   H19   S    
C40   H32   S    
O17   C45   S    
C54   H66   S    
C49   H54   S    
C46   H48   S    
