data_mof_unit_27219.cif
_audit_creation_date              2012-12-10T18:22:30-0500
_audit_creation_method            fapswitch 2.2
_symmetry_space_group_name_H-M    P1
_symmetry_Int_Tables_number       1
_space_group_crystal_system       triclinic
_cell_length_a                    23.471736
_cell_length_b                    10.87451
_cell_length_c                    9.624365
_cell_angle_alpha                 88.296582
_cell_angle_beta                  88.018074
_cell_angle_gamma                 87.806938
_cell_volume                      2452.29770922

loop_
_atom_site_label
_atom_site_type_symbol
_atom_type_description
_atom_site_fract_x
_atom_site_fract_y
_atom_site_fract_z
_atom_type_partial_charge
C1    C     C_R   0.500994 0.259667 0.500901 0.867465
C2    C     C_R   0.499083 0.740100 0.498742 0.821700
C3    C     C_R   0.238696 0.620583 0.472930 -0.152538
C4    C     C_R   0.767314 0.446337 0.425180 -0.139755
C5    C     C_R   0.298322 0.620772 0.468670 0.070364
C6    C     C_R   0.708848 0.425673 0.428269 0.096434
C7    C     C_R   0.329113 0.514733 0.515432 -0.062753
C8    C     C_R   0.671189 0.508526 0.498780 -0.067773
C9    C     C_R   0.300603 0.425653 0.596438 -0.283061
C10   C     C_R   0.693739 0.594837 0.585221 -0.185915
C11   C     C_R   0.241179 0.432608 0.616682 0.182227
C12   C     C_R   0.752675 0.601694 0.600986 0.156139
C13   C     C_R   0.209488 0.526385 0.544236 0.309151
C14   C     C_R   0.790121 0.529880 0.514475 0.304644
C15   C     C_3   0.522022 0.034363 0.618374 -0.229434
C16   C     C_3   0.478091 0.964612 0.378496 -0.238876
C17   C     C_3   0.552957 0.952027 0.508748 0.030090
C18   C     C_3   0.447201 0.047098 0.487875 0.006795
C19   C     C_3   0.498914 0.877334 0.497609 -0.109450
C20   C     C_3   0.501100 0.121944 0.499810 -0.122011
C21   C     C_3   0.467548 0.959506 0.606032 0.096957
C22   C     C_3   0.532589 0.039688 0.390642 0.144849
C23   C     C_R   0.391558 0.504613 0.503153 0.836318
C24   C     C_R   0.608634 0.500268 0.498618 0.817548
C25   C     C_3   0.487013 0.607973 0.046058 0.016160
C26   C     C_3   0.512709 0.391736 0.952894 0.008810
C27   C     C_3   0.450271 0.533944 0.952427 0.102756
C28   C     C_3   0.549405 0.465870 0.046403 0.125808
C29   C     C_3   0.536616 0.573526 0.944651 0.011817
C30   C     C_3   0.463156 0.425333 0.054935 -0.033079
C31   C     C_R   0.879453 0.636038 0.501418 0.549278
C32   C     C_R   0.121349 0.429962 0.496559 0.546536
C33   C     C_R   0.880751 0.422632 0.555585 0.523246
C34   C     C_R   0.117083 0.630784 0.588113 0.521658
C35   C     C_R   0.941407 0.416212 0.541628 -0.032967
C36   C     C_R   0.056820 0.639550 0.573983 -0.032338
C37   C     C_R   0.969649 0.528732 0.537959 -0.051296
C38   C     C_R   0.029508 0.529914 0.542879 -0.048937
C39   C     C_R   0.937657 0.640277 0.532864 -0.101052
C40   C     C_R   0.061970 0.420933 0.516190 -0.103487
C41   C     C_R   0.974570 0.304059 0.534389 0.048482
C42   C     C_R   0.022623 0.750197 0.593212 0.044997
C43   C     C_R   0.034533 0.307373 0.511820 -0.009342
C44   C     C_R   0.963301 0.749959 0.567074 0.003455
Cu1   Cu    Cu3+1 0.500010 0.499990 0.643150 0.973802
Cu2   Cu    Cu3+1 0.499990 0.500010 0.356850 0.986045
H1    H     H_    0.214750 0.697854 0.427241 0.168208
H2    H     H_    0.796140 0.387234 0.364377 0.155736
H3    H     H_    0.325251 0.352435 0.647932 0.175169
H4    H     H_    0.664806 0.653209 0.646180 0.195303
H5    H     H_    0.543177 0.059461 0.712952 0.212066
H6    H     H_    0.456873 0.938174 0.283638 0.188077
N1    N     N_R   0.851317 0.530247 0.525349 -0.451139
N2    N     N_R   0.147890 0.528827 0.544354 -0.451155
N3    N     N_3   0.500040 0.499970 0.858290 -0.258899
N4    N     N_3   0.499960 0.500030 0.141710 -0.256255
O1    O     O_R   0.500030 0.316850 0.620870 -0.558043
O2    O     O_R   0.499970 0.683150 0.379130 -0.549501
O3    O     O_R   0.500000 0.316860 0.379090 -0.553266
O4    O     O_R   0.500000 0.683140 0.620910 -0.575078
O5    O     O_R   0.417890 0.499960 0.620920 -0.626309
O6    O     O_R   0.582110 0.500040 0.379080 -0.600073
O7    O     O_R   0.417870 0.499970 0.379140 -0.562418
O8    O     O_R   0.582130 0.500030 0.620860 -0.564584
O9    O     O_2   0.851438 0.734807 0.445201 -0.510131
O10   O     O_2   0.152519 0.342013 0.429099 -0.518314
O11   O     O_2   0.850886 0.324996 0.600367 -0.567151
O12   O     O_2   0.145154 0.720919 0.645832 -0.560024
C45   C     C_3   0.947033 0.181432 0.556888 -0.342925
C46   C     C_3   0.936301 0.155178 0.713030 -0.671054
H7    H     H_    0.927409 0.241054 0.770963 0.257835
H8    H     H_    0.898708 0.097607 0.730136 0.275819
H9    H     H_    0.974304 0.107291 0.757988 0.236063
H10   H     H_    0.907932 0.178806 0.496334 0.243608
H11   H     H_    0.973038 0.105159 0.512230 0.208460
C47   C     C_3   0.047883 0.869494 0.636782 -0.316927
C48   C     C_3   0.053621 0.872532 0.794430 -0.680901
H12   H     H_    0.077869 0.790369 0.834892 0.270825
H13   H     H_    0.075994 0.956332 0.821230 0.256205
H14   H     H_    0.010760 0.875395 0.846949 0.251344
H15   H     H_    0.088614 0.887508 0.579826 0.249916
H16   H     H_    0.020867 0.949751 0.605681 0.178595
C49   C     C_3   0.391728 0.567040 0.891301 -0.289827
C50   C     C_3   0.345446 0.612866 0.994027 -0.801690
H17   H     H_    0.349945 0.568286 0.097887 0.285482
H18   H     H_    0.345859 0.714191 0.000903 0.277946
H19   H     H_    0.302971 0.591467 0.955734 0.241884
H20   H     H_    0.396996 0.639156 0.808437 0.213620
H21   H     H_    0.376107 0.482127 0.846845 0.232484
C51   C     C_3   0.608363 0.430374 0.102242 -0.342594
C52   C     C_3   0.651356 0.377274 0.994813 -0.769369
H22   H     H_    0.648350 0.275764 0.992699 0.257385
H23   H     H_    0.644801 0.417533 0.889087 0.302022
H24   H     H_    0.695297 0.396438 0.025075 0.230022
H25   H     H_    0.626350 0.513679 0.145055 0.255271
H26   H     H_    0.602545 0.360583 0.186197 0.197930
C53   C     C_2   0.479493 0.739436 0.085974 0.861845
O13   O     O_2   0.434468 0.796124 0.067862 -0.670589
O14   O     O_R   0.526954 0.801480 0.123977 -0.751691
H27   H     H_    0.520676 0.893660 0.111422 0.329410
C54   C     C_2   0.529738 0.266073 0.902354 0.853931
O15   O     O_2   0.571432 0.252247 0.824225 -0.599208
O16   O     O_R   0.499046 0.164765 0.948994 -0.798212
H28   H     H_    0.519388 0.083044 0.929787 0.321357
C55   C     C_2   0.578709 0.664181 0.886018 0.907428
O17   O     O_2   0.629703 0.646278 0.902861 -0.629158
O18   O     O_R   0.558959 0.774344 0.824037 -0.780931
H29   H     H_    0.590583 0.833664 0.804336 0.342885
C56   C     C_2   0.421343 0.333458 0.112979 0.955570
O19   O     O_2   0.370477 0.348374 0.092569 -0.619697
O20   O     O_R   0.441153 0.225887 0.180293 -0.720733
H30   H     H_    0.410340 0.163664 0.195211 0.337748
C57   C     C_2   0.068766 0.190471 0.499782 0.888016
O21   O     O_2   0.097177 0.152012 0.597031 -0.613453
O22   O     O_R   0.068368 0.125197 0.376920 -0.744063
H31   H     H_    0.093600 0.047491 0.380527 0.331979
C58   C     C_2   0.925200 0.856304 0.602654 0.845650
O23   O     O_2   0.909245 0.869831 0.723616 -0.624818
O24   O     O_R   0.903458 0.933082 0.496766 -0.725004
H32   H     H_    0.869918 0.986913 0.530599 0.335659
C59   C     C_3   0.326525 0.742134 0.442233 -0.395227
C60   C     C_3   0.338603 0.767059 0.289057 -0.734529
H33   H     H_    0.373066 0.701887 0.254410 0.271446
H34   H     H_    0.299567 0.756597 0.229145 0.246865
H35   H     H_    0.353464 0.862048 0.271633 0.280965
H36   H     H_    0.298248 0.817668 0.483868 0.261315
H37   H     H_    0.367017 0.744712 0.498165 0.176706
C61   C     C_3   0.690200 0.303475 0.379462 -0.460381
C62   C     C_3   0.715514 0.198237 0.469844 -0.701673
H38   H     H_    0.762672 0.191416 0.456028 0.258278
H39   H     H_    0.703974 0.212656 0.581305 0.278757
H40   H     H_    0.698568 0.109684 0.440510 0.247799
H41   H     H_    0.643484 0.297827 0.389467 0.191852
H42   H     H_    0.703752 0.291187 0.268906 0.216165
C63   C     C_3   0.213802 0.343398 0.720742 -0.378422
C64   C     C_3   0.189137 0.409380 0.848378 -0.766450
H43   H     H_    0.222810 0.460517 0.897499 0.256767
H44   H     H_    0.153623 0.474457 0.819901 0.255975
H45   H     H_    0.172301 0.340678 0.925380 0.261328
H46   H     H_    0.180114 0.292041 0.673328 0.265311
H47   H     H_    0.245765 0.272597 0.757214 0.210665
C65   C     C_3   0.773197 0.678843 0.716871 -0.383415
C66   C     C_3   0.797335 0.598260 0.835111 -0.726866
H48   H     H_    0.765345 0.531597 0.873763 0.258868
H49   H     H_    0.836843 0.547301 0.800355 0.249613
H50   H     H_    0.807917 0.657126 0.922227 0.255877
H51   H     H_    0.805265 0.744507 0.678113 0.245485
H52   H     H_    0.737312 0.736265 0.761676 0.219628
C67   C     C_2   0.612337 0.898612 0.522732 0.805337
O25   O     O_2   0.628970 0.813197 0.450432 -0.610100
O26   O     O_R   0.648598 0.947871 0.616937 -0.787784
H53   H     H_    0.687772 0.905257 0.615429 0.329916
C68   C     C_2   0.387492 0.096981 0.469124 0.807635
O27   O     O_2   0.348301 0.026468 0.468534 -0.621313
O28   O     O_R   0.376994 0.222928 0.447497 -0.769883
H54   H     H_    0.336036 0.242821 0.422281 0.348507
C69   C     C_3   0.430753 0.913636 0.730187 -0.347628
C70   C     C_3   0.395765 0.017538 0.799862 -0.743309
H55   H     H_    0.383666 0.989127 0.908309 0.271943
H56   H     H_    0.420154 0.102676 0.801506 0.278202
H57   H     H_    0.355948 0.038268 0.743558 0.252063
H58   H     H_    0.401344 0.844345 0.695161 0.186916
H59   H     H_    0.459116 0.868322 0.807291 0.268476
C71   C     C_3   0.567002 0.091428 0.265011 -0.407020
C72   C     C_3   0.616516 0.008440 0.211889 -0.775119
H60   H     H_    0.605507 0.910749 0.212885 0.318628
H61   H     H_    0.628957 0.037569 0.103842 0.243243
H62   H     H_    0.654053 0.016252 0.276677 0.254174
H63   H     H_    0.537493 0.111067 0.179897 0.269082
H64   H     H_    0.584442 0.179236 0.292970 0.192293

loop_
_geom_bond_atom_site_label_1
_geom_bond_atom_site_label_2
_ccdc_geom_bond_type
C66   H50   S    
Cu1   O4    S    
C69   C70   S    
Cu2   O3    S    
C18   C21   S    
C36   C42   A    
O20   H30   S    
C50   H19   S    
C61   C62   S    
C58   O24   S    
C53   O13   D    
C28   N4    S    
C67   O25   D    
C63   C64   S    
Cu1   Cu2   S    
C55   O18   S    
Cu1   O1    S    
C72   H60   S    
Cu2   O6    S    
C32   O10   S    
C28   C29   S    
C35   C37   A    
C50   H18   S    
C13   N2    S    
C61   H42   S    
C56   O20   S    
C26   C54   S    
C2    O4    A    
O22   H31   S    
C5    C59   S    
C31   O9    S    
C3    H1    S    
C70   H57   S    
C8    C24   S    
C71   H64   S    
C50   H17   S    
C40   C43   A    
C66   H49   S    
C49   C50   S    
C12   C65   S    
C24   O6    A    
O26   H53   S    
C25   N4    S    
C45   H11   S    
C46   H7    S    
C15   H5    S    
C68   O28   S    
C69   H59   S    
C18   C20   S    
C3    C13   A    
C62   H40   S    
C23   O7    A    
C49   H20   S    
C54   O16   S    
Cu2   O2    S    
C27   C30   S    
C70   H56   S    
C41   C43   A    
C29   C55   S    
C71   H63   S    
C15   C20   S    
C42   C44   A    
C64   H45   S    
C32   N2    A    
C53   O14   S    
C48   H13   S    
C25   C29   S    
C63   H46   S    
C49   H21   S    
C30   C56   S    
C54   O15   D    
C65   H52   S    
C51   H25   S    
C9    H3    S    
C47   C48   S    
C64   H44   S    
C34   O12   S    
C52   H22   S    
C5    C7    A    
C17   C19   S    
C6    C8    A    
C29   N3    S    
C48   H12   S    
C30   N4    S    
C1    O1    A    
C37   C38   A    
C11   C63   S    
C52   H23   S    
C22   C71   S    
O14   H27   S    
C23   O5    A    
O18   H29   S    
C46   H9    S    
C58   O23   D    
C45   H10   S    
C16   C18   S    
C42   C47   S    
C31   N1    A    
C51   H26   S    
C9    C11   A    
C59   C60   S    
C18   C68   S    
C10   C12   A    
C4    C6    A    
C1    O3    A    
C12   C14   A    
C33   N1    A    
C72   H62   S    
C70   H55   S    
C47   H16   S    
C36   C38   A    
C10   H4    S    
O28   H54   S    
C33   O11   S    
C41   C45   S    
C57   O21   D    
C4    H2    S    
C48   H14   S    
C25   C53   S    
C15   C17   S    
C71   C72   S    
C1    C20   S    
C16   C22   S    
Cu1   O8    S    
C19   C21   S    
C2    C19   S    
C21   C69   S    
C65   H51   S    
C8    C10   A    
C17   C67   S    
C16   H6    S    
C20   C22   S    
C64   H43   S    
C3    C5    A    
C47   H15   S    
C28   C51   S    
O24   H32   S    
C2    O2    A    
C59   H37   S    
C26   C30   S    
C39   C44   A    
C25   C27   S    
C55   O17   D    
C27   N3    S    
C26   C28   S    
C17   C22   S    
Cu2   O7    S    
C60   H35   S    
C67   O26   S    
C62   H38   S    
C6    C61   S    
C59   H36   S    
C37   C39   A    
C56   O19   D    
C43   C57   S    
C52   H24   S    
C38   C40   A    
C11   C13   A    
C34   N2    A    
C51   C52   S    
C15   C21   S    
C44   C58   S    
C16   C19   S    
C7    C23   S    
Cu1   O5    S    
C33   C35   A    
C26   N3    S    
C31   C39   A    
C24   O8    A    
C34   C36   A    
C32   C40   A    
C4    C14   A    
C45   C46   S    
C35   C41   A    
C27   C49   S    
C7    C9    A    
C63   H47   S    
C14   N1    S    
Cu1   N3    S    
C72   H61   S    
Cu2   N4    S    
O16   H28   S    
C60   H33   S    
C65   C66   S    
C46   H8    S    
C57   O22   S    
C68   O27   D    
C61   H41   S    
C60   H34   S    
C69   H58   S    
C66   H48   S    
C62   H39   S    
