data_mof_unit_39229.cif
_audit_creation_date              2012-10-26T18:50:24-0400
_audit_creation_method            fapswitch 2.2
_symmetry_space_group_name_H-M    P1
_symmetry_Int_Tables_number       1
_space_group_crystal_system       triclinic
_cell_length_a                    9.608541
_cell_length_b                    10.853449
_cell_length_c                    15.437458
_cell_angle_alpha                 85.495841
_cell_angle_beta                  74.515485
_cell_angle_gamma                 88.952668
_cell_volume                      1546.67484433

loop_
_atom_site_label
_atom_site_type_symbol
_atom_type_description
_atom_site_fract_x
_atom_site_fract_y
_atom_site_fract_z
_atom_type_partial_charge
C1    C     C_R   0.003726 0.262140 0.497154 0.545807
C2    C     C_R   0.230559 0.560482 0.042610 0.046743
C3    C     C_R   0.327289 0.516240 0.092909 0.036509
C4    C     C_R   0.918657 0.498114 0.672584 0.538800
C5    C     C_R   0.084086 0.578377 0.085787 -0.140574
C6    C     C_R   0.032193 0.553049 0.178643 -0.132084
C7    C     C_R   0.270372 0.485154 0.185653 -0.120989
C8    C     C_R   0.268716 0.105916 0.506230 -0.104823
C9    C     C_R   0.369784 0.038181 0.540212 -0.132729
C10   C     C_R   0.335701 0.920183 0.581056 -0.114220
C11   C     C_R   0.206282 0.865594 0.580124 -0.091164
C12   C     C_R   0.674622 0.507220 0.909401 0.030196
C13   C     C_R   0.108744 0.929026 0.537871 0.026934
C14   C     C_R   0.129817 0.056503 0.513052 0.031637
C15   C     C_R   0.011191 0.126948 0.496075 -0.005655
C16   C     C_R   0.995776 0.736037 0.508268 0.553954
C17   C     C_R   0.888601 0.065841 0.487870 -0.160424
C18   C     C_R   0.881923 0.938397 0.495155 -0.160274
C19   C     C_R   0.992456 0.868910 0.518009 -0.001920
C20   C     C_R   0.695953 0.677174 0.392232 -0.097270
C21   C     C_R   0.650827 0.784273 0.355310 -0.203748
C22   C     C_R   0.508491 0.797618 0.358064 -0.157513
C23   C     C_R   0.772889 0.475649 0.961463 0.036052
C24   C     C_R   0.411431 0.699455 0.391169 0.020834
C25   C     C_R   0.448060 0.593633 0.446436 0.131210
C26   C     C_R   0.598267 0.589311 0.446768 0.136293
C27   C     C_R   0.553880 0.414027 0.549979 0.003102
C28   C     C_R   0.081186 0.497545 0.328016 0.561908
C29   C     C_R   0.406654 0.413358 0.549303 -0.000195
C30   C     C_R   0.874373 0.494020 0.772412 -0.020369
C31   C     C_R   0.125990 0.507823 0.229074 0.015477
C32   C     C_R   0.919042 0.456646 0.919793 -0.144949
C33   C     C_R   0.971071 0.466729 0.826190 -0.023609
C34   C     C_R   0.526078 0.527221 0.953614 0.034257
C35   C     C_R   0.728058 0.514173 0.814898 -0.145951
C36   C     C_1   0.297274 0.717193 0.347290 0.273858
C37   C     C_1   0.123271 0.445186 0.788879 0.209357
C38   C     C_R   0.477165 0.505239 0.049174 0.034942
C39   C     C_R   0.580233 0.476673 0.098223 -0.133606
C40   C     C_R   0.724945 0.462662 0.054995 -0.135712
C41   C     C_R   0.425391 0.570613 0.905992 -0.121327
C42   C     C_R   0.281063 0.587973 0.950027 -0.123545
Cu1   Cu    Cu3+1 0.140660 0.499990 0.500010 0.948804
Cu2   Cu    Cu3+1 0.859340 0.500010 0.499990 0.924429
H1    H     H_    0.799871 0.440212 0.095376 0.110500
H2    H     H_    0.728269 0.854561 0.319733 0.128036
H3    H     H_    0.336128 0.443572 0.226480 0.113348
H4    H     H_    0.478871 0.880759 0.323029 0.130748
H5    H     H_    0.335704 0.342082 0.589730 0.137509
H6    H     H_    0.920179 0.572201 0.211134 0.120981
H7    H     H_    0.208210 0.623087 0.911088 0.117627
H8    H     H_    0.993008 0.432048 0.960533 0.115508
H9    H     H_    0.656603 0.532012 0.772408 0.134690
H10   H     H_    0.553816 0.467720 0.170729 0.104838
H11   H     H_    0.454992 0.596134 0.834641 0.118655
H12   H     H_    0.010350 0.614894 0.047977 0.110864
H13   H     H_    0.306283 0.193354 0.470743 0.144249
H14   H     H_    0.798111 0.116627 0.473605 0.133736
H15   H     H_    0.474193 0.078094 0.535713 0.102998
H16   H     H_    0.411544 0.869294 0.610851 0.119701
H17   H     H_    0.183242 0.773994 0.613455 0.144924
H18   H     H_    0.790124 0.894345 0.482136 0.141441
H19   H     H_    0.592379 0.343462 0.591343 0.123657
H20   H     H_    0.809566 0.668591 0.376638 0.198035
N1    N     N_R   0.648320 0.501210 0.499140 -0.247339
N2    N     N_R   0.352470 0.501290 0.499110 -0.251903
N3    N     N_1   0.209827 0.740877 0.309515 -0.316261
N4    N     N_1   0.245502 0.428015 0.759938 -0.330556
O1    O     O_R   0.118810 0.319640 0.500010 -0.521270
O2    O     O_R   0.881240 0.319660 0.500000 -0.506384
O3    O     O_R   0.055570 0.499980 0.629840 -0.487345
O4    O     O_R   0.818000 0.500010 0.629830 -0.502523
O5    O     O_R   0.118760 0.680340 0.500000 -0.507771
O6    O     O_R   0.881190 0.680360 0.499990 -0.522483
O7    O     O_R   0.182000 0.499990 0.370170 -0.500295
O8    O     O_R   0.944430 0.500020 0.370160 -0.526369

loop_
_geom_bond_atom_site_label_1
_geom_bond_atom_site_label_2
_ccdc_geom_bond_type
Cu1   O5    S    
C22   H4    S    
C27   C29   A    
C41   C42   A    
C5    H12   S    
C36   N3    T    
C29   H5    S    
C12   C23   A    
C24   C36   S    
C30   C35   A    
C16   O6    A    
C3    C7    A    
C16   C19   S    
C5    C6    A    
C39   H10   S    
C35   H9    S    
C23   C40   A    
C37   N4    T    
C18   C19   A    
Cu2   O8    S    
C32   H8    S    
C41   H11   S    
C3    C38   A    
C8    C9    A    
C8    C14   A    
Cu2   O2    S    
C1    C15   S    
C9    C10   A    
C17   H14   S    
C6    C31   A    
Cu1   O1    S    
C13   C14   A    
Cu2   N1    S    
C34   C41   A    
Cu1   O7    S    
C40   H1    S    
C7    C31   A    
C13   C19   A    
C16   O5    A    
C24   C25   A    
C39   C40   A    
C18   H18   S    
C25   C26   A    
C33   C37   S    
C9    H15   S    
C7    H3    S    
C20   H20   S    
C10   H16   S    
Cu1   Cu2   S    
C27   N1    A    
C8    H13   S    
C17   C18   A    
C6    H6    S    
C12   C35   A    
Cu2   O6    S    
C27   H19   S    
C22   C24   A    
C2    C5    A    
C12   C34   A    
C28   O8    A    
C4    O4    A    
C21   H2    S    
C15   C17   A    
Cu1   O3    S    
C30   C33   A    
C34   C38   A    
C26   N1    A    
C28   C31   S    
C25   N2    A    
C11   H17   S    
C42   H7    S    
C1    O2    A    
C23   C32   A    
C2    C3    A    
C32   C33   A    
C11   C13   A    
C38   C39   A    
C20   C26   A    
C2    C42   A    
Cu1   N2    S    
Cu2   O4    S    
C1    O1    A    
C10   C11   A    
C29   N2    A    
C20   C21   A    
C14   C15   A    
C21   C22   A    
C28   O7    A    
C4    O3    A    
C4    C30   S    
