data_mof_unit_9393.cif
_audit_creation_date              2013-03-05T16:19:44-0500
_audit_creation_method            fapswitch 2.2
_symmetry_space_group_name_H-M    P1
_symmetry_Int_Tables_number       1
_space_group_crystal_system       triclinic
_cell_length_a                    10.63972
_cell_length_b                    9.842117
_cell_length_c                    27.480932
_cell_angle_alpha                 89.335379
_cell_angle_beta                  88.248775
_cell_angle_gamma                 90.379576
_cell_volume                      2876.12317813

loop_
_atom_site_label
_atom_site_type_symbol
_atom_site_description
_atom_site_fract_x
_atom_site_fract_y
_atom_site_fract_z
_atom_type_partial_charge
O1    O     O_R   0.314910 0.616040 0.499990 -0.627374
O2    O     O_R   0.314910 0.383960 0.499990 -0.644748
C1    C     C_R   0.257919 0.499996 0.499847 0.815204
O3    O     O_R   0.500140 0.616020 0.428740 -0.589684
O4    O     O_R   0.500140 0.383980 0.428740 -0.557825
C2    C     C_R   0.503357 0.500544 0.406304 0.909564
Zn1   Zn    Zn3+2 0.500150 0.654960 0.499980 0.931169
Zn2   Zn    Zn3+2 0.500150 0.345040 0.499980 0.927406
O5    O     O_R   0.685320 0.616040 0.499970 -0.638486
O6    O     O_R   0.685320 0.383960 0.499970 -0.633640
O7    O     O_R   0.500090 0.616050 0.571230 -0.629213
O8    O     O_R   0.500090 0.383950 0.571230 -0.626670
C3    C     C_R   0.742068 0.500616 0.499889 0.820967
C4    C     C_R   0.499738 0.499485 0.594042 0.854459
C5    C     C_R   0.495468 0.638151 0.182337 0.610682
O9    O     O_2   0.408211 0.702822 0.210095 -0.562384
N1    N     N_R   0.589247 0.566543 0.203721 -0.339339
C6    C     C_R   0.688408 0.517325 0.176519 0.487559
C7    C     C_R   0.668238 0.559317 0.286840 -0.165610
C8    C     C_R   0.646251 0.538386 0.336340 -0.336133
C9    C     C_R   0.429725 0.471138 0.321937 0.078849
C10   C     C_R   0.458540 0.471765 0.271790 0.526648
C11   C     C_R   0.573601 0.530112 0.254321 0.121699
C12   C     C_R   0.584859 0.586470 0.102956 -0.070620
C13   C     C_R   0.486003 0.638782 0.131856 -0.107747
C14   C     C_R   0.373399 0.673716 0.110692 -0.293588
C15   C     C_R   0.690400 0.531843 0.125676 0.009369
C16   C     C_R   0.525859 0.501831 0.354058 -0.102882
H1    H     H_    0.293234 0.704200 0.133172 0.205522
C17   C     C_R   0.500066 0.500024 0.647250 -0.040431
C18   C     C_R   0.454101 0.622558 0.978382 -0.143383
C19   C     C_R   0.668727 0.528768 0.971715 0.107585
C20   C     C_R   0.554309 0.566339 0.950067 0.001852
C21   C     C_R   0.351283 0.677911 0.953227 0.408585
C22   C     C_R   0.327661 0.634829 0.906017 0.398117
C23   C     C_R   0.426060 0.579982 0.877449 -0.220035
C24   C     C_R   0.540845 0.549539 0.899264 -0.128103
C25   C     C_R   0.641382 0.499356 0.870406 0.041136
C26   C     C_R   0.626202 0.480673 0.820596 0.498803
N2    N     N_R   0.514366 0.510621 0.800218 -0.362640
C27   C     C_R   0.414780 0.558583 0.827225 0.552698
C28   C     C_R   0.502654 0.627131 0.721991 -0.104284
C29   C     C_R   0.499746 0.624627 0.671652 -0.223433
C30   C     C_R   0.502303 0.377800 0.674119 -0.226078
C31   C     C_R   0.505175 0.380672 0.724742 -0.098699
C32   C     C_R   0.505719 0.505514 0.748591 0.307687
O10   O     O_2   0.306819 0.588419 0.805017 -0.509656
C33   C     C_R   0.461556 0.623337 0.030000 -0.050083
C34   C     C_R   0.576027 0.584438 0.051627 -0.000106
C35   C     C_R   0.678934 0.535482 0.022912 0.083158
C36   C     C_R   0.355576 0.647930 0.061606 0.534551
H2    H     H_    0.498617 0.720467 0.651962 0.151942
H3    H     H_    0.504181 0.723724 0.740463 0.136999
O11   O     O_2   0.781904 0.450002 0.198231 -0.580059
C37   C     C_R   0.791077 0.484288 0.097239 -0.152192
H4    H     H_    0.720598 0.560498 0.361225 0.146804
H5    H     H_    0.757520 0.601731 0.274029 0.196675
H6    H     H_    0.873478 0.441916 0.113808 0.180242
C38   C     C_R   0.769693 0.486108 0.941044 -0.234899
C39   C     C_R   0.755846 0.471800 0.891430 -0.154008
O12   O     O_2   0.722957 0.435107 0.792477 -0.562521
C40   C     C_R   0.786247 0.487250 0.046876 -0.228274
H7    H     H_    0.861853 0.464668 0.953949 0.135985
H8    H     H_    0.503082 0.280556 0.656134 0.150735
H9    H     H_    0.835593 0.439203 0.869319 0.183223
H10   H     H_    0.508061 0.286455 0.745406 0.137739
H11   H     H_    0.866479 0.444627 0.028051 0.127753
C41   C     C_3   0.072236 0.649540 0.497536 -0.390758
C42   C     C_3   0.067805 0.431451 0.546996 -0.415178
H12   H     H_    0.109490 0.702038 0.463914 0.178254
H13   H     H_    0.101619 0.324909 0.549644 0.171499
H14   H     H_    0.104275 0.707760 0.529376 0.172501
H15   H     H_    0.100590 0.486322 0.579515 0.163299
C43   C     C_3   0.929436 0.650141 0.497840 -0.404084
C44   C     C_3   0.923415 0.431163 0.546835 -0.384247
H16   H     H_    0.893549 0.707732 0.529989 0.173473
H17   H     H_    0.885653 0.484869 0.579527 0.165312
H18   H     H_    0.897617 0.703616 0.464490 0.166116
H19   H     H_    0.888215 0.324402 0.549045 0.172445
H20   H     H_    0.113492 0.470576 0.420956 0.165332
H21   H     H_    0.105336 0.316044 0.456637 0.164184
H22   H     H_    0.899344 0.476443 0.420696 0.155766
H23   H     H_    0.893784 0.319213 0.454525 0.173901
C45   C     C_3   0.074304 0.423373 0.455108 -0.410030
C46   C     C_3   0.121064 0.500973 0.499857 0.193023
C47   C     C_3   0.878430 0.501926 0.499830 0.187150
C48   C     C_3   0.930265 0.425527 0.454643 -0.399158
C49   C     C_3   0.378595 0.079860 0.520186 0.101554
C50   C     C_3   0.375907 0.917366 0.517429 0.112725
H24   H     H_    0.299154 0.117862 0.499682 0.101309
H25   H     H_    0.303514 0.886384 0.491561 0.127556
C51   C     C_3   0.522802 0.082493 0.448942 0.345334
C52   C     C_3   0.533464 0.922154 0.449130 0.364297
C53   C     C_3   0.602168 0.080215 0.528875 -0.386694
C54   C     C_3   0.597098 0.918931 0.531297 -0.375188
N3    N     N_3   0.499750 0.138610 0.498940 -0.100197
N4    N     N_3   0.499750 0.861390 0.498940 -0.083752
H26   H     H_    0.695672 0.112917 0.513513 0.148155
H27   H     H_    0.691317 0.878469 0.520829 0.157695
H28   H     H_    0.599551 0.122714 0.566051 0.200321
H29   H     H_    0.581223 0.883927 0.569481 0.195949
H30   H     H_    0.619009 0.118674 0.437853 0.068998
H31   H     H_    0.635265 0.898621 0.442123 0.006686
C55   C     C_3   0.295935 0.452497 0.340604 -0.891008
H32   H     H_    0.232952 0.413420 0.312453 0.285842
H33   H     H_    0.291935 0.380977 0.371876 0.236176
H34   H     H_    0.259478 0.551980 0.353137 0.232723
O13   O     O_3   0.369744 0.428523 0.239496 -0.626170
C56   C     C_3   0.406438 0.300237 0.221588 0.047600
H35   H     H_    0.400041 0.222664 0.251406 0.141264
H36   H     H_    0.504439 0.302637 0.206012 0.149562
C57   C     C_3   0.318942 0.258708 0.181258 -0.323383
H37   H     H_    0.220677 0.252330 0.196096 0.235457
H38   H     H_    0.323431 0.337135 0.151812 0.226811
C58   C     C_3   0.356317 0.121495 0.160032 -0.926713
H39   H     H_    0.452985 0.127100 0.143630 0.266186
H40   H     H_    0.290540 0.092925 0.131230 0.268060
H41   H     H_    0.352440 0.041392 0.188880 0.284753
C59   C     C_3   0.342436 0.137449 0.571233 -0.811348
H42   H     H_    0.411123 0.112573 0.599363 0.224351
H43   H     H_    0.327025 0.247237 0.570174 0.273339
H44   H     H_    0.248807 0.099547 0.584049 0.198204
C60   C     C_3   0.327386 0.852058 0.566484 -0.819433
H45   H     H_    0.384801 0.880887 0.597693 0.226719
H46   H     H_    0.228819 0.883169 0.574090 0.190619
H47   H     H_    0.320402 0.741822 0.566977 0.278743
O14   O     O_3   0.449737 0.140195 0.410853 -0.617073
C61   C     C_3   0.319188 0.110660 0.410745 0.155297
H48   H     H_    0.269296 0.197872 0.427071 0.141734
H49   H     H_    0.291342 0.016801 0.430247 0.121032
C62   C     C_3   0.274725 0.093820 0.358605 -0.361481
H50   H     H_    0.320695 0.170439 0.334002 0.233049
H51   H     H_    0.300599 0.991350 0.345268 0.237306
C63   C     C_3   0.132197 0.107776 0.356074 -0.973266
H52   H     H_    0.084260 0.030873 0.380176 0.258644
H53   H     H_    0.103071 0.091582 0.318108 0.281688
H54   H     H_    0.102463 0.210989 0.367344 0.265078
O15   O     O_3   0.461163 0.867955 0.411168 -0.629370
C64   C     C_3   0.536014 0.840923 0.368199 0.127807
H55   H     H_    0.476208 0.782106 0.343454 0.184381
H56   H     H_    0.617696 0.776617 0.376912 0.147189
C65   C     C_3   0.586854 0.966684 0.339910 -0.400391
H57   H     H_    0.509860 0.034857 0.329750 0.254096
H58   H     H_    0.654101 0.023631 0.362129 0.216522
C66   C     C_3   0.656231 0.925179 0.293005 -0.941963
H59   H     H_    0.738050 0.860455 0.301448 0.261486
H60   H     H_    0.690960 0.017403 0.273029 0.276094
H61   H     H_    0.592167 0.868529 0.269185 0.288271
O16   O     O_3   0.208331 0.647872 0.887784 -0.571525
C67   C     C_3   0.127633 0.546847 0.909391 0.140334
H62   H     H_    0.031774 0.565145 0.896056 0.171820
H63   H     H_    0.121104 0.557252 0.949688 0.153886
C68   C     C_3   0.166522 0.400940 0.895385 -0.402595
H64   H     H_    0.171832 0.392091 0.855120 0.272343
H65   H     H_    0.260571 0.377754 0.909705 0.202367
C69   C     C_3   0.074987 0.293828 0.916263 -0.967186
H66   H     H_    0.056510 0.309648 0.955704 0.263794
H67   H     H_    0.115880 0.191235 0.911249 0.274186
H68   H     H_    0.985182 0.297180 0.897059 0.273921
O17   O     O_3   0.274774 0.777103 0.973332 -0.580703
C70   C     C_3   0.313936 0.907263 0.956057 0.129655
H69   H     H_    0.228051 0.969007 0.951273 0.170542
H70   H     H_    0.364340 0.906260 0.919788 0.117609
C71   C     C_3   0.395638 0.976556 0.993564 -0.366841
H71   H     H_    0.343837 0.978688 0.029294 0.238216
H72   H     H_    0.483407 0.917797 0.998067 0.223392
C72   C     C_3   0.430054 0.121786 0.977821 -0.957187
H73   H     H_    0.487300 0.121471 0.943336 0.271482
H74   H     H_    0.485648 0.170804 0.006413 0.273897
H75   H     H_    0.343832 0.182320 0.972335 0.266668
O18   O     O_3   0.233737 0.636851 0.045524 -0.596718
C73   C     C_3   0.171717 0.520946 0.066104 0.065938
H76   H     H_    0.071201 0.528886 0.056907 0.175152
H77   H     H_    0.173759 0.518411 0.106565 0.137956
C74   C     C_3   0.223857 0.388205 0.044961 -0.413851
H78   H     H_    0.230546 0.396476 0.004671 0.232429
H79   H     H_    0.319789 0.369966 0.058424 0.220971
C75   C     C_3   0.139824 0.267390 0.059687 -0.940489
H80   H     H_    0.130679 0.258573 0.099946 0.271765
H81   H     H_    0.181329 0.172370 0.045200 0.277272
H82   H     H_    0.044743 0.279721 0.044775 0.256924

loop_
_geom_bond_atom_site_label_1
_geom_bond_atom_site_label_2
_geom_bond_distance
_ccdc_geom_bond_type
H23   C48   1.113687 S    
O18   C73   1.417334 S    
C49   N3    1.507707 S    
C1    C46   1.456185 S    
C66   H61   1.111148 S    
C22   C23   1.403889 A    
Zn2   N3    2.032220 S    
C45   C48   1.533263 S    
H20   C45   1.110808 S    
C62   C63   1.527200 S    
C61   H48   1.104648 S    
C52   H31   1.120496 S    
C63   H54   1.110622 S    
C57   H38   1.111552 S    
C66   H59   1.110727 S    
O16   C67   1.422055 S    
C60   H45   1.106610 S    
C74   H79   1.111251 S    
C31   C32   1.399343 A    
C7    H5    1.082351 S    
Zn1   O7    1.990734 S    
C62   H50   1.108195 S    
C71   H72   1.111028 S    
N1    C11   1.436448 S    
C43   H16   1.114223 S    
C40   H11   1.074762 S    
C71   H71   1.111696 S    
C56   H36   1.114977 S    
C28   H3    1.083151 S    
O4    C2    1.295862 A    
Zn2   O6    2.004548 S    
O7    C4    1.300878 A    
C54   H27   1.112029 S    
C29   H2    1.082321 S    
C60   H46   1.108879 S    
C53   H26   1.112861 S    
C41   C43   1.519170 S    
C5    O9    1.350826 S    
C37   C40   1.386507 A    
C51   N3    1.500630 S    
O13   C56   1.413506 S    
Zn1   O5    2.009532 S    
C21   C22   1.399089 A    
C28   C32   1.396366 A    
C42   H13   1.113160 S    
O5    C3    1.290020 A    
C55   H32   1.109337 S    
C52   O15   1.421684 S    
C70   H70   1.117465 S    
C9    C55   1.507608 S    
C33   C36   1.425865 A    
C2    C16   1.448262 S    
C7    C8    1.385996 A    
C58   H40   1.109848 S    
C67   C68   1.546771 S    
C3    C47   1.450777 S    
C18   C20   1.419681 A    
C42   H15   1.113403 S    
C68   H65   1.110527 S    
C73   C74   1.536125 S    
C51   H30   1.114015 S    
C58   H41   1.111221 S    
C38   C39   1.384559 A    
C9    C10   1.402521 A    
C41   C46   1.556267 S    
C65   C66   1.526871 S    
C17   C30   1.404892 A    
C23   C27   1.407213 A    
C4    C17   1.462393 S    
O3    Zn1   1.999263 S    
C55   H33   1.104165 S    
C57   H37   1.111657 S    
C66   H60   1.110574 S    
C73   H77   1.112784 S    
C70   H69   1.111045 S    
C74   C75   1.526336 S    
C59   H43   1.094171 S    
C26   O12   1.350388 S    
C75   H80   1.109980 S    
C12   C13   1.402752 A    
C72   H74   1.110611 S    
C56   C57   1.526620 S    
C26   N2    1.363043 A    
C47   C48   1.548196 S    
C60   H47   1.086909 S    
C63   H53   1.110388 S    
C8    C16   1.399644 A    
C13   C14   1.391137 A    
C30   H8    1.082229 S    
C50   N4    1.507672 S    
C41   H14   1.112397 S    
O1    C1    1.289659 A    
C69   H66   1.108600 S    
C7    C11   1.397222 A    
C24   C25   1.407603 A    
C67   H63   1.113416 S    
C44   C47   1.550508 S    
C74   H78   1.109333 S    
C53   H28   1.108041 S    
Zn2   O8    1.999454 S    
C12   C15   1.408164 A    
N1    C6    1.368770 A    
C27   O10   1.349553 S    
C18   C21   1.420143 A    
C45   C46   1.548319 S    
C49   C59   1.557425 S    
C53   N3    1.498876 S    
C44   H17   1.113419 S    
C19   C35   1.416714 A    
C25   C39   1.390792 A    
C72   H75   1.110341 S    
O3    C2    1.299417 A    
N2    C27   1.364932 A    
C9    C16   1.404960 A    
C49   H24   1.095546 S    
C39   H9    1.081054 S    
C34   C35   1.420099 A    
C18   C33   1.423238 A    
C35   C40   1.417248 A    
H22   C48   1.113422 S    
C17   C29   1.404507 A    
C50   H25   1.107690 S    
C28   C29   1.385158 A    
N2    C32   1.425967 S    
O14   C61   1.417311 S    
C51   O14   1.436744 S    
C52   N4    1.519272 S    
C72   H73   1.110799 S    
H21   C45   1.109547 S    
C42   C46   1.548165 S    
C30   C31   1.393027 A    
C70   C71   1.531800 S    
C59   H44   1.107322 S    
C12   C34   1.416910 A    
C5    N1    1.368638 A    
C23   C24   1.409297 A    
Zn1   N4    2.031613 S    
O1    Zn1   2.005279 S    
C71   C72   1.527546 S    
O2    Zn2   2.010263 S    
C6    C15   1.402365 A    
O8    C4    1.304791 A    
C62   H51   1.110543 S    
O6    C3    1.293626 A    
C61   H49   1.097060 S    
O4    Zn2   1.990538 S    
C75   H81   1.109720 S    
C64   H55   1.110456 S    
C54   N4    1.498125 S    
C63   H52   1.111012 S    
C69   H68   1.106078 S    
C43   C47   1.552835 S    
C50   C60   1.558842 S    
C38   H7    1.074259 S    
C67   H62   1.109368 S    
O17   C70   1.416621 S    
C69   H67   1.110511 S    
O2    C1    1.296598 A    
C14   C36   1.393906 A    
C19   C20   1.420477 A    
C64   H56   1.108908 S    
C68   C69   1.525528 S    
C25   C26   1.397335 A    
C33   C34   1.424198 A    
C36   O18   1.386339 S    
C51   C52   1.582854 S    
C64   C65   1.540161 S    
C42   C44   1.536399 S    
C15   C37   1.393252 A    
C8    H4    1.083984 S    
C57   C58   1.527526 S    
C10   O13   1.384197 S    
C53   C54   1.588494 S    
C20   C24   1.419246 A    
C75   H82   1.109904 S    
C5    C13   1.393918 A    
O15   C64   1.432477 S    
C6    O11   1.349242 S    
C73   H76   1.109456 S    
C54   H29   1.108302 S    
C49   C50   1.602065 S    
C14   H1    1.083804 S    
C41   H12   1.114278 S    
C59   H42   1.106384 S    
C43   H18   1.114306 S    
C37   H6    1.083843 S    
C31   H10   1.082829 S    
C65   H57   1.102793 S    
C10   C11   1.416800 A    
C22   O16   1.385289 S    
C19   C38   1.414058 A    
C68   H64   1.110706 S    
C56   H35   1.113729 S    
C44   H19   1.113532 S    
C61   C62   1.533047 S    
C55   H34   1.110158 S    
C65   H58   1.108249 S    
C58   H39   1.111039 S    
C21   O17   1.384394 S    
