data_mof_unit_55070.cif
_audit_creation_date              2012-12-10T18:23:09-0500
_audit_creation_method            fapswitch 2.2
_symmetry_space_group_name_H-M    P1
_symmetry_Int_Tables_number       1
_space_group_crystal_system       triclinic
_cell_length_a                    15.054817
_cell_length_b                    14.362133
_cell_length_c                    10.708817
_cell_angle_alpha                 93.45472
_cell_angle_beta                  85.868138
_cell_angle_gamma                 88.725762
_cell_volume                      2304.4160407

loop_
_atom_site_label
_atom_site_type_symbol
_atom_type_description
_atom_site_fract_x
_atom_site_fract_y
_atom_site_fract_z
_atom_type_partial_charge
C1    C     C_R   0.326994 0.500354 0.499744 0.956163
C2    C     C_R   0.966321 0.401937 0.303311 -0.180156
C3    C     C_R   0.571521 0.797188 0.449608 0.006823
C4    C     C_R   0.426818 0.204137 0.550330 0.005776
C5    C     C_R   0.427805 0.803189 0.553212 0.015283
C6    C     C_R   0.574902 0.195557 0.457844 0.054073
C7    C     C_R   0.427827 0.904424 0.569872 -0.080726
C8    C     C_R   0.576382 0.095282 0.460342 -0.067564
C9    C     C_R   0.567287 0.896158 0.440101 -0.090147
C10   C     C_R   0.429965 0.105642 0.570368 -0.102410
C11   C     C_R   0.498334 0.950352 0.507643 0.029557
C12   C     C_R   0.672718 0.499382 0.495354 0.874915
C13   C     C_R   0.500626 0.050424 0.511004 0.011021
C14   C     C_R   0.363845 0.961415 0.650775 0.147625
C15   C     C_R   0.650821 0.036618 0.411971 0.192236
C16   C     C_R   0.635198 0.943500 0.373543 0.118440
C17   C     C_R   0.366595 0.061559 0.652386 0.127056
C18   C     C_R   0.505234 0.497661 0.257320 0.889504
C19   C     C_R   0.494869 0.502093 0.742915 0.943601
C20   C     C_3   0.420208 0.524018 0.060862 0.097765
C21   C     C_3   0.578669 0.474082 0.940481 0.135497
C22   C     C_3   0.476750 0.587287 0.976529 0.125738
C23   C     C_R   0.952291 0.489610 0.505187 0.014947
C24   C     C_3   0.522416 0.410941 0.025013 0.138956
C25   C     C_3   0.436804 0.439436 0.964670 0.111522
C26   C     C_3   0.562089 0.558268 0.036675 0.117320
C27   C     C_3   0.493180 0.503558 0.879548 -0.265024
C28   C     C_3   0.505719 0.494932 0.121274 -0.214232
C29   C     C_R   0.822152 0.465359 0.386193 -0.093561
C30   C     C_R   0.177481 0.535315 0.611893 -0.105024
C31   C     C_R   0.768481 0.499027 0.492372 -0.073608
C32   C     C_R   0.230108 0.498646 0.505641 -0.140599
C33   C     C_R   0.806352 0.539048 0.596609 -0.274822
C34   C     C_R   0.045448 0.487423 0.507936 0.022224
C35   C     C_R   0.191810 0.449340 0.408151 -0.238845
C36   C     C_R   0.898162 0.535010 0.605392 0.106927
C37   C     C_R   0.099479 0.444110 0.405230 0.089866
C38   C     C_3   0.367265 0.370203 0.921587 -0.311570
C39   C     C_3   0.337486 0.302815 0.020595 -0.922798
C40   C     C_3   0.631216 0.625298 0.085204 -0.285019
C41   C     C_3   0.671116 0.687913 0.986988 -0.906432
C42   C     C_3   0.335491 0.552086 0.145210 -0.370284
C43   C     C_3   0.255782 0.581347 0.075692 -0.833857
C44   C     C_3   0.662572 0.445309 0.855411 -0.401618
C45   C     C_R   0.913462 0.451613 0.398312 0.044595
C46   C     C_3   0.744617 0.423823 0.924591 -0.789696
C47   C     C_3   0.452455 0.687532 0.948393 -0.346564
C48   C     C_3   0.436255 0.753141 0.066980 -0.872386
C49   C     C_3   0.551392 0.314238 0.062285 -0.293775
C50   C     C_3   0.569197 0.241965 0.951815 -0.876872
C51   C     C_2   0.791035 0.472749 0.257956 0.878853
C52   C     C_2   0.221314 0.574561 0.721999 0.918985
C53   C     C_3   0.885506 0.628203 0.820180 -0.424707
C54   C     C_3   0.867678 0.728345 0.786069 -0.821663
C55   C     C_3   0.107973 0.345827 0.190157 -0.398643
C56   C     C_R   0.084258 0.529413 0.613266 0.008126
C57   C     C_3   0.091838 0.392785 0.068739 -0.855818
C58   C     C_2   0.660436 0.751097 0.432298 0.954379
C59   C     C_2   0.338004 0.249162 0.552622 0.996393
C60   C     C_2   0.349057 0.753559 0.588182 0.979141
C61   C     C_2   0.649852 0.236836 0.388403 0.901042
C62   C     C_3   0.301049 0.918469 0.749494 -0.378614
C63   C     C_3   0.352090 0.883602 0.855884 -0.841663
C64   C     C_3   0.747959 0.060868 0.426532 -0.387797
C65   C     C_3   0.764455 0.085319 0.563829 -0.798761
C66   C     C_3   0.684429 0.899509 0.254128 -0.425847
C67   C     C_R   0.937173 0.573034 0.712405 0.150514
C68   C     C_3   0.685436 0.964159 0.145594 -0.851659
C69   C     C_3   0.317739 0.120658 0.761642 -0.408012
C70   C     C_3   0.218732 0.141735 0.744073 -0.811132
C71   C     C_R   0.058801 0.398238 0.303210 0.156385
C72   C     C_R   0.028815 0.564671 0.717362 -0.227622
H1    H     H_    0.763113 0.575824 0.668376 0.152160
H2    H     H_    0.676898 0.652184 0.892112 0.264122
H3    H     H_    0.630068 0.752780 0.985041 0.263205
H4    H     H_    0.737973 0.708888 0.013523 0.272841
H5    H     H_    0.599228 0.670533 0.162902 0.242525
H6    H     H_    0.684918 0.585042 0.123252 0.280445
H7    H     H_    0.269806 0.644026 0.023282 0.274574
H8    H     H_    0.236339 0.523995 0.010887 0.262060
H9    H     H_    0.198457 0.598826 0.144898 0.258110
H10   H     H_    0.317143 0.492198 0.200326 0.183824
H11   H     H_    0.350212 0.610532 0.212436 0.237612
H12   H     H_    0.236349 0.415817 0.335657 0.143910
H13   H     H_    0.763179 0.486160 0.980887 0.303051
H14   H     H_    0.733666 0.365078 0.985535 0.280391
H15   H     H_    0.801269 0.404159 0.855121 0.237267
H16   H     H_    0.648583 0.383688 0.793161 0.235176
H17   H     H_    0.677121 0.502806 0.794555 0.177197
H18   H     H_    0.363811 0.764771 0.090993 0.261173
H19   H     H_    0.464446 0.725234 0.149963 0.271916
H20   H     H_    0.466084 0.821796 0.050901 0.251377
H21   H     H_    0.506195 0.714111 0.884920 0.220666
H22   H     H_    0.391766 0.687689 0.897003 0.244292
H23   H     H_    0.055574 0.588952 0.803650 0.190645
H24   H     H_    0.518276 0.245922 0.882740 0.257228
H25   H     H_    0.635587 0.251168 0.903304 0.259473
H26   H     H_    0.568929 0.170944 0.987463 0.261212
H27   H     H_    0.613212 0.322655 0.109660 0.264241
H28   H     H_    0.500747 0.288350 0.131198 0.230636
H29   H     H_    0.681782 0.396296 0.284920 0.333137
H30   H     H_    0.322882 0.563444 0.830611 0.338928
H31   H     H_    0.930634 0.760095 0.751170 0.271006
H32   H     H_    0.819380 0.729951 0.712913 0.281121
H33   H     H_    0.839853 0.771313 0.869861 0.247413
H34   H     H_    0.934953 0.366066 0.226803 0.159655
H35   H     H_    0.822879 0.593959 0.847618 0.213092
H36   H     H_    0.923490 0.630926 0.905573 0.229195
H37   H     H_    0.023920 0.378546 0.039595 0.260722
H38   H     H_    0.098429 0.469380 0.082082 0.274011
H39   H     H_    0.140310 0.365383 0.991679 0.245827
H40   H     H_    0.180126 0.337703 0.197122 0.214536
H41   H     H_    0.083267 0.273487 0.182408 0.208187
H42   H     H_    0.783171 0.740388 0.494222 0.340308
H43   H     H_    0.242826 0.333333 0.645297 0.342664
H44   H     H_    0.222944 0.722490 0.551550 0.347295
H45   H     H_    0.384420 0.242286 0.018778 0.266665
H46   H     H_    0.720427 0.237848 0.221154 0.327264
H47   H     H_    0.412223 0.842307 0.818797 0.272894
H48   H     H_    0.374068 0.943221 0.915825 0.241026
H49   H     H_    0.307825 0.840193 0.914399 0.277072
H50   H     H_    0.249216 0.966526 0.793790 0.215542
H51   H     H_    0.257277 0.865962 0.709987 0.230799
H52   H     H_    0.721552 0.145073 0.603967 0.273143
H53   H     H_    0.750440 0.024253 0.620414 0.256926
H54   H     H_    0.835194 0.103862 0.571006 0.252453
H55   H     H_    0.792944 0.000073 0.396919 0.207362
H56   H     H_    0.331567 0.338094 0.115833 0.267385
H57   H     H_    0.771878 0.115293 0.364933 0.228061
H58   H     H_    0.616510 0.987776 0.130166 0.268373
H59   H     H_    0.726487 0.025903 0.164731 0.272076
H60   H     H_    0.714614 0.925968 0.058419 0.248379
H61   H     H_    0.753676 0.878570 0.271349 0.221901
H62   H     H_    0.649862 0.836342 0.220894 0.232460
H63   H     H_    0.205408 0.140060 0.643460 0.280206
H64   H     H_    0.173952 0.092239 0.790624 0.230447
H65   H     H_    0.199077 0.211561 0.788876 0.257410
H66   H     H_    0.324181 0.088598 0.852243 0.204152
H67   H     H_    0.272099 0.274137 0.999365 0.259413
H68   H     H_    0.352881 0.186107 0.778538 0.220966
H69   H     H_    0.307475 0.407630 0.895852 0.252564
H70   H     H_    0.396220 0.329968 0.836915 0.247919
N1    N     N_R   0.500000 0.750030 0.500000 -0.186639
N2    N     N_R   0.500000 0.249970 0.500000 -0.193682
O1    O     O_R   0.367850 0.580280 0.500030 -0.601429
O2    O     O_R   0.711738 0.435680 0.221258 -0.857373
O3    O     O_2   0.194595 0.647951 0.777528 -0.640987
O4    O     O_R   0.296624 0.528946 0.758162 -0.821681
O5    O     O_2   0.680533 0.697596 0.341393 -0.665600
O6    O     O_R   0.723677 0.773702 0.517644 -0.828104
O7    O     O_2   0.291988 0.232784 0.464744 -0.653867
O8    O     O_R   0.305680 0.309109 0.654220 -0.817109
O9    O     O_2   0.347774 0.709556 0.681743 -0.620670
O10   O     O_R   0.275321 0.758059 0.516190 -0.819429
O11   O     O_2   0.710838 0.269853 0.444464 -0.644210
O12   O     O_R   0.632150 0.419720 0.499970 -0.610142
O13   O     O_R   0.660164 0.219025 0.258606 -0.863505
O14   O     O_R   0.632150 0.580280 0.499970 -0.597773
O15   O     O_R   0.367850 0.419720 0.500030 -0.589871
O16   O     O_R   0.499970 0.580260 0.313950 -0.635226
O17   O     O_R   0.500030 0.419740 0.686050 -0.618567
O18   O     O_R   0.500030 0.580260 0.686050 -0.603077
O19   O     O_R   0.499970 0.419740 0.313950 -0.645590
O20   O     O_2   0.836551 0.514770 0.182023 -0.614871
Zn1   Zn    Zn3+2 0.500000 0.607200 0.500000 0.995347
Zn2   Zn    Zn3+2 0.500000 0.392800 0.500000 0.981047

loop_
_geom_bond_atom_site_label_1
_geom_bond_atom_site_label_2
_ccdc_geom_bond_type
C66   C68   S    
C21   C26   S    
C17   C69   S    
C8    C13   A    
C23   C45   A    
C55   H40   S    
C34   C37   A    
C1    O1    A    
C42   H10   S    
C50   H24   S    
C46   H14   S    
C36   C67   A    
O1    Zn1   S    
C59   O8    S    
C34   C56   A    
C6    C61   S    
C54   H32   S    
C35   C37   A    
C9    C16   A    
C38   C39   S    
C5    N1    A    
C41   H3    S    
C20   C25   S    
C10   C17   A    
C43   H7    S    
C15   C16   A    
C14   C62   S    
C24   C49   S    
C33   C36   A    
C67   C72   A    
C19   O17   A    
C65   H52   S    
C68   H60   S    
C60   O9    D    
N1    Zn1   S    
H30   O4    S    
C41   H2    S    
C66   H62   S    
C72   H23   S    
C7    C14   A    
C57   H37   S    
C57   H38   S    
C56   C72   A    
C48   H19   S    
H43   O8    S    
C15   C64   S    
C31   C33   A    
C19   C27   S    
H44   O10   S    
O17   Zn2   S    
C54   H33   S    
C58   O5    D    
C46   H13   S    
C23   C34   A    
C69   H68   S    
C22   C47   S    
C21   C27   S    
C52   O4    S    
C48   H18   S    
C70   H64   S    
C38   H70   S    
C14   C17   A    
C12   O12   A    
C61   O11   D    
C62   H51   S    
C63   H49   S    
C44   C46   S    
C2    C45   A    
C39   H67   S    
H29   O2    S    
C50   H26   S    
C32   C35   A    
C54   H31   S    
C1    O15   A    
O19   Zn2   S    
C18   C28   S    
C24   C25   S    
C5    C7    A    
C6    C8    A    
C55   H41   S    
C51   O2    S    
C43   H8    S    
C39   H45   S    
C30   C56   A    
C2    H34   S    
C1    C32   S    
C29   C45   A    
C19   O18   A    
C65   H53   S    
C68   H59   S    
C7    C11   A    
C62   C63   S    
C3    C9    A    
C61   O13   S    
C25   C38   S    
C49   H27   S    
C21   C44   S    
C63   H47   S    
C18   O19   A    
C53   H35   S    
C47   C48   S    
O12   Zn2   S    
C64   H55   S    
C47   H21   S    
C3    N1    A    
C51   O20   D    
O16   Zn1   S    
C68   H58   S    
C9    C11   A    
C33   H1    S    
C40   C41   S    
C20   C22   S    
C49   C50   S    
C8    C15   A    
C22   C27   S    
C55   C57   S    
C12   C31   S    
C48   H20   S    
C70   H63   S    
C43   H9    S    
C38   H69   S    
C40   H6    S    
C16   C66   S    
C42   C43   S    
H42   O6    S    
C4    C10   A    
C2    C71   A    
C62   H50   S    
C46   H15   S    
C29   C51   S    
C66   H61   S    
C69   H66   S    
C30   C52   S    
C50   H25   S    
C39   H56   S    
C5    C60   S    
O18   Zn1   S    
C42   H11   S    
C24   C28   S    
C10   C13   A    
C4    N2    A    
C20   C42   S    
C35   H12   S    
C53   C54   S    
C59   O7    D    
C52   O3    D    
C20   C28   S    
C26   C28   S    
O15   Zn2   S    
C64   C65   S    
C37   C71   A    
C29   C31   A    
C65   H54   S    
C49   H28   S    
C30   C32   A    
C63   H48   S    
C11   C13   A    
C53   H36   S    
C26   C40   S    
C57   H39   S    
C4    C59   S    
C47   H22   S    
C69   C70   S    
C53   C67   S    
C60   O10   S    
C18   O16   A    
C3    C58   S    
C64   H57   S    
C70   H65   S    
C23   C36   A    
C22   C26   S    
C21   C24   S    
N2    Zn2   S    
C40   H5    S    
H46   O13   S    
C12   O14   A    
C44   H16   S    
C6    N2    A    
C55   C71   S    
C44   H17   S    
C58   O6    S    
O14   Zn1   S    
C41   H4    S    
C25   C27   S    
