data_mof_unit_31976.cif
_audit_creation_date              2012-12-10T17:47:07-0500
_audit_creation_method            fapswitch 2.2
_symmetry_space_group_name_H-M    P1
_symmetry_Int_Tables_number       1
_space_group_crystal_system       triclinic
_cell_length_a                    17.655509
_cell_length_b                    17.756771
_cell_length_c                    19.468647
_cell_angle_alpha                 100.272053
_cell_angle_beta                  76.250171
_cell_angle_gamma                 115.24964
_cell_volume                      5341.57277424

loop_
_atom_site_label
_atom_site_type_symbol
_atom_type_description
_atom_site_fract_x
_atom_site_fract_y
_atom_site_fract_z
_atom_type_partial_charge
C1    C     C_R   0.456088 0.280449 0.467262 0.548599
C2    C     C_2   0.504868 0.438094 0.967288 -0.090982
C3    C     C_2   0.484787 0.490251 0.019893 -0.097184
C4    C     C_R   0.541649 0.719816 0.533203 0.521857
C5    C     C_R   0.506919 0.504325 0.236368 0.044317
C6    C     C_R   0.560057 0.810595 0.545674 0.026199
C7    C     C_R   0.438936 0.192051 0.450956 -0.021611
C8    C     C_R   0.641748 0.950737 0.593797 -0.124583
C9    C     C_R   0.616634 0.864527 0.590869 0.213203
C10   C     C_R   0.519743 0.844029 0.512410 0.220837
C11   C     C_R   0.550397 0.931842 0.510266 -0.044405
C12   C     C_R   0.511425 0.450106 0.892800 -0.018650
C13   C     C_R   0.610135 0.985253 0.553619 -0.094575
C14   C     C_R   0.519498 0.967764 0.469482 -0.021978
C15   C     C_R   0.532231 0.052734 0.485273 -0.030884
C16   C     C_R   0.723529 0.547235 0.467997 0.543697
C17   C     C_R   0.599261 0.106590 0.522249 0.303299
C18   C     C_R   0.637230 0.072606 0.556652 0.258641
C19   C     C_R   0.480290 0.923025 0.410918 -0.130352
C20   C     C_R   0.444322 0.957368 0.375743 -0.139474
C21   C     C_R   0.442177 0.035495 0.400327 0.008937
C22   C     C_R   0.481617 0.081528 0.458948 -0.029121
C23   C     C_R   0.468714 0.381977 0.847396 0.232557
C24   C     C_R   0.401941 0.068882 0.367130 0.252423
C25   C     C_R   0.407518 0.150308 0.389197 -0.187247
C26   C     C_R   0.467206 0.153800 0.490088 0.260758
C27   C     C_R   0.186808 0.443317 0.553173 0.020936
C28   C     C_R   0.276358 0.453618 0.532336 0.492814
C29   C     C_R   0.814893 0.568788 0.453981 0.029418
C30   C     C_R   0.053083 0.403061 0.636205 -0.137296
C31   C     C_R   0.132625 0.399691 0.611122 -0.154539
C32   C     C_R   0.158523 0.486031 0.518457 -0.124593
C33   C     C_R   0.081334 0.495235 0.545528 -0.035762
C34   C     C_R   0.458999 0.396390 0.782554 -0.163909
C35   C     C_R   0.027805 0.453014 0.605716 0.008147
C36   C     C_R   0.054564 0.541951 0.511993 -0.066314
C37   C     C_R   0.971782 0.539809 0.535172 -0.020164
C38   C     C_R   0.927892 0.513763 0.604102 0.280108
C39   C     C_R   0.952085 0.464159 0.636392 0.283304
C40   C     C_R   0.510463 0.509662 0.311506 0.524015
C41   C     C_R   0.108615 0.592198 0.456841 -0.124378
C42   C     C_R   0.077644 0.625199 0.414724 0.263266
C43   C     C_R   0.990309 0.608222 0.429199 0.013267
C44   C     C_R   0.936700 0.564907 0.489127 -0.034144
C45   C     C_R   0.494768 0.425746 0.121136 -0.097106
C46   C     C_R   0.955289 0.632825 0.383794 -0.118415
C47   C     C_R   0.867351 0.611351 0.394845 0.235572
C48   C     C_R   0.848732 0.544453 0.499502 -0.188919
C49   C     C_R   0.489853 0.488596 0.688812 0.535325
C50   C     C_R   0.496458 0.477295 0.760029 -0.043549
C51   C     C_R   0.547643 0.544707 0.802202 0.269120
C52   C     C_R   0.557226 0.530485 0.867896 0.236512
C53   C     C_3   0.668478 0.657238 0.759345 0.046773
C54   C     C_3   0.710848 0.741924 0.800193 -0.259483
C55   C     C_3   0.807510 0.776604 0.779855 -0.502433
C56   C     C_R   0.504837 0.432090 0.191334 0.253335
C57   C     C_3   0.779217 0.144520 0.558132 0.010213
C58   C     C_3   0.843059 0.179777 0.608614 -0.255039
C59   C     C_3   0.934013 0.201159 0.568121 -0.478906
C60   C     C_3   0.418118 0.136646 0.608596 0.012540
C61   C     C_3   0.343736 0.163908 0.632035 -0.260236
C62   C     C_3   0.275952 0.111444 0.689275 -0.491443
C63   C     C_3   0.583254 0.805697 0.695051 0.029795
C64   C     C_3   0.594313 0.875835 0.755400 -0.291133
C65   C     C_3   0.533629 0.843473 0.823982 -0.480815
C66   C     C_3   0.373470 0.795151 0.537037 0.003065
C67   C     C_R   0.501115 0.569751 0.210101 -0.181390
C68   C     C_3   0.311846 0.707551 0.557686 -0.238922
C69   C     C_3   0.228970 0.707934 0.603963 -0.498861
C70   C     C_3   0.678044 0.216748 0.454069 0.019283
C71   C     C_3   0.730698 0.311108 0.458614 -0.237382
C72   C     C_3   0.777339 0.340642 0.385284 -0.483327
C73   C     C_3   0.580979 0.356546 0.193074 0.013230
C74   C     C_3   0.583227 0.289853 0.231535 -0.240016
C75   C     C_3   0.667731 0.280363 0.207551 -0.497900
C76   C     C_3   0.276661 0.000965 0.324489 0.001737
C77   C     C_3   0.232935 0.917216 0.357748 -0.265524
C78   C     C_R   0.493606 0.563888 0.139633 -0.147764
C79   C     C_3   0.136255 0.887842 0.373316 -0.461152
C80   C     C_3   0.894057 0.464845 0.757413 0.017086
C81   C     C_3   0.976599 0.495835 0.787040 -0.293933
C82   C     C_3   0.969867 0.545436 0.859157 -0.489856
C83   C     C_3   0.842383 0.597059 0.281972 0.010878
C84   C     C_3   0.780701 0.602931 0.241846 -0.246511
C85   C     C_3   0.792738 0.566994 0.164699 -0.505657
C86   C     C_3   0.194861 0.650883 0.320707 0.000978
C87   C     C_3   0.282350 0.709343 0.339466 -0.270049
C88   C     C_3   0.346557 0.669282 0.314942 -0.460726
C89   C     C_R   0.490752 0.492188 0.094474 -0.015435
C90   C     C_3   0.898134 0.629533 0.653270 -0.010755
C91   C     C_3   0.966287 0.668416 0.701046 -0.285626
C92   C     C_3   0.018255 0.761336 0.692102 -0.480928
C93   C     C_3   0.492750 0.268272 0.858628 0.005254
C94   C     C_3   0.496702 0.217906 0.786400 -0.273260
C95   C     C_3   0.562690 0.180537 0.774819 -0.460496
C96   C     C_3   0.679042 0.588847 0.915930 -0.000398
C97   C     C_3   0.716333 0.647362 0.978295 -0.252785
C98   C     C_3   0.798392 0.642551 0.985396 -0.494568
H1    H     H_    0.386272 0.180516 0.358606 0.130337
H2    H     H_    0.698157 0.614119 0.762823 0.108123
H3    H     H_    0.995751 0.667843 0.339118 0.153159
H4    H     H_    0.473395 0.225600 0.900849 0.148124
H5    H     H_    0.557654 0.316482 0.864400 0.103387
H6    H     H_    0.433173 0.166535 0.783516 0.155927
H7    H     H_    0.513567 0.259030 0.743477 0.178719
H8    H     H_    0.627190 0.230956 0.775997 0.168384
H9    H     H_    0.563250 0.143964 0.722228 0.187494
H10   H     H_    0.546855 0.138215 0.816558 0.133204
H11   H     H_    0.727137 0.606276 0.866692 0.122664
H12   H     H_    0.667179 0.524165 0.924649 0.118556
H13   H     H_    0.688806 0.787355 0.788715 0.158496
H14   H     H_    0.730034 0.712709 0.970378 0.163443
H15   H     H_    0.669157 0.629876 0.028177 0.175890
H16   H     H_    0.786061 0.577896 0.994223 0.140756
H17   H     H_    0.823536 0.685249 0.031373 0.147689
H18   H     H_    0.847176 0.661661 0.936658 0.140534
H19   H     H_    0.692509 0.736141 0.858148 0.210229
H20   H     H_    0.831800 0.734392 0.794333 0.138925
H21   H     H_    0.835592 0.838908 0.808947 0.148287
H22   H     H_    0.827420 0.783630 0.721970 0.151815
H23   H     H_    0.490330 0.615760 0.120240 0.116960
H24   H     H_    0.794484 0.192595 0.521696 0.152167
H25   H     H_    0.786466 0.088268 0.526410 0.115502
H26   H     H_    0.838444 0.237094 0.639686 0.213583
H27   H     H_    0.480808 0.862873 0.389143 0.171178
H28   H     H_    0.827584 0.132791 0.646243 0.159578
H29   H     H_    0.939680 0.145222 0.535243 0.144867
H30   H     H_    0.978261 0.222581 0.606366 0.150732
H31   H     H_    0.952702 0.251818 0.533332 0.160680
H32   H     H_    0.447148 0.143607 0.655106 0.149344
H33   H     H_    0.394144 0.068647 0.590285 0.106357
H34   H     H_    0.367797 0.230749 0.652925 0.191605
H35   H     H_    0.314021 0.156880 0.585680 0.168662
H36   H     H_    0.250322 0.044404 0.669111 0.140830
H37   H     H_    0.222810 0.132395 0.704452 0.154439
H38   H     H_    0.012805 0.368572 0.681141 0.146801
H39   H     H_    0.303055 0.118790 0.737175 0.151956
H40   H     H_    0.416445 0.921501 0.330201 0.151370
H41   H     H_    0.685837 0.990475 0.628553 0.168142
H42   H     H_    0.590742 0.753432 0.712242 0.195676
H43   H     H_    0.516793 0.779314 0.684605 0.105501
H44   H     H_    0.660984 0.903139 0.764570 0.166988
H45   H     H_    0.581136 0.926032 0.740510 0.156624
H46   H     H_    0.466521 0.817798 0.816231 0.148613
H47   H     H_    0.543229 0.895568 0.866620 0.144965
H48   H     H_    0.545900 0.793839 0.840960 0.177024
H49   H     H_    0.502729 0.625602 0.244114 0.129147
H50   H     H_    0.341145 0.820338 0.510428 0.141983
H51   H     H_    0.388742 0.836705 0.586698 0.108103
H52   H     H_    0.297355 0.664954 0.508928 0.185315
H53   H     H_    0.342325 0.683573 0.587349 0.166274
H54   H     H_    0.242199 0.751675 0.652336 0.139297
H55   H     H_    0.187255 0.644336 0.620683 0.157388
H56   H     H_    0.194858 0.726986 0.573819 0.150768
H57   H     H_    0.633475 0.201671 0.416957 0.137268
H58   H     H_    0.721905 0.184550 0.431824 0.089789
H59   H     H_    0.688092 0.344131 0.482185 0.193848
H60   H     H_    0.469218 0.538253 0.006496 0.161477
H61   H     H_    0.778014 0.327276 0.493472 0.169837
H62   H     H_    0.818997 0.307169 0.359922 0.137851
H63   H     H_    0.817649 0.408564 0.390127 0.154368
H64   H     H_    0.730773 0.329323 0.351026 0.155939
H65   H     H_    0.634971 0.416753 0.203905 0.138282
H66   H     H_    0.588775 0.337658 0.134995 0.112357
H67   H     H_    0.574378 0.307584 0.289604 0.206570
H68   H     H_    0.530321 0.228911 0.220915 0.181307
H69   H     H_    0.677424 0.261066 0.149756 0.146663
H70   H     H_    0.667347 0.231802 0.236700 0.147860
H71   H     H_    0.488112 0.367836 0.088924 0.109278
H72   H     H_    0.721352 0.340345 0.218896 0.137288
H73   H     H_    0.254203 0.992685 0.273877 0.155223
H74   H     H_    0.256701 0.048902 0.359266 0.119270
H75   H     H_    0.250019 0.869378 0.320589 0.179007
H76   H     H_    0.255147 0.923527 0.408135 0.157564
H77   H     H_    0.117450 0.934596 0.410693 0.139153
H78   H     H_    0.106750 0.827650 0.397953 0.190148
H79   H     H_    0.111972 0.878312 0.323412 0.149014
H80   H     H_    0.841605 0.423662 0.795607 0.142430
H81   H     H_    0.876286 0.516925 0.755885 0.176775
H82   H     H_    0.422934 0.343659 0.749286 0.151243
H83   H     H_    0.989076 0.441449 0.793376 0.160828
H84   H     H_    0.031267 0.536641 0.750094 0.151703
H85   H     H_    0.959354 0.601451 0.854234 0.136258
H86   H     H_    0.029916 0.566314 0.879611 0.151737
H87   H     H_    0.916397 0.505986 0.897805 0.142071
H88   H     H_    0.804594 0.506143 0.541023 0.171750
H89   H     H_    0.828003 0.529508 0.282769 0.125748
H90   H     H_    0.908598 0.629258 0.253364 0.126082
H91   H     H_    0.714259 0.567958 0.268458 0.182762
H92   H     H_    0.791098 0.669425 0.243020 0.173202
H93   H     H_    0.519743 0.388515 0.977622 0.104273
H94   H     H_    0.856823 0.604989 0.135781 0.148459
H95   H     H_    0.743832 0.567978 0.138417 0.144697
H96   H     H_    0.785873 0.501418 0.161865 0.133339
H97   H     H_    0.197519 0.655242 0.263904 0.143569
H98   H     H_    0.180262 0.583953 0.324521 0.120909
H99   H     H_    0.306776 0.768152 0.313533 0.142796
H100  H     H_    0.277096 0.726248 0.397612 0.175333
H101  H     H_    0.325446 0.612209 0.342673 0.167018
H102  H     H_    0.409457 0.713997 0.327611 0.164893
H103  H     H_    0.353667 0.652493 0.256701 0.139595
H104  H     H_    0.681628 0.667264 0.702239 0.170914
H105  H     H_    0.152567 0.365009 0.638288 0.130709
H106  H     H_    0.198568 0.511956 0.470064 0.121177
H107  H     H_    0.843854 0.646659 0.679040 0.139816
H108  H     H_    0.922628 0.658785 0.602349 0.152729
H109  H     H_    0.934863 0.660845 0.757483 0.133225
H110  H     H_    0.011482 0.637486 0.687986 0.158865
H111  H     H_    0.054231 0.770334 0.636887 0.148833
H112  H     H_    0.064492 0.787797 0.728958 0.143981
H113  H     H_    0.976186 0.795618 0.704090 0.149331
H114  H     H_    0.175920 0.608691 0.447318 0.102647
O1    O     O_3   0.500000 0.500000 0.500000 -0.439448
O2    O     O_R   0.548260 0.471800 0.330740 -0.524585
O3    O     O_R   0.433390 0.433420 0.655640 -0.555166
O4    O     O_R   0.470210 0.546620 0.357990 -0.549842
O5    O     O_R   0.548140 0.548160 0.655640 -0.525960
O6    O     O_3   0.579126 0.625814 0.783391 -0.555715
O7    O     O_3   0.696249 0.125460 0.598264 -0.556612
O8    O     O_3   0.481801 0.188652 0.557739 -0.515312
O9    O     O_3   0.646725 0.833953 0.634206 -0.553784
O10   O     O_3   0.445381 0.790281 0.488158 -0.564152
O11   O     O_3   0.632576 0.192910 0.522590 -0.495034
O12   O     O_R   0.690590 0.583040 0.521630 -0.539998
O13   O     O_3   0.502281 0.363803 0.218263 -0.557274
O14   O     O_3   0.366165 0.025847 0.308154 -0.575059
O15   O     O_3   0.896649 0.416434 0.691318 -0.572810
O16   O     O_3   0.832310 0.636499 0.351298 -0.566144
O17   O     O_3   0.131098 0.677368 0.361525 -0.599969
O18   O     O_3   0.865624 0.540510 0.643300 -0.587731
O19   O     O_3   0.430405 0.301497 0.868174 -0.558565
O20   O     O_3   0.604428 0.597374 0.910419 -0.567642
O21   O     O_R   0.304570 0.412130 0.559980 -0.548912
O22   O     O_R   0.515630 0.331630 0.426410 -0.557188
O23   O     O_R   0.489210 0.673200 0.491990 -0.500212
O24   O     O_R   0.414390 0.306840 0.521640 -0.534179
O25   O     O_R   0.580770 0.688330 0.559970 -0.515772
O26   O     O_R   0.677090 0.493090 0.426400 -0.542171
O27   O     O_R   0.327750 0.511740 0.491990 -0.558944
Zn1   Zn    Zn3+2 0.578510 0.578520 0.558300 0.952870
Zn2   Zn    Zn3+2 0.559220 0.450000 0.422240 0.937219
Zn3   Zn    Zn3+2 0.447700 0.556900 0.461160 0.931014
Zn4   Zn    Zn3+2 0.414570 0.414580 0.558300 0.927001

loop_
_geom_bond_atom_site_label_1
_geom_bond_atom_site_label_2
_ccdc_geom_bond_type
C66   C68   S    
C87   C88   S    
C94   H7    S    
C93   C94   S    
C63   H42   S    
C63   O9    S    
C5    C56   A    
C92   H112  S    
C19   C20   A    
C81   H83   S    
C66   O10   S    
O1    Zn1   S    
C2    C12   S    
C93   H5    S    
C6    C9    A    
C97   C98   S    
C98   H17   S    
C61   H35   S    
C38   O18   S    
C55   H21   S    
C53   C54   S    
C85   H94   S    
C12   C23   A    
C77   H76   S    
C7    C26   A    
C56   O13   S    
C29   C47   A    
C8    H41   S    
C70   H58   S    
C88   H101  S    
C36   C37   A    
C73   H66   S    
C66   H50   S    
C60   O8    S    
C28   O27   A    
C30   C31   A    
C11   C14   A    
C85   H96   S    
C98   H16   S    
C1    O24   A    
C59   H29   S    
C82   H86   S    
C33   C36   A    
C41   C42   A    
C20   H40   S    
C76   H74   S    
C78   H23   S    
C22   C26   A    
O3    Zn4   S    
C61   H34   S    
C86   H98   S    
C57   H24   S    
C90   H108  S    
C41   H114  S    
C34   H82   S    
C84   C85   S    
C25   H1    S    
C15   C22   A    
C59   H31   S    
C47   O16   S    
C45   C56   A    
C68   C69   S    
C65   H46   S    
C3    H60   S    
C72   H63   S    
C79   H79   S    
C84   H92   S    
C70   C71   S    
C88   H103  S    
C45   C89   A    
C31   H105  S    
C5    C67   A    
C28   O21   A    
C83   O16   S    
C93   O19   S    
C94   H6    S    
C78   C89   A    
C21   C22   A    
C86   O17   S    
C83   H89   S    
C36   C41   A    
C61   C62   S    
C67   C78   A    
C81   H84   S    
C24   O14   S    
C18   O7    S    
C14   C19   A    
C60   H33   S    
C12   C52   A    
O21   Zn4   S    
C91   H110  S    
C57   C58   S    
C55   H22   S    
C77   C79   S    
C51   O6    S    
O4    Zn3   S    
C71   H59   S    
C46   H3    S    
C34   C50   A    
C74   C75   S    
C82   H87   S    
C27   C31   A    
C51   C52   A    
C80   H81   S    
C79   H77   S    
O1    Zn4   S    
C24   C25   A    
C66   H51   S    
C4    C6    S    
C10   C11   A    
C60   H32   S    
C91   C92   S    
C97   H14   S    
C86   C87   S    
C8    C9    A    
C29   C48   A    
C50   C51   A    
C16   C29   S    
C96   H12   S    
C82   H85   S    
C19   H27   S    
C81   C82   S    
C70   H57   S    
C49   O5    A    
C60   C61   S    
C80   H80   S    
C62   H37   S    
C32   H106  S    
C76   H73   S    
C35   C39   A    
C43   C44   A    
C42   O17   S    
O23   Zn3   S    
C48   H88   S    
C37   C38   A    
C17   O11   S    
C95   H8    S    
C86   H97   S    
C57   H25   S    
C90   H107  S    
C98   H18   S    
C83   C84   S    
O26   Zn2   S    
C1    O22   A    
C4    O25   A    
C23   C34   A    
C96   C97   S    
C40   O4    A    
C75   H72   S    
C17   C18   A    
C63   H43   S    
C21   C24   A    
C84   H91   S    
C46   C47   A    
C7    C25   A    
C2    H93   S    
O12   Zn1   S    
O5    Zn1   S    
C75   H70   S    
C95   H9    S    
C76   O14   S    
C13   C18   A    
C58   H28   S    
C30   H38   S    
O2    Zn2   S    
C67   H49   S    
C4    O23   A    
C83   H90   S    
C16   O12   A    
C58   C59   S    
C42   C43   A    
C87   H99   S    
C62   H39   S    
C97   H15   S    
C73   C74   S    
C30   C35   A    
C74   H68   S    
C71   H61   S    
O24   Zn4   S    
C53   H2    S    
C53   O6    S    
C15   C17   A    
C54   C55   S    
O1    Zn3   S    
C77   H75   S    
C27   C32   A    
C1    C7    S    
C69   H54   S    
C39   O15   S    
C79   H78   S    
C26   O8    S    
C52   O20   S    
C69   H56   S    
C80   C81   S    
C45   H71   S    
C93   H4    S    
C6    C10   A    
C91   H109  S    
C64   H45   S    
C70   O11   S    
C96   H11   S    
C49   O3    A    
C58   H26   S    
C53   H104  S    
C72   H62   S    
C3    C89   S    
C64   C65   S    
C62   H36   S    
C37   C44   A    
O1    Zn2   S    
C2    C3    D    
C59   H30   S    
C71   C72   S    
C73   H65   S    
C68   H53   S    
C32   C33   A    
C73   O13   S    
C76   C77   S    
C11   C13   A    
C88   H102  S    
C90   C91   S    
C38   C39   A    
C64   H44   S    
C33   C35   A    
C54   H13   S    
O27   Zn3   S    
C57   O7    S    
C96   O20   S    
C80   O15   S    
C94   C95   S    
C43   C46   A    
C69   H55   S    
C68   H52   S    
C95   H10   S    
C10   O10   S    
O22   Zn2   S    
C16   O26   A    
C63   C64   S    
C85   H95   S    
C8    C13   A    
C9    O9    S    
C92   H111  S    
C20   C21   A    
C49   C50   S    
C54   H19   S    
O25   Zn1   S    
C40   O2    A    
C27   C28   S    
C72   H64   S    
C14   C15   A    
C90   O18   S    
C92   H113  S    
C75   H69   S    
C87   H100  S    
C65   H48   S    
C5    C40   S    
C65   H47   S    
C74   H67   S    
C23   O19   S    
C44   C48   A    
C55   H20   S    
