data_mof_unit_19769.cif
_audit_creation_date              2013-03-05T15:51:58-0500
_audit_creation_method            fapswitch 2.2
_symmetry_space_group_name_H-M    P1
_symmetry_Int_Tables_number       1
_space_group_crystal_system       triclinic
_cell_length_a                    19.029968
_cell_length_b                    11.137297
_cell_length_c                    18.64388
_cell_angle_alpha                 89.783303
_cell_angle_beta                  90.182947
_cell_angle_gamma                 89.422105
_cell_volume                      3951.17889805

loop_
_atom_site_label
_atom_site_type_symbol
_atom_site_description
_atom_site_fract_x
_atom_site_fract_y
_atom_site_fract_z
_atom_type_partial_charge
O1    O     O_R   0.214300 0.709080 0.827500 -0.528829
O2    O     O_R   0.785700 0.709080 0.172500 -0.529505
O3    O     O_R   0.714300 0.209080 0.827500 -0.530347
O4    O     O_R   0.285700 0.209080 0.172500 -0.531253
O5    O     O_R   0.236190 0.958390 0.823150 -0.452765
O6    O     O_R   0.763810 0.958390 0.176850 -0.467750
O7    O     O_R   0.736190 0.458390 0.823150 -0.478785
O8    O     O_R   0.263810 0.458390 0.176850 -0.447978
C1    C     C_R   0.288212 0.002319 0.861198 0.544605
C2    C     C_R   0.708593 0.994103 0.139545 0.556898
C3    C     C_R   0.775313 0.534265 0.856573 0.557864
C4    C     C_R   0.210741 0.499432 0.138921 0.550929
O9    O     O_R   0.332090 0.075280 0.831290 -0.508869
O10   O     O_R   0.667910 0.075280 0.168710 -0.516714
O11   O     O_R   0.832090 0.575280 0.831290 -0.524289
O12   O     O_R   0.167910 0.575280 0.168710 -0.504356
O13   O     O_R   0.446280 0.918040 0.826620 -0.524539
O14   O     O_R   0.553720 0.918040 0.173380 -0.542723
O15   O     O_R   0.946280 0.418040 0.826620 -0.518960
O16   O     O_R   0.053720 0.418040 0.173380 -0.531855
C5    C     C_R   0.468073 0.820346 0.855986 0.571633
C6    C     C_R   0.530443 0.821781 0.144825 0.565135
C7    C     C_R   0.969090 0.320793 0.855392 0.568728
C8    C     C_R   0.031603 0.322205 0.144119 0.583808
O17   O     O_R   0.457080 0.716270 0.831760 -0.444489
O18   O     O_R   0.542920 0.716270 0.168240 -0.454336
O19   O     O_R   0.957080 0.216270 0.831760 -0.460930
O20   O     O_R   0.042920 0.216270 0.168240 -0.429537
O21   O     O_R   0.320980 0.624440 0.823040 -0.487463
O22   O     O_R   0.679020 0.624440 0.176960 -0.501274
O23   O     O_R   0.820980 0.124440 0.823040 -0.502611
O24   O     O_R   0.179020 0.124440 0.176960 -0.486893
C9    C     C_R   0.259327 0.633020 0.849799 0.539718
C10   C     C_R   0.740498 0.633400 0.150314 0.532801
C11   C     C_R   0.759234 0.133918 0.850893 0.523865
C12   C     C_R   0.240933 0.132996 0.150525 0.536560
O25   O     O_R   0.213880 0.710510 0.665560 -0.489984
O26   O     O_R   0.786120 0.710510 0.334440 -0.509701
O27   O     O_R   0.713880 0.210510 0.665560 -0.504999
O28   O     O_R   0.286120 0.210510 0.334440 -0.494017
O29   O     O_R   0.235800 0.959720 0.673040 -0.476970
O30   O     O_R   0.764200 0.959720 0.326960 -0.443204
O31   O     O_R   0.735800 0.459720 0.673040 -0.434713
O32   O     O_R   0.264200 0.459720 0.326960 -0.478615
C13   C     C_R   0.269102 0.052749 0.650503 0.563607
C14   C     C_R   0.728530 0.045962 0.353649 0.601845
C15   C     C_R   0.772090 0.541708 0.644735 0.568328
C16   C     C_R   0.231189 0.553142 0.349182 0.572032
O33   O     O_R   0.331670 0.076720 0.669350 -0.492901
O34   O     O_R   0.668330 0.076720 0.330650 -0.472212
O35   O     O_R   0.831670 0.576720 0.669350 -0.482355
O36   O     O_R   0.168330 0.576720 0.330650 -0.490497
O37   O     O_R   0.445900 0.919370 0.676500 -0.471356
O38   O     O_R   0.554100 0.919370 0.323500 -0.420475
O39   O     O_R   0.945900 0.419370 0.676500 -0.481904
O40   O     O_R   0.054100 0.419370 0.323500 -0.470597
C17   C     C_R   0.435556 0.820094 0.640341 0.527159
C18   C     C_R   0.524184 0.823853 0.348735 0.588477
C19   C     C_R   0.974116 0.323877 0.649895 0.552130
C20   C     C_R   0.064527 0.319636 0.359608 0.528348
O41   O     O_R   0.456660 0.717710 0.669820 -0.495722
O42   O     O_R   0.543340 0.717710 0.330180 -0.497081
O43   O     O_R   0.956660 0.217710 0.669820 -0.479543
O44   O     O_R   0.043340 0.217710 0.330180 -0.487464
O45   O     O_R   0.320590 0.625770 0.672930 -0.496226
O46   O     O_R   0.679410 0.625770 0.327070 -0.512701
O47   O     O_R   0.820590 0.125770 0.672930 -0.508302
O48   O     O_R   0.179410 0.125770 0.327070 -0.490507
C21   C     C_R   0.272371 0.679806 0.635237 0.526263
C22   C     C_R   0.741218 0.633098 0.354398 0.540368
C23   C     C_R   0.759685 0.134007 0.645055 0.543013
C24   C     C_R   0.227365 0.180059 0.364339 0.526564
Cr1   Cr    Cr6+3 0.229640 0.835880 0.747370 1.097046
Cr2   Cr    Cr6+3 0.770360 0.835880 0.252630 1.112327
Cr3   Cr    Cr6+3 0.729640 0.335880 0.747370 1.108756
Cr4   Cr    Cr6+3 0.270360 0.335880 0.252630 1.090924
Cr5   Cr    Cr6+3 0.387390 0.989720 0.750850 1.066956
Cr6   Cr    Cr6+3 0.612610 0.989720 0.249150 1.088913
Cr7   Cr    Cr6+3 0.887390 0.489720 0.750850 1.082803
Cr8   Cr    Cr6+3 0.112610 0.489720 0.249150 1.073488
Cr9   Cr    Cr6+3 0.385770 0.677220 0.749340 1.100922
Cr10  Cr    Cr6+3 0.614230 0.677220 0.250660 1.081743
Cr11  Cr    Cr6+3 0.885770 0.177220 0.749340 1.095913
Cr12  Cr    Cr6+3 0.114230 0.177220 0.250660 1.114366
O49   O     O_3   0.334270 0.834280 0.749190 -0.352534
O50   O     O_3   0.665730 0.834280 0.250810 -0.319044
O51   O     O_3   0.834270 0.334280 0.749190 -0.302156
O52   O     O_3   0.165730 0.334280 0.250810 -0.358973
C25   C     C_3   0.479060 0.933733 0.027004 -0.162812
C26   C     C_3   0.535428 0.913465 0.967971 -0.168466
C27   C     C_3   0.976847 0.433472 0.026930 -0.160063
C28   C     C_3   0.033439 0.421837 0.967303 -0.165763
C29   C     C_3   0.429474 0.843588 0.989129 -0.153586
C30   C     C_3   0.568214 0.807652 0.011645 -0.146239
C31   C     C_3   0.931074 0.338308 0.988811 -0.152576
C32   C     C_3   0.071414 0.319875 0.010150 -0.148147
H1    H     H_    0.372328 0.850106 0.978201 0.121828
H2    H     H_    0.624971 0.791619 0.022366 0.122045
H3    H     H_    0.873609 0.343445 0.978477 0.125985
H4    H     H_    0.128744 0.311352 0.020571 0.111967
H5    H     H_    0.465941 0.021880 0.050958 0.130015
H6    H     H_    0.561220 0.983376 0.935673 0.144474
H7    H     H_    0.960120 0.519136 0.051654 0.130268
H8    H     H_    0.055085 0.496612 0.935808 0.137079
C33   C     C_3   0.486746 0.824156 0.931485 0.001592
C34   C     C_3   0.510884 0.828220 0.069568 0.016875
C35   C     C_3   0.988736 0.326612 0.930555 0.005023
C36   C     C_3   0.013748 0.331344 0.068347 0.016626
C37   C     C_3   0.518181 0.720064 0.974703 0.228246
C38   C     C_3   0.462737 0.739850 0.032102 0.223693
C39   C     C_3   0.025368 0.226589 0.972937 0.220517
C40   C     C_3   0.969462 0.238324 0.030544 0.218940
C41   C     C_R   0.223257 0.524446 0.063381 0.020474
C42   C     C_R   0.763268 0.559383 0.932199 0.019211
C43   C     C_R   0.714260 0.002457 0.060631 0.018495
C44   C     C_R   0.275190 0.029707 0.936370 0.007733
C45   C     C_R   0.286809 0.495323 0.030041 0.117006
C46   C     C_R   0.703182 0.520618 0.967835 0.087040
C47   C     C_R   0.764936 0.941363 0.019425 -0.011037
C48   C     C_R   0.212243 0.000816 0.970140 0.098157
C49   C     C_R   0.297508 0.520752 0.957605 0.047736
C50   C     C_R   0.696979 0.532417 0.042082 0.034715
C51   C     C_R   0.778660 0.977538 0.949294 0.002606
C52   C     C_R   0.202075 0.024364 0.042805 0.038006
C53   C     C_R   0.178446 0.596136 0.949504 -0.181160
C54   C     C_R   0.816977 0.599053 0.047802 -0.170665
C55   C     C_R   0.675722 0.101667 0.950732 -0.169263
C56   C     C_R   0.321972 0.091971 0.051145 -0.169168
C57   C     C_R   0.169010 0.575321 0.022150 -0.181446
C58   C     C_R   0.820753 0.597594 0.973701 -0.180129
C59   C     C_R   0.664739 0.072545 0.022664 -0.156873
C60   C     C_R   0.329858 0.077267 0.977733 -0.186982
C61   C     C_3   0.317842 0.373410 0.023565 -0.254297
C62   C     C_3   0.675523 0.396317 0.968691 -0.237983
C63   C     C_3   0.840429 0.914781 0.032862 -0.214813
C64   C     C_3   0.181571 0.879438 0.975823 -0.244239
C65   C     C_3   0.330273 0.400233 0.945339 -0.264548
C66   C     C_3   0.666867 0.409289 0.048564 -0.269795
C67   C     C_3   0.855680 0.959536 0.957183 -0.208478
C68   C     C_3   0.168746 0.904853 0.054102 -0.252914
C69   C     C_R   0.243400 0.572150 0.916816 0.002685
C70   C     C_R   0.753737 0.574938 0.082240 0.016014
C71   C     C_R   0.738204 0.066849 0.915684 0.021850
C72   C     C_R   0.256865 0.071245 0.083813 0.008693
H9    H     H_    0.136287 0.640261 0.920148 0.146327
H10   H     H_    0.862047 0.629014 0.078108 0.139008
H11   H     H_    0.637925 0.161442 0.925296 0.141947
H12   H     H_    0.364969 0.130560 0.081076 0.145886
H13   H     H_    0.118787 0.598491 0.045856 0.151770
H14   H     H_    0.870352 0.621730 0.949524 0.153673
H15   H     H_    0.619437 0.111542 0.049201 0.147768
H16   H     H_    0.379894 0.099493 0.953808 0.154024
H17   H     H_    0.851661 0.818585 0.038930 0.135229
H18   H     H_    0.222875 0.810244 0.967308 0.133356
H19   H     H_    0.276671 0.305390 0.032026 0.127501
H20   H     H_    0.717085 0.330263 0.954174 0.135629
H21   H     H_    0.366850 0.361893 0.055481 0.200217
H22   H     H_    0.625220 0.387561 0.939053 0.214094
H23   H     H_    0.860228 0.967298 0.077839 0.253120
H24   H     H_    0.132904 0.869690 0.943495 0.209715
H25   H     H_    0.386780 0.406415 0.931412 0.207886
H26   H     H_    0.610968 0.412039 0.065677 0.194776
H27   H     H_    0.884316 0.045748 0.955204 0.202071
H28   H     H_    0.112076 0.913608 0.067580 0.206093
H29   H     H_    0.298909 0.342970 0.908680 0.157907
H30   H     H_    0.700868 0.346395 0.080019 0.159922
H31   H     H_    0.876116 0.888038 0.921180 0.160561
H32   H     H_    0.199536 0.845071 0.090704 0.169576
C73   C     C_R   0.481801 0.827024 0.414962 0.078197
C74   C     C_R   0.443666 0.827162 0.561872 -0.020273
C75   C     C_R   0.057384 0.328167 0.438228 -0.030379
C76   C     C_R   0.016275 0.329380 0.584040 0.027873
C77   C     C_R   0.490457 0.728230 0.458748 0.083558
C78   C     C_R   0.470917 0.727793 0.528655 -0.029943
C79   C     C_R   0.034256 0.227752 0.472652 -0.039362
C80   C     C_R   0.013806 0.228056 0.542445 0.086762
C81   C     C_R   0.422866 0.924022 0.516976 -0.128352
C82   C     C_R   0.440515 0.922929 0.442514 -0.075226
C83   C     C_R   0.052424 0.429001 0.555601 -0.098376
C84   C     C_R   0.072175 0.429113 0.481630 -0.120609
C85   C     C_3   0.554654 0.655937 0.473528 -0.194256
C86   C     C_3   0.531301 0.653878 0.550731 -0.158595
C87   C     C_3   0.976281 0.151609 0.450452 -0.159758
C88   C     C_3   0.952061 0.152928 0.526989 -0.197947
H33   H     H_    0.396264 0.000514 0.539589 0.174999
H34   H     H_    0.425341 0.997913 0.408791 0.179826
H35   H     H_    0.061803 0.506929 0.588551 0.188265
H36   H     H_    0.095120 0.507971 0.458164 0.189528
H37   H     H_    0.999683 0.066277 0.430918 0.265425
H38   H     H_    0.902076 0.203974 0.534402 0.117480
H39   H     H_    0.603773 0.707483 0.465162 0.139754
H40   H     H_    0.510234 0.567416 0.570441 0.267053
H41   H     H_    0.552117 0.569050 0.445230 0.233246
H42   H     H_    0.567527 0.702673 0.587169 0.184572
H43   H     H_    0.939181 0.199898 0.413884 0.192844
H44   H     H_    0.955537 0.065329 0.554917 0.247429
C89   C     C_R   0.255867 0.616180 0.412211 -0.013317
C90   C     C_R   0.758757 0.560023 0.569651 -0.029878
C91   C     C_R   0.749193 0.090877 0.422859 0.017788
C92   C     C_R   0.244814 0.116316 0.587199 -0.015319
C93   C     C_R   0.201819 0.667709 0.451291 -0.014258
C94   C     C_R   0.817465 0.595266 0.531976 -0.006510
C95   C     C_R   0.700843 0.159536 0.462259 -0.044452
C96   C     C_R   0.298690 0.167006 0.547722 -0.016649
C97   C     C_R   0.205273 0.675610 0.524346 -0.052982
C98   C     C_R   0.816839 0.599557 0.458580 -0.040723
C99   C     C_R   0.701340 0.152983 0.534632 -0.034326
C100  C     C_R   0.293793 0.178174 0.475044 -0.049466
C101  C     C_R   0.323383 0.596146 0.522276 -0.172556
C102  C     C_R   0.703282 0.508206 0.456381 -0.160326
C103  C     C_R   0.805519 0.033904 0.535705 -0.173119
C104  C     C_R   0.177761 0.094870 0.477437 -0.173039
C105  C     C_R   0.319852 0.586870 0.446872 0.145805
C106  C     C_R   0.701029 0.508976 0.531941 0.166294
C107  C     C_R   0.807451 0.038481 0.459959 0.141853
C108  C     C_R   0.181307 0.086904 0.552844 0.144346
C109  C     C_3   0.172624 0.792050 0.443986 0.083744
C110  C     C_3   0.851856 0.713725 0.539898 0.108038
C111  C     C_3   0.621928 0.179423 0.466257 0.142674
C112  C     C_3   0.329543 0.289202 0.555326 0.091172
C113  C     C_3   0.170645 0.795162 0.524826 -0.175313
C114  C     C_3   0.852174 0.717937 0.459728 -0.138670
C115  C     C_3   0.625359 0.163868 0.547083 -0.145483
C116  C     C_3   0.326436 0.298147 0.474556 -0.176744
C117  C     C_R   0.266031 0.643026 0.561033 -0.045399
C118  C     C_R   0.756856 0.568564 0.420378 -0.032757
C119  C     C_R   0.751142 0.091138 0.573131 -0.023915
C120  C     C_R   0.233828 0.144207 0.438646 -0.044925
H45   H     H_    0.371068 0.570646 0.550269 0.192307
H46   H     H_    0.658793 0.476405 0.425977 0.157027
H47   H     H_    0.847510 0.991037 0.565652 0.173637
H48   H     H_    0.130941 0.066966 0.449525 0.191924
H49   H     H_    0.210497 0.856053 0.419799 0.115582
H50   H     H_    0.817148 0.781879 0.565721 0.096416
H51   H     H_    0.606403 0.269169 0.445695 0.179495
H52   H     H_    0.294358 0.353884 0.583588 0.118717
H53   H     H_    0.205933 0.862707 0.548273 0.121000
H54   H     H_    0.816393 0.791020 0.441922 0.167823
H55   H     H_    0.611351 0.240098 0.581406 0.236547
H56   H     H_    0.288317 0.366328 0.455011 0.111726
H57   H     H_    0.117718 0.786819 0.549016 0.255621
H58   H     H_    0.904439 0.712508 0.433365 0.254661
H59   H     H_    0.603564 0.078432 0.568174 0.176048
H60   H     H_    0.377736 0.293333 0.446621 0.246431
N1    N     N_R   0.379985 0.547106 0.406500 0.068252
O53   O     O_R   0.430734 0.487752 0.437729 -0.364305
O54   O     O_R   0.388196 0.582059 0.340384 -0.297117
N2    N     N_R   0.637980 0.468614 0.567393 0.048254
O55   O     O_R   0.589021 0.418529 0.529677 -0.419187
O56   O     O_R   0.620566 0.507224 0.630775 -0.324862
N3    N     N_R   0.867427 0.989238 0.422430 0.036092
O57   O     O_R   0.914621 0.927498 0.457612 -0.371290
O58   O     O_R   0.883179 0.025704 0.358016 -0.311023
N4    N     N_R   0.121820 0.047799 0.593831 0.072916
O59   O     O_R   0.072827 0.984661 0.564010 -0.354055
O60   O     O_R   0.112431 0.086278 0.658981 -0.292339
N5    N     N_R   0.103146 0.796802 0.410211 0.115538
O61   O     O_R   0.090825 0.874073 0.359120 -0.310463
O62   O     O_R   0.053792 0.723408 0.429168 -0.281474
N6    N     N_R   0.921922 0.707142 0.571656 0.137175
O63   O     O_R   0.937486 0.775832 0.625570 -0.300330
O64   O     O_R   0.970797 0.641531 0.542761 -0.327437
N7    N     N_R   0.580547 0.085670 0.435351 0.105931
O65   O     O_R   0.528968 0.115216 0.392730 -0.335288
O66   O     O_R   0.593118 0.974276 0.452938 -0.398723
N8    N     N_R   0.401378 0.286424 0.583688 0.116325
O67   O     O_R   0.418258 0.357479 0.636043 -0.309212
O68   O     O_R   0.449130 0.215528 0.556645 -0.312937
N9    N     N_R   0.539588 0.607251 0.941697 0.085114
O69   O     O_R   0.508443 0.507869 0.958596 -0.352176
O70   O     O_R   0.582380 0.608901 0.887461 -0.337083
N10   N     N_R   0.422457 0.651115 0.071643 0.091558
O71   O     O_R   0.452224 0.550195 0.090454 -0.295266
O72   O     O_R   0.366535 0.686715 0.105732 -0.341319
N11   N     N_R   0.051933 0.117405 0.939354 0.086121
O73   O     O_R   0.023884 0.014221 0.953691 -0.352173
O74   O     O_R   0.097682 0.125302 0.887931 -0.318365
N12   N     N_R   0.936290 0.144624 0.072021 0.054291
O75   O     O_R   0.973693 0.051061 0.090681 -0.312514
O76   O     O_R   0.881401 0.173378 0.109968 -0.354150

loop_
_geom_bond_atom_site_label_1
_geom_bond_atom_site_label_2
_geom_bond_distance
_ccdc_geom_bond_type
O4    C12   1.275377 A    
C61   C65   1.507513 S    
O39   C19   1.288265 A    
C59   H15   1.083247 S    
C64   C68   1.507854 S    
C45   C61   1.480684 S    
Cr7   O51   2.013782 S    
C114  H58   1.112018 S    
C13   C92   1.446159 S    
C63   C67   1.524360 S    
O25   C21   1.293564 A    
C104  H48   1.079387 S    
C31   H3    1.110671 S    
O21   C9    1.279215 A    
C109  N5    1.463047 S    
C80   C88   1.477588 S    
C1    O9    1.296786 A    
O44   Cr12  2.055918 S    
N4    O60   1.301809 A    
C3    O11   1.268798 A    
C4    O12   1.295736 A    
C115  H59   1.112754 S    
N10   O71   1.300037 A    
C25   C34   1.533934 S    
C98   C118  1.390682 A    
C15   C90   1.435300 S    
C86   H42   1.113300 S    
C29   C38   1.533774 S    
O2    C10   1.279244 A    
C32   C36   1.550369 S    
N1    O53   1.299734 A    
C107  N3    1.445120 S    
C42   C58   1.408185 A    
C86   H40   1.108642 S    
C87   H37   1.108736 S    
N2    O56   1.301760 A    
O31   Cr3   1.956104 S    
C63   H23   1.092413 S    
O16   Cr8   1.976176 S    
C22   C118  1.450866 S    
N7    O65   1.299876 A    
C109  H49   1.113955 S    
C101  C105  1.411438 A    
O28   Cr4   2.082902 S    
C113  H53   1.103975 S    
O12   Cr8   2.069815 S    
O22   Cr10  1.938050 S    
O15   C7    1.278222 A    
C87   C88   1.501007 S    
O46   Cr10  1.965832 S    
C79   C80   1.359361 A    
O14   Cr6   1.976176 S    
C7    C35   1.451054 S    
C66   H26   1.111708 S    
C55   C71   1.410217 A    
C67   H31   1.111468 S    
C56   C72   1.403148 A    
C76   C83   1.413738 A    
N9    O70   1.300528 A    
C60   H16   1.083301 S    
C90   C106  1.426557 A    
C79   C87   1.458167 S    
C74   C78   1.368538 A    
N7    O66   1.301667 A    
C25   H5    1.106622 S    
C1    C44   1.456912 S    
Cr12  O52   2.013671 S    
C26   C33   1.526442 S    
C27   H7    1.105524 S    
C17   O41   1.322197 A    
C47   C51   1.393004 A    
C30   C37   1.533656 S    
C19   O43   1.285247 A    
C20   O44   1.328437 A    
C12   C72   1.454842 S    
Cr8   O52   1.995973 S    
C115  H55   1.096350 S    
C65   H25   1.109802 S    
O46   C22   1.283791 A    
C75   C79   1.364791 A    
C55   C59   1.395439 A    
C28   H8    1.101261 S    
C82   H34   1.079873 S    
C53   C57   1.385786 A    
C16   O36   1.268687 A    
C54   C58   1.383777 A    
O31   C15   1.265153 A    
C53   H9    1.082550 S    
O32   C16   1.280854 A    
C38   N10   1.456388 S    
C99   C115  1.469035 S    
C26   C30   1.554249 S    
C39   C40   1.519212 S    
C78   C86   1.463852 S    
C113  H57   1.109471 S    
C57   H13   1.083504 S    
C91   C107  1.423745 A    
O24   C12   1.282876 A    
C51   C67   1.484096 S    
O8    Cr4   1.963203 S    
N5    O61   1.300459 A    
C46   C50   1.396244 A    
C49   C65   1.493005 S    
O32   Cr4   1.961819 S    
C26   H6    1.102631 S    
O11   Cr7   2.065259 S    
C53   C69   1.403590 A    
C58   H14   1.083159 S    
C37   N9    1.456152 S    
O27   Cr3   2.094658 S    
O3    Cr3   2.075218 S    
C46   C62   1.486060 S    
C92   C96   1.387428 A    
Cr5   O49   2.013782 S    
C102  C118  1.398796 A    
C40   N12   1.447680 S    
C32   C39   1.532492 S    
O22   C10   1.277167 A    
C111  H51   1.106224 S    
C18   C73   1.477305 S    
C2    O10   1.305642 A    
C27   C28   1.555113 S    
C9    C69   1.453538 S    
O27   C23   1.273392 A    
C44   C48   1.394952 A    
O5    C1    1.315494 A    
C44   C60   1.402367 A    
O3    C11   1.265922 A    
O8    C4    1.308652 A    
C105  N1    1.438735 S    
C116  H56   1.104858 S    
Cr1   O49   1.991187 S    
N8    O68   1.301879 A    
C41   C45   1.397356 A    
Cr3   O51   1.991187 S    
C62   H22   1.109086 S    
C43   C47   1.406632 A    
C24   C120  1.444837 S    
C88   H38   1.112492 S    
C29   H1    1.107369 S    
C17   C74   1.473472 S    
O26   Cr2   2.082902 S    
C5    O17   1.264750 A    
O29   C13   1.289695 A    
O28   C24   1.298493 A    
O14   C6    1.281153 A    
C20   C75   1.475840 S    
C35   C39   1.524930 S    
C8    O20   1.277054 A    
N6    O63   1.300717 A    
Cr11  O51   1.996405 S    
C68   H28   1.111500 S    
O40   Cr8   1.947909 S    
C66   H30   1.112901 S    
C110  N6    1.458218 S    
C94   C110  1.486267 S    
C67   H27   1.109346 S    
O41   Cr9   2.059423 S    
C100  C120  1.382576 A    
C14   C91   1.440630 S    
C98   C114  1.486232 S    
C32   H4    1.110598 S    
C92   C108  1.408103 A    
O33   Cr5   2.080831 S    
C61   H21   1.110759 S    
O5    Cr1   1.972356 S    
O35   Cr7   2.080831 S    
O29   Cr1   1.956104 S    
C64   H24   1.109831 S    
N10   O72   1.300530 A    
C93   C97   1.366630 A    
N12   O75   1.301624 A    
Cr9   O49   1.996405 S    
C76   C80   1.372770 A    
C18   O42   1.282671 A    
O17   Cr9   2.096553 S    
O26   C22   1.275299 A    
O20   Cr12  2.088448 S    
N11   O73   1.299211 A    
C65   H29   1.112853 S    
N3    O57   1.299999 A    
C85   C86   1.507936 S    
O47   Cr11  1.976239 S    
C103  H47   1.079645 S    
C96   C112  1.494660 S    
C31   C40   1.533768 S    
O38   C18   1.298947 A    
C83   H35   1.081185 S    
C30   H2    1.110364 S    
C81   H33   1.074777 S    
O30   C14   1.274178 A    
C33   C37   1.525432 S    
C84   H36   1.076777 S    
C62   H20   1.109583 S    
C87   H43   1.113094 S    
C97   C117  1.385991 A    
C8    C36   1.454865 S    
C85   H41   1.105309 S    
O42   Cr10  2.055918 S    
C77   C85   1.480872 S    
O18   Cr10  2.088448 S    
N9    O69   1.299016 A    
C91   C95   1.401882 A    
C101  C117  1.407935 A    
O34   Cr6   2.096087 S    
O6    Cr2   1.963203 S    
O24   Cr12  1.938050 S    
O30   Cr2   1.961819 S    
C74   C81   1.415437 A    
O1    C9    1.266904 A    
O48   Cr12  1.965832 S    
C49   C69   1.394984 A    
C111  N7    1.435498 S    
C50   C66   1.496156 S    
C109  C113  1.508281 S    
O37   C17   1.313350 A    
C56   H12   1.082402 S    
C15   O35   1.286512 A    
Cr10  O50   2.013671 S    
C54   C70   1.393846 A    
C47   C63   1.484208 S    
C36   C40   1.516440 S    
O43   Cr11  2.059423 S    
C48   C64   1.481408 S    
O37   Cr5   1.943086 S    
O21   Cr9   1.942436 S    
N4    O59   1.298337 A    
O39   Cr7   1.943086 S    
O45   Cr9   1.976239 S    
C13   O33   1.271561 A    
O13   Cr5   1.962681 S    
C102  H46   1.080749 S    
O15   Cr7   1.962681 S    
C31   C35   1.551287 S    
C99   C119  1.366231 A    
N1    O54   1.301630 A    
O23   C11   1.289686 A    
C100  C116  1.479181 S    
C19   C76   1.470226 S    
C89   C105  1.411431 A    
N2    O55   1.297280 A    
C10   C70   1.450223 S    
C27   C36   1.535208 S    
C52   C68   1.494675 S    
C21   C117  1.449316 S    
O6    C2    1.315626 A    
O1    Cr1   2.075218 S    
O19   Cr11  2.096553 S    
C88   H44   1.105421 S    
C37   C38   1.520284 S    
C85   H39   1.112965 S    
O45   C21   1.295985 A    
O47   C23   1.271013 A    
O13   C5    1.280830 A    
C111  C115  1.517299 S    
C83   C84   1.430565 A    
C104  C120  1.406099 A    
O40   C20   1.309737 A    
C81   C82   1.429414 A    
C6    O18   1.271863 A    
C106  N2    1.446457 S    
C25   C26   1.554822 S    
O36   Cr8   2.096087 S    
C5    C33   1.451533 S    
C11   C71   1.476344 S    
O38   Cr6   1.947909 S    
C68   H32   1.112854 S    
C103  C107  1.413535 A    
C28   C32   1.556541 S    
C112  N8    1.464152 S    
C54   H10   1.081806 S    
O23   Cr11  1.942436 S    
C43   C59   1.405404 A    
C77   C78   1.356483 A    
O7    C3    1.292443 A    
C41   C57   1.399112 A    
N11   O74   1.300410 A    
N3    O58   1.303121 A    
C64   H18   1.107442 S    
C3    C42   1.456896 S    
C45   C49   1.394813 A    
C29   C33   1.547315 S    
C104  C108  1.409690 A    
C89   C93   1.383517 A    
C7    O19   1.268896 A    
Cr4   O52   1.991549 S    
O2    Cr2   2.078897 S    
O48   C24   1.300568 A    
Cr6   O50   1.995973 S    
C103  C119  1.399526 A    
C102  C106  1.409576 A    
C25   C29   1.554739 S    
C56   C60   1.387505 A    
C110  C114  1.495270 S    
O9    Cr5   2.065259 S    
O16   C8    1.275141 A    
C110  H50   1.113045 S    
N6    O64   1.296806 A    
C116  H60   1.108876 S    
O7    Cr3   1.972356 S    
C6    C34   1.451798 S    
C95   C99   1.351006 A    
C114  H54   1.105311 S    
N5    O62   1.300232 A    
C90   C94   1.381076 A    
C28   C35   1.528985 S    
C101  H45   1.080355 S    
Cr2   O50   1.991549 S    
C108  N4    1.438090 S    
C42   C46   1.395659 A    
C96   C100  1.363034 A    
C39   N11   1.456591 S    
N12   O76   1.301467 A    
C75   C84   1.417666 A    
C50   C70   1.399751 A    
C73   C82   1.418390 A    
C112  C116  1.509701 S    
C4    C41   1.455442 S    
C34   C38   1.521634 S    
O25   Cr1   2.094658 S    
C30   C34   1.553481 S    
C73   C77   1.375836 A    
C61   H19   1.106557 S    
C23   C119  1.434403 S    
C112  H52   1.113697 S    
C62   C66   1.506086 S    
C14   O34   1.265494 A    
C63   H17   1.095726 S    
C95   C111  1.517904 S    
C16   C89   1.450411 S    
C93   C109  1.492488 S    
C97   C113  1.479731 S    
O10   Cr6   2.069815 S    
O4    Cr4   2.078897 S    
N8    O67   1.300453 A    
C27   C31   1.551613 S    
C94   C98   1.369059 A    
C51   C71   1.396960 A    
C52   C72   1.397566 A    
C2    C43   1.478215 S    
C48   C52   1.394607 A    
C55   H11   1.082222 S    
