data_mof_unit_26399.cif
_audit_creation_date              2012-12-10T18:19:13-0500
_audit_creation_method            fapswitch 2.2
_symmetry_space_group_name_H-M    P1
_symmetry_Int_Tables_number       1
_space_group_crystal_system       triclinic
_cell_length_a                    14.964282
_cell_length_b                    14.044252
_cell_length_c                    11.535924
_cell_angle_alpha                 89.964888
_cell_angle_beta                  90.643863
_cell_angle_gamma                 90.3231
_cell_volume                      2424.22256996

loop_
_atom_site_label
_atom_site_type_symbol
_atom_type_description
_atom_site_fract_x
_atom_site_fract_y
_atom_site_fract_z
_atom_type_partial_charge
C1    C     C_R   0.327116 0.499565 0.498871 0.924088
C2    C     C_R   0.428314 0.201773 0.542054 0.026654
C3    C     C_R   0.428363 0.797338 0.542101 0.017601
C4    C     C_R   0.572147 0.202598 0.459400 0.008571
C5    C     C_R   0.425014 0.898210 0.541517 -0.059223
C6    C     C_R   0.575501 0.101745 0.460401 -0.054099
C7    C     C_R   0.573980 0.899187 0.455858 -0.052238
C8    C     C_R   0.426180 0.100835 0.544947 -0.057440
C9    C     C_R   0.499740 0.949464 0.499441 0.087371
C10   C     C_R   0.500503 0.050525 0.501703 0.087001
C11   C     C_R   0.350270 0.948412 0.584504 -0.105753
C12   C     C_R   0.673045 0.500188 0.501245 0.965381
C13   C     C_R   0.650728 0.051531 0.418971 -0.112452
C14   C     C_R   0.649384 0.950375 0.414930 -0.096300
C15   C     C_R   0.351195 0.049640 0.587167 -0.096586
C16   C     C_R   0.500644 0.500063 0.281812 0.968662
C17   C     C_R   0.498908 0.499941 0.718173 0.973387
C18   C     C_1   0.500864 0.500196 0.161417 -0.108982
C19   C     C_1   0.498956 0.499866 0.838557 -0.108351
C20   C     C_1   0.500427 0.500133 0.059272 0.037079
C21   C     C_1   0.499538 0.499964 0.940699 0.031945
C22   C     C_R   0.811772 0.456148 0.407374 -0.056725
C23   C     C_R   0.904971 0.448582 0.410074 0.037300
C24   C     C_R   0.188803 0.510536 0.607316 -0.065078
C25   C     C_R   0.768955 0.498847 0.501452 -0.209562
C26   C     C_R   0.231536 0.496702 0.501228 -0.203300
C27   C     C_R   0.816293 0.531210 0.599742 -0.077330
C28   C     C_R   0.184686 0.469716 0.400303 -0.057232
C29   C     C_R   0.908014 0.510663 0.609968 -0.002514
C30   C     C_R   0.092541 0.450282 0.407080 -0.002277
C31   C     C_R   0.953257 0.477408 0.510435 0.072843
C32   C     C_R   0.047180 0.476379 0.509679 0.067063
C33   C     C_2   0.758664 0.426155 0.303471 0.884024
C34   C     C_R   0.095472 0.504339 0.610426 0.039088
C35   C     C_2   0.242263 0.531968 0.713865 0.869392
C36   C     C_2   0.771887 0.595550 0.683511 0.941029
C37   C     C_2   0.230437 0.474415 0.286586 0.902147
C38   C     C_2   0.914314 0.526086 0.830909 0.974066
C39   C     C_2   0.084975 0.350654 0.221597 0.961708
C40   C     C_2   0.271153 0.895449 0.628289 0.965508
C41   C     C_2   0.731336 0.104387 0.379909 0.974581
C42   C     C_2   0.728115 0.898480 0.370148 0.947150
C43   C     C_2   0.272586 0.101545 0.632373 0.949005
C44   C     C_R   0.956740 0.523868 0.715090 -0.053414
C45   C     C_R   0.043431 0.408305 0.314190 -0.041925
C46   C     C_R   0.049515 0.524394 0.712645 -0.184895
C47   C     C_R   0.950795 0.411820 0.314927 -0.205232
C48   C     C_R   0.571569 0.798256 0.457730 0.012321
H1    H     H_    0.627035 0.756862 0.427100 0.172091
H2    H     H_    0.174875 0.250134 0.180027 0.370621
H3    H     H_    0.085460 0.539291 0.792582 0.211206
H4    H     H_    0.914943 0.383587 0.240504 0.207384
H5    H     H_    0.173404 0.799339 0.595457 0.372232
H6    H     H_    0.830469 0.196866 0.420783 0.379371
H7    H     H_    0.776311 0.806185 0.252793 0.372706
H8    H     H_    0.225009 0.195275 0.748512 0.373753
H9    H     H_    0.372657 0.243190 0.572043 0.171855
H10   H     H_    0.374582 0.755272 0.577336 0.193452
H11   H     H_    0.626391 0.244500 0.424972 0.180067
H12   H     H_    0.717854 0.319049 0.198932 0.362108
H13   H     H_    0.281539 0.489299 0.873316 0.355635
H14   H     H_    0.671734 0.615824 0.795927 0.351945
H15   H     H_    0.325061 0.421828 0.182153 0.337088
H16   H     H_    0.820676 0.471658 0.937031 0.368241
N1    N     N_R   0.500000 0.750030 0.500000 -0.126394
N2    N     N_R   0.500000 0.249970 0.500000 -0.122716
O1    O     O_R   0.367850 0.580280 0.500030 -0.604149
O2    O     O_R   0.757044 0.330587 0.269845 -0.797203
O3    O     O_2   0.285373 0.605996 0.720744 -0.608605
O4    O     O_R   0.242834 0.467066 0.805784 -0.775568
O5    O     O_2   0.803874 0.674296 0.703241 -0.577084
O6    O     O_R   0.694735 0.565885 0.740470 -0.791240
O7    O     O_2   0.202767 0.528591 0.211481 -0.579506
O8    O     O_R   0.303201 0.415511 0.264640 -0.769022
O9    O     O_2   0.943448 0.579331 0.906420 -0.554082
O10   O     O_R   0.843371 0.464204 0.855064 -0.761879
O11   O     O_2   0.058198 0.357295 0.121342 -0.564401
O12   O     O_R   0.632150 0.419720 0.499970 -0.616996
O13   O     O_R   0.152290 0.285800 0.250138 -0.755439
O14   O     O_2   0.245582 0.908598 0.727281 -0.554744
O15   O     O_R   0.225633 0.831407 0.555683 -0.762741
O16   O     O_2   0.759105 0.093063 0.281611 -0.556222
O17   O     O_R   0.775950 0.165934 0.456555 -0.756412
O18   O     O_2   0.801549 0.909891 0.415784 -0.551324
O19   O     O_R   0.718094 0.837485 0.275092 -0.770927
O20   O     O_2   0.198723 0.088755 0.588493 -0.552935
O21   O     O_R   0.283187 0.164054 0.725876 -0.774556
O22   O     O_R   0.632150 0.580280 0.499970 -0.620607
O23   O     O_R   0.367850 0.419720 0.500030 -0.600054
O24   O     O_R   0.500010 0.580270 0.334450 -0.604681
O25   O     O_R   0.499990 0.419730 0.665550 -0.608336
O26   O     O_R   0.499990 0.580270 0.665550 -0.594771
O27   O     O_R   0.500010 0.419730 0.334450 -0.598143
O28   O     O_2   0.715795 0.485197 0.248688 -0.632479
Zn1   Zn    Zn3+2 0.500000 0.607200 0.500000 1.023388
Zn2   Zn    Zn3+2 0.500000 0.392800 0.500000 1.026021

loop_
_geom_bond_atom_site_label_1
_geom_bond_atom_site_label_2
_ccdc_geom_bond_type
H13   O4    S    
C30   C32   A    
C37   O8    S    
C16   O24   A    
C27   C29   A    
C30   C45   A    
C17   O25   A    
H2    O13   S    
C13   C41   S    
C2    H9    S    
O24   Zn1   S    
C38   O10   S    
C5    C9    A    
C16   O27   A    
C39   O11   D    
C19   C21   T    
C24   C26   A    
C5    C11   A    
C39   O13   S    
C41   O17   S    
H5    O15   S    
C17   C19   S    
O25   Zn2   S    
C11   C15   A    
C7    C14   A    
C35   O4    S    
O12   Zn2   S    
C22   C25   A    
C12   O12   A    
C40   O14   D    
C34   C46   A    
C48   N1    A    
C9    C10   A    
C36   O5    D    
C14   C42   S    
O22   Zn1   S    
C13   C14   A    
C33   O28   D    
O1    Zn1   S    
C3    N1    A    
C17   O26   A    
H6    O17   S    
C44   C46   A    
C38   O9    D    
C45   C47   A    
C24   C35   S    
C23   C47   A    
C12   O22   A    
C42   O18   D    
C4    C6    A    
H8    O21   S    
C8    C15   A    
C3    C5    A    
C46   H3    S    
O26   Zn1   S    
C24   C34   A    
C32   C34   A    
H7    O19   S    
C38   C44   S    
C31   C32   A    
H16   O10   S    
H14   O6    S    
C42   O19   S    
H12   O2    S    
C8    C10   A    
C48   H1    S    
O27   Zn2   S    
C29   C44   A    
C1    C26   S    
N2    Zn2   S    
C7    C9    A    
C22   C33   S    
C37   O7    D    
C1    O23   A    
C43   O20   D    
C40   O15   S    
C2    C8    A    
C2    N2    A    
C6    C10   A    
C47   H4    S    
H15   O8    S    
C27   C36   S    
C25   C27   A    
C26   C28   A    
C39   C45   S    
C12   C25   S    
C43   O21   S    
C7    C48   A    
O23   Zn2   S    
C28   C30   A    
C15   C43   S    
C29   C31   A    
C6    C13   A    
C4    N2    A    
C28   C37   S    
C41   O16   D    
C4    H11   S    
C1    O1    A    
C18   C20   T    
C11   C40   S    
C3    H10   S    
N1    Zn1   S    
C20   C21   S    
C35   O3    D    
C16   C18   S    
C22   C23   A    
C36   O6    S    
C33   O2    S    
C23   C31   A    
