data_mof_unit_26440.cif
_audit_creation_date              2012-12-11T15:11:43-0500
_audit_creation_method            fapswitch 2.2
_symmetry_space_group_name_H-M    P1
_symmetry_Int_Tables_number       1
_space_group_crystal_system       triclinic
_cell_length_a                    19.815038
_cell_length_b                    7.177276
_cell_length_c                    14.129127
_cell_angle_alpha                 90.001437
_cell_angle_beta                  102.634464
_cell_angle_gamma                 89.999082
_cell_volume                      1960.75886772

loop_
_atom_site_label
_atom_site_type_symbol
_atom_type_description
_atom_site_fract_x
_atom_site_fract_y
_atom_site_fract_z
_atom_type_partial_charge
O1    O     O_R   0.449830 0.506740 0.599960 -0.540829
O2    O     O_R   0.550170 0.006740 0.400040 -0.540842
O3    O     O_R   0.588980 0.179860 0.596720 -0.530249
O4    O     O_R   0.411020 0.679860 0.403280 -0.530243
C1    C     C_R   0.617962 0.343387 0.613891 0.669433
C2    C     C_R   0.382041 0.843388 0.386097 0.669435
O5    O     O_R   0.452740 0.177340 0.612040 -0.539385
O6    O     O_R   0.547260 0.677340 0.387960 -0.539387
O7    O     O_R   0.412960 0.002070 0.415460 -0.539249
O8    O     O_R   0.587040 0.502070 0.584540 -0.539243
C3    C     C_R   0.434071 0.344952 0.634021 0.727240
C4    C     C_R   0.565930 0.844948 0.365980 0.727211
O9    O     O_3   0.487110 0.337570 0.435490 -0.369244
O10   O     O_3   0.512890 0.837570 0.564510 -0.369241
V1    V     V_3+5 0.502390 0.064650 0.511970 1.520888
V2    V     V_3+5 0.497610 0.564650 0.488030 1.520908
C5    C     C_R   0.617749 0.744252 0.134943 -0.144089
C6    C     C_R   0.382260 0.244350 0.865071 -0.144089
H1    H     H_    0.526237 0.711757 0.187722 0.162049
H2    H     H_    0.473771 0.211837 0.812293 0.162054
H3    H     H_    0.592815 0.684845 0.065653 0.154961
H4    H     H_    0.407198 0.184989 0.934368 0.154965
C7    C     C_R   0.606854 0.846269 0.292455 -0.035363
C8    C     C_R   0.393147 0.346287 0.707548 -0.035362
C9    C     C_R   0.939729 0.918735 0.315945 -0.173849
C10   C     C_R   0.060270 0.418622 0.684052 -0.173871
C11   C     C_R   0.903367 0.946114 0.388899 -0.118758
C12   C     C_R   0.096632 0.445976 0.611098 -0.118768
C13   C     C_R   0.831419 0.927650 0.369271 -0.147617
C14   C     C_R   0.168581 0.427584 0.630730 -0.147645
C15   C     C_R   0.794093 0.878811 0.275402 0.076291
C16   C     C_R   0.205909 0.378813 0.724602 0.076293
C17   C     C_R   0.832352 0.846677 0.202416 0.068477
C18   C     C_R   0.167650 0.346696 0.797588 0.068492
C19   C     C_R   0.720425 0.856975 0.251184 0.060400
C20   C     C_R   0.279578 0.357004 0.748822 0.060395
C21   C     C_R   0.688422 0.790151 0.157334 0.085028
C22   C     C_R   0.311583 0.290215 0.842676 0.085035
C23   C     C_R   0.727883 0.766092 0.087844 -0.061496
C24   C     C_R   0.272120 0.266138 0.912162 -0.061480
C25   C     C_R   0.797769 0.797213 0.109089 -0.249745
C26   C     C_R   0.202233 0.297249 0.890913 -0.249766
C27   C     C_R   0.677207 0.894529 0.316504 -0.191734
C28   C     C_R   0.322793 0.394534 0.683499 -0.191786
C29   C     C_R   0.578520 0.764622 0.203476 -0.131611
C30   C     C_R   0.421486 0.264689 0.796536 -0.131602
C31   C     C_R   0.904718 0.867735 0.222578 -0.060949
C32   C     C_R   0.095284 0.367717 0.777424 -0.060929
H5    H     H_    0.697119 0.953712 0.387233 0.123851
H6    H     H_    0.302878 0.453691 0.612766 0.123868
H7    H     H_    0.995201 0.940159 0.331892 0.100525
H8    H     H_    0.004797 0.439991 0.668103 0.100523
H9    H     H_    0.806559 0.950584 0.428932 0.128550
H10   H     H_    0.193439 0.450495 0.571065 0.128571
H11   H     H_    0.931070 0.984614 0.461058 0.121350
H12   H     H_    0.068928 0.484407 0.538936 0.121365
H13   H     H_    0.824928 0.777559 0.051118 0.131051
H14   H     H_    0.175072 0.277577 0.948879 0.131040
C33   C     C_3   0.243731 0.779746 0.140211 -0.344221
C34   C     C_3   0.756261 0.279888 0.859793 -0.344278
H15   H     H_    0.227088 0.641638 0.107693 0.163655
H16   H     H_    0.772888 0.141837 0.892377 0.163638
H17   H     H_    0.247676 0.871168 0.078280 0.140318
H18   H     H_    0.752317 0.371422 0.921678 0.140341
C35   C     C_3   0.315063 0.763342 0.214653 0.092163
C36   C     C_3   0.684935 0.263424 0.785342 0.092195
H19   H     H_    0.171571 0.585344 0.254589 0.163299
H20   H     H_    0.828357 0.085235 0.745492 0.163375
H21   H     H_    0.272757 0.586555 0.371698 0.183942
H22   H     H_    0.727226 0.086514 0.628289 0.183910
C37   C     C_3   0.184508 0.730864 0.279203 -0.309900
C38   C     C_3   0.815478 0.230732 0.720831 -0.309918
C39   C     C_3   0.209733 0.054282 0.229011 -0.333493
C40   C     C_3   0.790296 0.554249 0.770921 -0.333517
C41   C     C_3   0.186786 0.856657 0.189988 0.055748
C42   C     C_3   0.813216 0.356654 0.810004 0.055740
H23   H     H_    0.169370 0.113110 0.264429 0.145032
H24   H     H_    0.830659 0.612931 0.735467 0.145031
H25   H     H_    0.212529 0.149087 0.167680 0.168242
H26   H     H_    0.787529 0.649157 0.832221 0.168216
C43   C     C_3   0.310441 0.847205 0.316151 -0.018454
C44   C     C_3   0.689564 0.347209 0.683835 -0.018399
C45   C     C_3   0.255147 0.731894 0.354676 -0.323661
C46   C     C_3   0.744853 0.231833 0.645329 -0.323700
C47   C     C_3   0.281452 0.049585 0.300272 -0.159390
C48   C     C_3   0.718566 0.549577 0.699686 -0.159429
H27   H     H_    0.318530 0.127216 0.268337 0.178078
H28   H     H_    0.681505 0.627266 0.731630 0.178070
H29   H     H_    0.142903 0.779975 0.314797 0.122987
H30   H     H_    0.857106 0.279653 0.685252 0.122983
H31   H     H_    0.247635 0.791035 0.424370 0.140121
H32   H     H_    0.752392 0.290962 0.575649 0.140143
O11   O     O_R   0.912980 0.203550 0.915410 -0.539029
O12   O     O_R   0.087020 0.703550 0.084590 -0.539034
O13   O     O_R   0.047270 0.535570 0.887960 -0.538058
O14   O     O_R   0.952730 0.035570 0.112040 -0.538060
C49   C     C_R   0.057923 0.368266 0.856910 0.675649
C50   C     C_R   0.942078 0.868270 0.143091 0.675656
O15   O     O_R   0.911030 0.532970 0.903270 -0.549267
O16   O     O_R   0.088970 0.032970 0.096730 -0.549270
O17   O     O_R   0.949820 0.708150 0.099970 -0.541110
O18   O     O_R   0.050180 0.208150 0.900030 -0.541112
C51   C     C_R   0.884003 0.364468 0.881561 0.650356
C52   C     C_R   0.115998 0.864469 0.118436 0.650350
O19   O     O_3   0.012900 0.375230 0.064480 -0.377984
O20   O     O_3   0.987100 0.875230 0.935520 -0.377982
V3    V     V_3+5 0.997610 0.648190 0.988040 1.414802
V4    V     V_3+5 0.002390 0.148190 0.011960 1.414803
C53   C     C_1   0.372802 0.843401 0.178163 0.354609
N1    N     N_1   0.419416 0.902316 0.150708 -0.341115
C54   C     C_1   0.627186 0.343506 0.821800 0.354627
N2    N     N_1   0.580564 0.402444 0.849224 -0.341129
I1    I     I_    0.346886 0.482029 0.224784 -0.443801
I2    I     I_    0.653126 0.982104 0.775241 -0.443792
C55   C     C_1   0.277168 0.144109 0.391752 0.324300
N3    N     N_1   0.273601 0.217613 0.463305 -0.416552
C56   C     C_1   0.722840 0.644041 0.608189 0.324209
N4    N     N_1   0.726399 0.717496 0.536623 -0.416513
C57   C     C_1   0.698251 0.709401 0.992063 0.313982
N5    N     N_1   0.674774 0.664135 0.914279 -0.347081
C58   C     C_1   0.301743 0.209386 0.007935 0.314006
N6    N     N_1   0.325207 0.164062 0.085710 -0.347158

loop_
_geom_bond_atom_site_label_1
_geom_bond_atom_site_label_2
_ccdc_geom_bond_type
O17   V3    S    
O15   C51   A    
C7    C29   A    
C11   C13   A    
C54   N2    T    
O1    C3    A    
C38   C42   S    
O2    C4    A    
C26   H14   S    
C2    O7    A    
C12   H12   S    
C23   C25   A    
O5    C3    A    
C32   C49   S    
C14   H10   S    
C4    C7    S    
C31   C50   S    
C40   C42   S    
C16   C20   A    
C19   C21   A    
C5    C29   A    
O11   V4    S    
C48   H28   S    
H22   C46   S    
O20   V3    S    
C55   N3    T    
C3    C8    S    
O16   C52   A    
C7    C27   A    
C34   H16   S    
C18   C26   A    
O14   C50   A    
C15   C17   A    
O18   V4    S    
C36   C54   S    
C14   C16   A    
C19   C27   A    
C9    C31   A    
H19   C37   S    
C49   O18   A    
C10   C32   A    
C42   C51   S    
C24   C26   A    
O14   V4    S    
O12   C52   A    
O6    V2    S    
C2    C43   S    
C40   H26   S    
C39   C41   S    
O11   C51   A    
C6    C30   A    
C43   C45   S    
C37   C45   S    
C47   H27   S    
O19   V4    S    
O12   V3    S    
O16   V4    S    
C33   H15   S    
C47   C55   S    
O4    C2    A    
C27   H5    S    
O5    V1    S    
C44   C48   S    
C34   C42   S    
C5    H3    S    
C13   H9    S    
C16   C18   A    
O4    V2    S    
C22   C24   A    
C9    H7    S    
H21   C45   S    
C10   H8    S    
C36   C44   S    
O19   V3    S    
C35   C43   S    
C37   H29   S    
H20   C38   S    
C35   C53   S    
H1    C29   S    
C39   H25   S    
O1    V2    S    
C5    C21   A    
C40   C48   S    
O2    V1    S    
C39   C47   S    
C58   N6    T    
C38   C46   S    
O13   V3    S    
C34   C36   S    
C44   C46   S    
C41   C52   S    
C8    C28   A    
C15   C19   A    
C33   H17   S    
C20   C28   A    
C18   C32   A    
C45   H31   S    
C23   C57   S    
C33   C41   S    
O3    V1    S    
C38   H30   S    
C28   H6    S    
C36   I2    S    
C6    H4    S    
C35   I1    S    
O3    C1    A    
C57   N5    T    
O13   C49   A    
C9    C11   A    
C50   O17   A    
O15   V3    S    
C10   C12   A    
C34   H18   S    
C17   C25   A    
C24   C58   S    
C6    C22   A    
C8    C30   A    
C12   C14   A    
C13   C15   A    
O8    V2    S    
C53   N1    T    
C33   C35   S    
C37   C41   S    
C1    C44   S    
O20   V4    S    
C17   C31   A    
C20   C22   A    
C48   C56   S    
C11   H11   S    
O7    V1    S    
H2    C30   S    
C25   H13   S    
C1    O8    A    
C21   C23   A    
C40   H24   S    
O9    V2    S    
C39   H23   S    
O10   V1    S    
C46   H32   S    
C56   N4    T    
C43   C47   S    
O6    C4    A    
