data_mof_unit_53550.cif
_audit_creation_date              2013-03-05T16:15:04-0500
_audit_creation_method            fapswitch 2.2
_symmetry_space_group_name_H-M    P1
_symmetry_Int_Tables_number       1
_space_group_crystal_system       triclinic
_cell_length_a                    23.505495
_cell_length_b                    10.765875
_cell_length_c                    9.505881
_cell_angle_alpha                 90.73243
_cell_angle_beta                  89.544167
_cell_angle_gamma                 91.766317
_cell_volume                      2404.12358439

loop_
_atom_site_label
_atom_site_type_symbol
_atom_site_description
_atom_site_fract_x
_atom_site_fract_y
_atom_site_fract_z
_atom_type_partial_charge
O1    O     O_R   0.500030 0.316850 0.620870 -0.600857
O2    O     O_R   0.499970 0.683150 0.379130 -0.605185
O3    O     O_R   0.500000 0.316860 0.379090 -0.518685
O4    O     O_R   0.500000 0.683140 0.620910 -0.505880
C1    C     C_R   0.499515 0.259564 0.499335 0.861421
C2    C     C_R   0.500815 0.740085 0.500620 0.857167
O5    O     O_R   0.417890 0.499960 0.620920 -0.554722
O6    O     O_R   0.582110 0.500040 0.379080 -0.555924
O7    O     O_R   0.417870 0.499970 0.379140 -0.538155
O8    O     O_R   0.582130 0.500030 0.620860 -0.546188
C3    C     C_R   0.391042 0.499323 0.500061 0.834522
C4    C     C_R   0.608937 0.502153 0.499007 0.806100
Cu1   Cu    Cu3+1 0.500010 0.499990 0.643150 1.051725
Cu2   Cu    Cu3+1 0.499990 0.500010 0.356850 1.066893
C5    C     C_R   0.879624 0.595456 0.440329 0.530466
C6    C     C_R   0.120041 0.393977 0.427360 0.521715
N1    N     N_R   0.851860 0.483799 0.462456 -0.459781
N2    N     N_R   0.148019 0.505004 0.452238 -0.444914
C7    C     C_R   0.880607 0.375787 0.463895 0.537700
C8    C     C_R   0.119303 0.613281 0.452683 0.530630
C9    C     C_R   0.939893 0.376625 0.438913 -0.047782
C10   C     C_R   0.060049 0.611371 0.429646 -0.034546
C11   C     C_R   0.969840 0.492460 0.437602 -0.100264
C12   C     C_R   0.029949 0.496205 0.435146 -0.082840
C13   C     C_R   0.939788 0.604423 0.440066 -0.039028
C14   C     C_R   0.060159 0.384950 0.438653 -0.071656
C15   C     C_R   0.970498 0.265931 0.421924 0.164520
C16   C     C_R   0.029871 0.720570 0.406524 0.122431
C17   C     C_R   0.029655 0.269786 0.449344 0.131873
C18   C     C_R   0.970930 0.720150 0.438114 0.126007
O9    O     O_2   0.848660 0.696156 0.416135 -0.553662
O10   O     O_2   0.150222 0.294552 0.388238 -0.547493
O11   O     O_2   0.852004 0.269193 0.495274 -0.540783
O12   O     O_2   0.147708 0.721348 0.480588 -0.536730
C19   C     C_R   0.244098 0.570775 0.378889 -0.121085
C20   C     C_R   0.756334 0.415912 0.385644 -0.138072
H1    H     H_    0.225893 0.620557 0.292662 0.171852
H2    H     H_    0.775190 0.360865 0.302371 0.167363
C21   C     C_R   0.302774 0.570760 0.392868 -0.097818
C22   C     C_R   0.697410 0.419645 0.397087 -0.119405
H3    H     H_    0.328765 0.622956 0.318255 0.230602
H4    H     H_    0.671763 0.362240 0.326665 0.234732
C23   C     C_R   0.328028 0.500823 0.497412 -0.072751
C24   C     C_R   0.671801 0.499487 0.494761 -0.090921
C25   C     C_R   0.292913 0.429830 0.590702 0.109801
C26   C     C_R   0.706902 0.575294 0.583428 0.078510
C27   C     C_R   0.232827 0.442659 0.587715 0.170688
C28   C     C_R   0.765512 0.549756 0.592451 0.212053
C29   C     C_R   0.208684 0.507589 0.474670 0.289841
C30   C     C_R   0.790938 0.480790 0.482491 0.282387
C31   C     C_3   0.549404 0.045827 0.547141 0.351580
C32   C     C_3   0.451926 0.952796 0.452156 0.352957
C33   C     C_3   0.543206 0.961252 0.416230 0.024089
C34   C     C_3   0.458012 0.036808 0.583099 0.036623
C35   C     C_3   0.501686 0.876618 0.501112 -0.199814
C36   C     C_3   0.499345 0.122373 0.498493 -0.195790
C37   C     C_3   0.508736 0.960669 0.633623 -0.204014
C38   C     C_3   0.492499 0.037939 0.365558 -0.210864
H5    H     H_    0.516200 0.929368 0.742395 0.228396
H6    H     H_    0.485160 0.069907 0.256834 0.226116
C39   C     C_3   0.497519 0.612619 0.053201 -0.237287
C40   C     C_3   0.502190 0.386918 0.947457 -0.292252
C41   C     C_3   0.454872 0.548140 0.953119 0.318304
C42   C     C_3   0.544974 0.451748 0.047766 0.369697
H7    H     H_    0.495399 0.707240 0.100372 0.191155
H8    H     H_    0.504265 0.292229 0.900415 0.205503
N3    N     N_3   0.500040 0.499970 0.858290 -0.275983
N4    N     N_3   0.499960 0.500030 0.141710 -0.272027
C43   C     C_3   0.542708 0.562561 0.951853 0.366694
C44   C     C_3   0.457113 0.437427 0.049657 0.321186
C45   C     C_3   0.942570 0.147445 0.361310 -0.376615
C46   C     C_3   0.914647 0.169050 0.219131 -0.775752
H9    H     H_    0.877910 0.230703 0.229408 0.264355
H10   H     H_    0.946184 0.211066 0.144650 0.240946
H11   H     H_    0.898934 0.078697 0.174343 0.243658
H12   H     H_    0.974688 0.077326 0.339209 0.174835
H13   H     H_    0.911723 0.104633 0.436311 0.248223
C47   C     C_3   0.057718 0.830100 0.328636 -0.384627
C48   C     C_3   0.085054 0.790203 0.189095 -0.757089
H14   H     H_    0.122485 0.732197 0.205952 0.261342
H15   H     H_    0.053514 0.737208 0.123624 0.237372
H16   H     H_    0.099728 0.873949 0.130417 0.246700
H17   H     H_    0.025596 0.897693 0.298404 0.174354
H18   H     H_    0.089335 0.880425 0.395668 0.253462
N5    N     N_R   0.405640 0.612124 0.901357 0.136922
O13   O     O_R   0.359251 0.612508 0.976666 -0.342603
O14   O     O_R   0.413510 0.698142 0.808227 -0.336886
N6    N     N_R   0.593561 0.387827 0.102850 0.147117
O15   O     O_R   0.644834 0.415928 0.059327 -0.342985
O16   O     O_R   0.584684 0.287156 0.174646 -0.378861
N7    N     N_R   0.588390 0.644503 0.900863 0.125149
O17   O     O_R   0.637447 0.643899 0.962719 -0.371740
O18   O     O_R   0.574908 0.743582 0.833738 -0.384851
N8    N     N_R   0.410650 0.360889 0.108111 0.138725
O19   O     O_R   0.362928 0.410049 0.145202 -0.334676
O20   O     O_R   0.415034 0.240868 0.111870 -0.370065
C49   C     C_3   0.056395 0.157176 0.515620 -0.369018
C50   C     C_3   0.025947 0.120453 0.652505 -0.878266
H19   H     H_    0.030676 0.196960 0.731506 0.260786
H20   H     H_    0.979981 0.100434 0.635858 0.260460
H21   H     H_    0.045128 0.035948 0.695237 0.258582
H22   H     H_    0.056769 0.078227 0.440643 0.190224
H23   H     H_    0.101024 0.174760 0.546933 0.250001
C51   C     C_3   0.945129 0.841239 0.488557 -0.382516
C52   C     C_3   0.923905 0.834374 0.640839 -0.787474
H24   H     H_    0.888479 0.765654 0.652867 0.260902
H25   H     H_    0.959170 0.809140 0.711162 0.242661
H26   H     H_    0.908241 0.926384 0.674770 0.242290
H27   H     H_    0.977795 0.916893 0.490950 0.185015
H28   H     H_    0.911441 0.871310 0.416783 0.249604
C53   C     C_3   0.317665 0.322596 0.668634 -0.478834
C54   C     C_3   0.329051 0.350888 0.823483 -0.620801
H29   H     H_    0.373412 0.385827 0.835290 0.260705
H30   H     H_    0.299675 0.420407 0.867530 0.282909
H31   H     H_    0.324196 0.264122 0.884993 0.247535
H32   H     H_    0.289013 0.238970 0.657961 0.212943
H33   H     H_    0.357861 0.296239 0.617240 0.185797
C55   C     C_3   0.685770 0.696689 0.643750 -0.361882
C56   C     C_3   0.713032 0.807654 0.566508 -0.775838
H34   H     H_    0.758750 0.820334 0.592278 0.268983
H35   H     H_    0.709439 0.793963 0.450919 0.255159
H36   H     H_    0.691269 0.893913 0.597770 0.288001
H37   H     H_    0.639248 0.703203 0.631318 0.235915
H38   H     H_    0.695558 0.705508 0.757031 0.274404
C57   C     C_3   0.194609 0.391356 0.705535 -0.410345
C58   C     C_3   0.171336 0.496210 0.796834 -0.784575
H39   H     H_    0.206915 0.554503 0.840783 0.274454
H40   H     H_    0.143233 0.555505 0.735185 0.261554
H41   H     H_    0.146051 0.456220 0.885427 0.240917
H42   H     H_    0.158923 0.333333 0.663774 0.211213
H43   H     H_    0.216900 0.328864 0.776369 0.223024
C59   C     C_3   0.799531 0.588034 0.722245 -0.456414
C60   C     C_3   0.779250 0.513561 0.849821 -0.715050
H44   H     H_    0.733692 0.529086 0.872964 0.300235
H45   H     H_    0.785035 0.412769 0.830126 0.265063
H46   H     H_    0.804545 0.542687 0.943421 0.240172
H47   H     H_    0.845389 0.569764 0.708397 0.206249
H48   H     H_    0.796327 0.688551 0.745753 0.215664
C61   C     C_3   0.590141 0.909000 0.322225 -0.415982
C62   C     C_3   0.617588 0.006561 0.226684 -0.609336
H49   H     H_    0.585522 0.041984 0.153382 0.272458
H50   H     H_    0.636566 0.084604 0.289134 0.289167
H51   H     H_    0.651905 0.963788 0.163385 0.244801
H52   H     H_    0.622752 0.868980 0.389719 0.205348
H53   H     H_    0.571764 0.833333 0.254688 0.231151
C63   C     C_3   0.408679 0.080372 0.674833 -0.449191
C64   C     C_3   0.389580 0.986014 0.784826 -0.588227
H54   H     H_    0.372816 0.900037 0.732982 0.307322
H55   H     H_    0.425236 0.964311 0.855383 0.259793
H56   H     H_    0.354890 0.025226 0.849948 0.237264
H57   H     H_    0.421850 0.167728 0.730322 0.222073
H58   H     H_    0.372250 0.096558 0.604889 0.224515
N9    N     N_R   0.602607 0.099358 0.601757 0.125086
O21   O     O_R   0.619456 0.071035 0.726981 -0.332051
O22   O     O_R   0.631136 0.182876 0.530503 -0.385223
N10   N     N_R   0.398467 0.898977 0.399549 0.125924
O23   O     O_R   0.381816 0.923040 0.272925 -0.319731
O24   O     O_R   0.367945 0.823915 0.477541 -0.382117

loop_
_geom_bond_atom_site_label_1
_geom_bond_atom_site_label_2
_geom_bond_distance
_ccdc_geom_bond_type
C58   H39   1.110988 S    
C15   C17   1.416018 A    
C1    C36   1.476787 S    
C64   H54   1.106277 S    
C62   H51   1.110329 S    
C2    C35   1.469360 S    
C54   H30   1.109731 S    
C49   C50   1.530537 S    
C15   C45   1.525032 S    
C27   C29   1.420835 A    
N5    O13   1.299714 A    
O5    C3    1.315014 A    
C52   H25   1.111351 S    
C40   C44   1.538774 S    
C40   N3    1.494383 S    
O1    C1    1.302599 A    
C42   N4    1.481278 S    
N10   O23   1.300323 A    
C64   H55   1.109921 S    
C12   C14   1.412024 A    
C51   H27   1.102147 S    
O8    C4    1.314324 A    
C37   H5    1.108551 S    
C59   H48   1.106900 S    
C26   C55   1.516546 S    
C31   C36   1.534813 S    
C25   C27   1.423857 A    
O4    Cu1   1.985763 S    
C39   C41   1.532079 S    
C55   C56   1.531225 S    
C54   H29   1.103626 S    
C40   C42   1.537086 S    
C57   H42   1.103668 S    
C61   H53   1.109825 S    
C53   C54   1.523443 S    
C32   C34   1.534261 S    
C59   C60   1.527375 S    
C19   C29   1.397685 A    
C60   H46   1.110532 S    
O6    Cu2   1.943462 S    
C11   C12   1.412233 A    
C3    C23   1.482169 S    
C53   H32   1.111667 S    
C31   C37   1.543651 S    
N9    O22   1.299267 A    
C16   C47   1.527791 S    
C49   H22   1.102429 S    
C32   C35   1.527986 S    
C34   C63   1.527086 S    
C8    O12   1.347874 S    
C28   C30   1.413726 A    
C9    C15   1.417706 A    
C10   C16   1.412112 A    
Cu1   Cu2   2.721541 S    
C41   N5    1.456932 S    
O2    C2    1.300521 A    
C46   H11   1.110697 S    
C47   H17   1.106733 S    
C51   C52   1.529311 S    
C24   C26   1.417450 A    
C27   C57   1.528273 S    
C34   C36   1.546178 S    
C56   H35   1.110283 S    
C6    C14   1.411261 A    
C52   H26   1.110523 S    
C26   C28   1.416594 A    
C40   H8    1.110233 S    
N5    O14   1.297433 A    
C20   C22   1.390206 A    
C64   H56   1.110322 S    
C62   H49   1.109940 S    
C21   H3    1.083611 S    
C7    O11   1.347574 S    
N7    O17   1.298753 A    
C48   H15   1.111137 S    
C47   C48   1.531577 S    
C21   C23   1.401064 A    
C58   H41   1.110564 S    
C59   H47   1.108185 S    
C48   H14   1.108350 S    
N3    C43   1.485991 S    
C19   C21   1.386636 A    
O7    Cu2   1.940177 S    
C41   N3    1.488442 S    
C47   H18   1.107140 S    
N7    O18   1.298780 A    
C60   H44   1.108796 S    
C23   C25   1.420804 A    
C61   H52   1.104581 S    
C57   H43   1.104306 S    
N10   O24   1.299429 A    
C41   C44   1.515983 S    
O5    Cu1   1.943466 S    
O6    C4    1.306783 A    
C6    N2    1.365263 A    
C55   H38   1.105213 S    
C42   C43   1.513227 S    
C56   H34   1.108056 S    
N8    O20   1.300369 A    
O7    C3    1.306669 A    
C49   H23   1.102801 S    
O3    Cu2   1.985763 S    
C32   C38   1.542820 S    
C63   H58   1.107640 S    
C46   H10   1.111115 S    
N6    O16   1.298723 A    
C50   H20   1.107421 S    
C35   C37   1.548514 S    
C57   C58   1.527160 S    
C10   C12   1.409823 A    
O4    C2    1.304057 A    
O1    Cu1   1.980326 S    
C33   C35   1.544393 S    
C20   H2    1.082988 S    
C45   H13   1.107265 S    
C20   C30   1.399085 A    
C61   C62   1.522345 S    
C60   H45   1.111083 S    
C63   C64   1.522594 S    
Cu1   N3    2.045103 S    
C56   H36   1.110048 S    
C39   C43   1.533793 S    
C13   C18   1.425694 A    
C5    N1    1.367862 A    
C31   N9    1.457337 S    
C58   H40   1.108613 S    
C19   H1    1.083121 S    
C33   C61   1.530302 S    
C8    C10   1.411100 A    
C46   H9    1.108206 S    
O3    C1    1.305575 A    
O8    Cu1   1.940175 S    
N1    C30   1.442545 S    
C48   H16   1.110672 S    
C33   C38   1.553764 S    
C25   C53   1.513353 S    
C5    O9    1.347458 S    
C62   H50   1.107108 S    
C32   N10   1.456880 S    
C50   H21   1.110684 S    
C52   H24   1.102951 S    
C17   C49   1.527924 S    
C53   H33   1.103414 S    
C9    C11   1.413144 A    
C16   C18   1.415149 A    
C4    C24   1.479030 S    
C51   H28   1.107869 S    
C39   N4    1.487122 S    
C45   H12   1.101142 S    
C6    O10   1.348977 S    
C22   H4    1.079991 S    
N1    C7    1.363073 A    
C36   C38   1.553676 S    
N2    C8    1.364850 A    
C55   H37   1.105304 S    
C11   C13   1.415617 A    
N8    O19   1.299317 A    
O2    Cu2   1.980326 S    
C5    C13   1.414498 A    
C63   H57   1.109292 S    
C39   H7    1.110112 S    
C22   C24   1.402093 A    
C45   C46   1.530710 S    
N6    O15   1.299229 A    
C14   C17   1.417359 A    
N4    C44   1.480335 S    
C50   H19   1.111125 S    
C18   C51   1.524902 S    
C44   N8    1.458449 S    
Cu2   N4    2.045103 S    
C28   C59   1.521147 S    
C31   C33   1.537733 S    
N9    O21   1.300394 A    
C43   N7    1.452742 S    
C38   H6    1.109930 S    
C42   N6    1.455768 S    
C54   H31   1.110769 S    
N2    C29   1.442866 S    
C7    C9    1.411535 A    
C34   C37   1.550353 S    
