data_mof_unit_49985.cif
_audit_creation_date              2012-12-11T14:29:42-0500
_audit_creation_method            fapswitch 2.2
_symmetry_space_group_name_H-M    P1
_symmetry_Int_Tables_number       1
_space_group_crystal_system       triclinic
_cell_length_a                    6.93418
_cell_length_b                    14.771405
_cell_length_c                    16.235419
_cell_angle_alpha                 90.568699
_cell_angle_beta                  90.218605
_cell_angle_gamma                 90.29493
_cell_volume                      1662.83831979

loop_
_atom_site_label
_atom_site_type_symbol
_atom_type_description
_atom_site_fract_x
_atom_site_fract_y
_atom_site_fract_z
_atom_type_partial_charge
O1    O     O_R   0.494400 0.416610 0.413880 -0.543011
O2    O     O_R   0.823920 0.406790 0.585520 -0.530652
O3    O     O_R   0.994250 0.583390 0.586120 -0.540126
C1    C     C_R   0.655405 0.385818 0.614059 0.746000
O4    O     O_R   0.824110 0.405730 0.414490 -0.540111
O5    O     O_R   0.994440 0.582310 0.413870 -0.542900
C2    C     C_R   0.654010 0.383180 0.386829 0.762628
O6    O     O_R   0.494210 0.417690 0.586130 -0.524983
O7    O     O_3   0.660810 0.557940 0.500000 -0.379161
V1    V     V_3+5 0.935650 0.489250 0.500000 1.491914
O8    O     O_R   0.324160 0.593210 0.414480 -0.548859
C3    C     C_R   0.155903 0.614189 0.385774 0.740227
O9    O     O_R   0.323970 0.594270 0.585510 -0.538784
C4    C     C_R   0.155631 0.615789 0.614300 0.692900
V2    V     V_3+5 0.435660 0.510750 0.500000 1.480411
O10   O     O_3   0.160630 0.442060 0.500000 -0.358017
H1    H     H_    0.332146 0.912242 0.508758 0.150060
C5    C     C_R   0.043949 0.566172 0.779255 -0.180903
C6    C     C_R   0.990964 0.539397 0.858156 0.465286
C7    C     C_R   0.981236 0.602966 0.921624 -0.123468
C8    C     C_R   0.023257 0.693570 0.906639 -0.205314
C9    C     C_R   0.075082 0.723235 0.826902 0.052147
C10   C     C_R   0.087141 0.657910 0.762078 0.011276
C11   C     C_R   0.115879 0.816028 0.811767 -0.152917
C12   C     C_R   0.167183 0.844133 0.730479 -0.008258
C13   C     C_R   0.188869 0.776733 0.667000 0.034325
C14   C     C_R   0.145862 0.684378 0.682351 -0.130567
C15   C     C_R   0.194993 0.937176 0.708286 0.341688
C16   C     C_R   0.257528 0.959648 0.629387 -0.095518
C17   C     C_R   0.285877 0.893434 0.569897 -0.178133
C18   C     C_R   0.248780 0.803445 0.587610 -0.148128
H2    H     H_    0.052368 0.514089 0.732106 0.154095
H3    H     H_    0.941465 0.582218 0.983078 0.173378
H4    H     H_    0.014774 0.739718 0.958599 0.130796
H5    H     H_    0.280311 0.029850 0.613175 0.178005
H6    H     H_    0.266953 0.755271 0.537723 0.116892
C19   C     C_2   0.988899 0.698912 0.275734 -0.135465
C20   C     C_2   0.152317 0.678778 0.316593 -0.331526
H7    H     H_    0.855385 0.666901 0.295051 0.163286
H8    H     H_    0.289843 0.706200 0.297198 0.151545
C21   C     C_2   0.975639 0.758729 0.202298 0.177184
C22   C     C_2   0.119799 0.815485 0.178498 -0.293378
H9    H     H_    0.254445 0.816948 0.212480 0.137624
C23   C     C_2   0.771395 0.209331 0.781806 -0.026895
C24   C     C_2   0.610800 0.169457 0.809908 -0.278040
H10   H     H_    0.908891 0.196384 0.811505 0.212249
H11   H     H_    0.475538 0.178331 0.777100 0.194972
C25   C     C_2   0.773126 0.262073 0.704659 0.145948
C26   C     C_2   0.645934 0.329603 0.688718 -0.012273
C27   C     C_2   0.776542 0.194096 0.229042 0.184835
C28   C     C_2   0.621959 0.181125 0.178239 -0.300948
H12   H     H_    0.497817 0.225034 0.183431 0.133290
C29   C     C_2   0.788515 0.268765 0.291115 -0.134375
C30   C     C_2   0.635613 0.312795 0.322037 -0.321567
H13   H     H_    0.931057 0.285066 0.315149 0.166040
H14   H     H_    0.490681 0.295054 0.302216 0.147110
O11   O     O_R   0.770210 0.079270 0.910680 -0.529356
O12   O     O_R   0.440150 0.091160 0.082270 -0.537911
O13   O     O_R   0.269970 0.914530 0.082860 -0.539042
C31   C     C_R   0.610055 0.111455 0.112077 0.777808
O14   O     O_R   0.440480 0.090100 0.911240 -0.517967
O15   O     O_R   0.270310 0.913460 0.910610 -0.531556
C32   C     C_R   0.608579 0.109851 0.882012 0.795263
O16   O     O_R   0.769870 0.080340 0.082930 -0.525820
O17   O     O_3   0.603660 0.938980 0.996790 -0.373734
V3    V     V_3+5 0.328750 0.007610 0.996740 1.584282
O18   O     O_R   0.940600 0.902510 0.911180 -0.538003
C33   C     C_R   0.108691 0.881564 0.881978 0.782308
O19   O     O_R   0.940270 0.903570 0.082200 -0.525392
C34   C     C_R   0.108673 0.880416 0.109355 0.772351
V4    V     V_3+5 0.828770 0.986010 0.996670 1.573401
O20   O     O_3   0.103730 0.054750 0.996710 -0.349224
I1    I     I_    0.708110 0.743893 0.137816 -0.433987
I2    I     I_    0.992187 0.220814 0.620750 -0.334816
I3    I     I_    0.438589 0.375576 0.776682 -0.280677
I4    I     I_    0.025734 0.109746 0.229948 -0.401193
Cl1   Cl    Cl    0.939106 0.425273 0.877908 -0.610287
Cl2   Cl    Cl    0.138323 0.031889 0.770394 -0.688280

loop_
_geom_bond_atom_site_label_1
_geom_bond_atom_site_label_2
_ccdc_geom_bond_type
C21   C22   D    
C6    C7    A    
C1    O6    A    
C29   C30   D    
C12   C15   A    
C13   C14   A    
C16   C17   A    
C15   C16   A    
C18   H6    S    
O13   V3    S    
O5    C3    A    
C17   C18   A    
O12   C31   A    
V2    O10   S    
C22   C34   S    
C28   H12   S    
O19   V4    S    
C5    C6    A    
O16   V4    S    
C6    Cl1   S    
O8    V2    S    
O14   V3    S    
O12   V3    S    
V3    O20   S    
C26   I3    S    
O1    V2    S    
C10   C14   A    
C4    C14   S    
C15   Cl2   S    
O7    V1    S    
C24   H11   S    
C13   C18   A    
O9    C4    A    
C3    C20   S    
H1    C17   S    
C23   H10   S    
O11   C32   A    
C29   H13   S    
C30   H14   S    
C27   C29   S    
O15   V3    S    
O18   C33   A    
C25   I2    S    
C11   C12   A    
O4    C2    A    
C8    H4    S    
C12   C13   A    
O17   V4    S    
C24   C32   S    
C5    C10   A    
O2    C1    A    
C19   C20   D    
C27   I4    S    
O14   C32   A    
C27   C28   D    
O11   V4    S    
O3    C4    A    
C7    H3    S    
C25   C26   D    
O6    V2    S    
O9    V2    S    
C9    C11   A    
C5    H2    S    
C22   H9    S    
O2    V1    S    
C23   C24   D    
O1    C2    A    
O5    V1    S    
O8    C3    A    
C16   H5    S    
O15   C33   A    
C1    C26   S    
C31   O16   A    
O7    V2    S    
O4    V1    S    
C19   H7    S    
O3    V1    S    
V1    O10   S    
C20   H8    S    
O18   V4    S    
C19   C21   S    
O19   C34   A    
C11   C33   S    
O13   C34   A    
C21   I1    S    
V4    O20   S    
C7    C8    A    
O17   V3    S    
C9    C10   A    
C28   C31   S    
C2    C30   S    
C8    C9    A    
C23   C25   S    
