data_mof_unit_9257.cif
_audit_creation_date              2012-12-11T17:34:19-0500
_audit_creation_method            fapswitch 2.2
_symmetry_space_group_name_H-M    P1
_symmetry_Int_Tables_number       1
_space_group_crystal_system       triclinic
_cell_length_a                    23.759852
_cell_length_b                    7.223089
_cell_length_c                    20.6713
_cell_angle_alpha                 89.999982
_cell_angle_beta                  105.49892
_cell_angle_gamma                 90.000848
_cell_volume                      3418.59201249

loop_
_atom_site_label
_atom_site_type_symbol
_atom_type_description
_atom_site_fract_x
_atom_site_fract_y
_atom_site_fract_z
_atom_type_partial_charge
O1    O     O_R   0.449110 0.494310 0.552140 -0.537963
O2    O     O_R   0.550890 0.994310 0.447860 -0.537971
O3    O     O_R   0.440010 0.824420 0.415850 -0.532527
O4    O     O_R   0.559990 0.324420 0.584150 -0.532507
C1    C     C_R   0.425461 0.655744 0.390857 0.674797
C2    C     C_R   0.574539 0.155746 0.609143 0.674808
O5    O     O_R   0.442260 0.824040 0.549660 -0.541591
O6    O     O_R   0.557740 0.324040 0.450340 -0.541586
O7    O     O_R   0.553160 0.993960 0.582620 -0.529312
O8    O     O_R   0.446840 0.493960 0.417380 -0.529302
C3    C     C_R   0.428814 0.655502 0.567781 0.705502
C4    C     C_R   0.571186 0.155504 0.432218 0.705491
O9    O     O_3   0.536380 0.660670 0.510660 -0.374305
O10   O     O_3   0.463620 0.160670 0.489340 -0.374306
V1    V     V_3+5 0.493250 0.935680 0.498020 1.418701
V2    V     V_3+5 0.506750 0.435680 0.501980 1.418750
C5    C     C_R   0.812293 0.921749 0.158847 -0.214793
C6    C     C_R   0.187708 0.421754 0.841156 -0.214797
H1    H     H_    0.786513 0.803751 0.166249 0.121747
H2    H     H_    0.213488 0.303757 0.833756 0.121748
C7    C     C_R   0.851427 0.904266 0.118185 0.348936
C8    C     C_R   0.148574 0.404271 0.881819 0.348930
C9    C     C_R   0.885290 0.059159 0.108883 -0.082235
C10   C     C_R   0.114710 0.559162 0.891118 -0.082238
C11   C     C_R   0.878075 0.227733 0.140358 -0.239337
C12   C     C_R   0.121925 0.727734 0.859641 -0.239332
C13   C     C_R   0.839026 0.242793 0.180230 -0.152439
C14   C     C_R   0.160973 0.742793 0.819769 -0.152437
H3    H     H_    0.834724 0.374105 0.203808 0.123259
H4    H     H_    0.165276 0.874104 0.796188 0.123261
C15   C     C_R   0.806109 0.089982 0.189877 0.088916
C16   C     C_R   0.193891 0.589984 0.810124 0.088915
C17   C     C_1   0.766037 0.105000 0.231731 -0.018970
C18   C     C_1   0.233963 0.605001 0.768270 -0.018972
C19   C     C_1   0.732462 0.115255 0.266666 0.027383
C20   C     C_1   0.267538 0.615254 0.733334 0.027381
C21   C     C_R   0.661013 0.965616 0.318375 0.387152
C22   C     C_R   0.338986 0.465614 0.681625 0.387148
C23   C     C_R   0.622006 0.977137 0.359241 -0.238365
C24   C     C_R   0.377993 0.477134 0.640759 -0.238336
H5    H     H_    0.598220 0.854447 0.366540 0.122384
H6    H     H_    0.401779 0.354445 0.633460 0.122383
C25   C     C_R   0.613196 0.145257 0.389827 -0.079392
C26   C     C_R   0.386804 0.645254 0.610173 -0.079392
C27   C     C_R   0.644442 0.302466 0.378814 -0.170881
C28   C     C_R   0.355559 0.802462 0.621185 -0.170910
H7    H     H_    0.638951 0.434184 0.401395 0.133203
H8    H     H_    0.361050 0.934180 0.598604 0.133205
C29   C     C_R   0.683575 0.291522 0.338776 -0.217419
C30   C     C_R   0.316426 0.791518 0.661223 -0.217424
H9    H     H_    0.707356 0.414248 0.331483 0.151409
H10   H     H_    0.292645 0.914244 0.668516 0.151409
C31   C     C_R   0.692021 0.124092 0.308358 0.090020
C32   C     C_R   0.307979 0.624089 0.691642 0.090022
C33   C     C_R   0.641640 0.187164 0.797091 -0.142947
C34   C     C_R   0.358378 0.686838 0.202896 -0.142933
H11   H     H_    0.726546 0.184463 0.910052 0.132443
H12   H     H_    0.273482 0.683961 0.089926 0.132439
H13   H     H_    0.627640 0.215144 0.841948 0.144866
H14   H     H_    0.372386 0.714664 0.158032 0.144867
C35   C     C_R   0.617152 0.149555 0.676127 -0.131244
C36   C     C_R   0.382849 0.649532 0.323873 -0.131240
C37   C     C_R   0.901385 0.017617 0.768123 -0.159335
C38   C     C_R   0.098602 0.517829 0.231885 -0.159343
C39   C     C_R   0.862716 0.015273 0.704410 -0.120072
C40   C     C_R   0.137266 0.515580 0.295601 -0.120063
C41   C     C_R   0.803339 0.048012 0.695683 -0.157847
C42   C     C_R   0.196648 0.548237 0.304325 -0.157839
C43   C     C_R   0.780763 0.084753 0.751146 0.094700
C44   C     C_R   0.219234 0.584793 0.248855 0.094693
C45   C     C_R   0.821035 0.088741 0.816678 0.063565
C46   C     C_R   0.178969 0.588671 0.183317 0.063552
C47   C     C_R   0.719671 0.116963 0.743799 0.075083
C48   C     C_R   0.280331 0.616925 0.256199 0.075082
C49   C     C_R   0.700794 0.153554 0.802106 0.050667
C50   C     C_R   0.299219 0.653317 0.197884 0.050659
C51   C     C_R   0.740956 0.156827 0.865464 -0.166148
C52   C     C_R   0.259062 0.656479 0.134521 -0.166137
C53   C     C_R   0.799985 0.124693 0.872748 -0.173670
C54   C     C_R   0.200030 0.624432 0.127239 -0.173640
C55   C     C_R   0.676516 0.114856 0.680888 -0.257099
C56   C     C_R   0.323480 0.614923 0.319116 -0.257082
C57   C     C_R   0.599681 0.186011 0.735213 0.359537
C58   C     C_R   0.400331 0.685797 0.264779 0.359526
C59   C     C_R   0.881575 0.054577 0.824666 -0.080847
C60   C     C_R   0.118424 0.554602 0.175333 -0.080834
H15   H     H_    0.947239 0.990074 0.773418 0.107141
H16   H     H_    0.052744 0.490368 0.226593 0.107138
H17   H     H_    0.776288 0.043160 0.644801 0.108988
H18   H     H_    0.223694 0.543474 0.355211 0.108985
H19   H     H_    0.878908 0.986848 0.661186 0.121824
H20   H     H_    0.121066 0.487300 0.338831 0.121818
H21   H     H_    0.829112 0.128344 0.922947 0.112360
H22   H     H_    0.170907 0.627995 0.077036 0.112335
O11   O     O_R   0.053190 0.709680 0.082610 -0.535081
O12   O     O_R   0.946810 0.209680 0.917390 -0.535090
O13   O     O_R   0.057740 0.380240 0.950340 -0.501734
O14   O     O_R   0.942260 0.880240 0.049660 -0.501734
C61   C     C_R   0.071706 0.548748 0.932694 0.700906
C62   C     C_R   0.928294 0.048746 0.067306 0.700912
O15   O     O_R   0.060000 0.379940 0.084150 -0.534400
O16   O     O_R   0.940000 0.879940 0.915850 -0.534397
O17   O     O_R   0.949110 0.210100 0.052140 -0.546486
O18   O     O_R   0.050890 0.710100 0.947860 -0.546482
C63   C     C_R   0.074788 0.548288 0.109001 0.670238
C64   C     C_R   0.925212 0.048285 0.890998 0.670233
O19   O     O_3   0.963630 0.543720 0.989330 -0.367297
O20   O     O_3   0.036370 0.043720 0.010670 -0.367291
V3    V     V_3+5 0.006750 0.268680 0.001980 1.478948
V4    V     V_3+5 0.993250 0.768680 0.998020 1.478960
H23   H     H_    0.687588 0.088917 0.634440 0.112852
H24   H     H_    0.312401 0.589122 0.365569 0.112837
O21   O     O_3   0.856421 0.738390 0.086909 -0.641201
H25   H     H_    0.829737 0.646096 0.098412 0.279934
O22   O     O_3   0.143582 0.238398 0.913097 -0.641198
H26   H     H_    0.170266 0.146104 0.901596 0.279938
H27   H     H_    0.903133 0.349040 0.134765 0.163661
H28   H     H_    0.096867 0.849039 0.865232 0.163658
O23   O     O_3   0.669297 0.801701 0.287744 -0.648448
H29   H     H_    0.643657 0.705269 0.298819 0.286016
O24   O     O_3   0.330702 0.301699 0.712256 -0.648449
H30   H     H_    0.356341 0.205267 0.701181 0.286006
O25   O     O_3   0.542516 0.221176 0.735433 -0.638947
H31   H     H_    0.516305 0.207967 0.689656 0.275155
O26   O     O_3   0.457502 0.720863 0.264554 -0.638941
H32   H     H_    0.483700 0.707915 0.310351 0.275151

loop_
_geom_bond_atom_site_label_1
_geom_bond_atom_site_label_2
_ccdc_geom_bond_type
C40   C42   A    
C37   C39   A    
O14   V4    S    
C33   H13   S    
C13   H3    S    
C10   C61   S    
O1    C3    A    
O2    C4    A    
C2    O7    A    
C45   C53   A    
O25   H31   S    
C23   H5    S    
O5    C3    A    
C30   C32   A    
C48   C50   A    
C34   C50   A    
C2    C35   S    
C22   C24   A    
C10   C12   A    
C53   H21   S    
C4    C25   S    
C52   C54   A    
C19   C31   S    
O15   V3    S    
O22   H26   S    
C41   H17   S    
O20   V3    S    
C43   C45   A    
C38   C60   A    
C49   C51   A    
O12   C64   A    
O11   C63   A    
C5    H1    S    
C45   C59   A    
C55   H23   S    
C39   C41   A    
C22   C32   A    
C44   C48   A    
C42   H18   S    
O16   C64   A    
C15   C17   S    
C43   C47   A    
C18   C20   T    
C21   C31   A    
C27   H7    S    
C61   O18   A    
C36   C56   A    
O6    V2    S    
C37   C59   A    
C47   C49   A    
C48   C56   A    
C47   C55   A    
O13   C61   A    
C26   C28   A    
C34   C58   A    
C51   C53   A    
O15   C63   A    
C28   H8    S    
C44   C46   A    
C13   C15   A    
H11   C51   S    
C14   C16   A    
O4    C2    A    
C35   C57   A    
C23   C25   A    
O5    V1    S    
C29   H9    S    
C16   C18   S    
C62   O17   A    
C5    C7    A    
C34   H14   S    
C41   C43   A    
C38   C40   A    
O4    V2    S    
O13   V3    S    
C30   H10   S    
C21   O23   S    
C27   C29   A    
O6    C4    A    
C3    C26   S    
O1    V2    S    
O2    V1    S    
C25   C27   A    
O24   H30   S    
C7    O21   S    
C8    O22   S    
O14   C62   A    
C7    C9    A    
O26   H32   S    
C5    C15   A    
O19   V4    S    
C8    C10   A    
O16   V4    S    
C60   C63   S    
C6    C16   A    
C54   H22   S    
C59   C64   S    
O3    V1    S    
O21   H25   S    
C58   O26   S    
C39   H19   S    
C36   C58   A    
C37   H15   S    
C6    C8    A    
C12   H28   S    
C50   C52   A    
O3    C1    A    
O11   V4    S    
C11   H27   S    
C40   H20   S    
O23   H29   S    
C46   C60   A    
C11   C13   A    
O12   V3    S    
C28   C30   A    
C12   C14   A    
O17   V3    S    
C14   H4    S    
O7    V1    S    
C33   C49   A    
C1    O8    A    
C21   C23   A    
C35   C55   A    
O18   V4    S    
C29   C31   A    
C24   H6    S    
C17   C19   T    
C1    C36   S    
C9    C62   S    
C6    H2    S    
C9    C11   A    
C22   O24   S    
C20   C32   S    
H12   C52   S    
C24   C26   A    
C46   C54   A    
O9    V2    S    
C42   C44   A    
O10   V1    S    
O8    V2    S    
C57   O25   S    
C33   C57   A    
C38   H16   S    
C56   H24   S    
