data_mof_unit_32589.cif
_audit_creation_date              2012-12-10T17:11:01-0500
_audit_creation_method            fapswitch 2.2
_symmetry_space_group_name_H-M    P1
_symmetry_Int_Tables_number       1
_space_group_crystal_system       triclinic
_cell_length_a                    11.703838
_cell_length_b                    13.037253
_cell_length_c                    13.445638
_cell_angle_alpha                 93.828139
_cell_angle_beta                  75.821161
_cell_angle_gamma                 100.182049
_cell_volume                      1957.1957711

loop_
_atom_site_label
_atom_site_type_symbol
_atom_type_description
_atom_site_fract_x
_atom_site_fract_y
_atom_site_fract_z
_atom_type_partial_charge
C1    C     C_R   0.522287 0.700886 0.499084 0.856993
C2    C     C_R   0.468104 0.457339 0.960302 0.004192
C3    C     C_R   0.473365 0.512966 0.871654 0.023154
C4    C     C_R   0.544104 0.500102 0.026076 -0.083452
C5    C     C_R   0.645945 0.574989 0.987525 -0.141412
C6    C     C_R   0.648492 0.630669 0.901375 -0.290966
C7    C     C_R   0.556589 0.606392 0.849426 0.409447
C8    C     C_R   0.515924 0.478507 0.131717 0.373217
C9    C     C_R   0.717344 0.561882 0.140725 0.297168
C10   C     C_R   0.398335 0.471805 0.805269 -0.091174
C11   C     C_R   0.464565 0.186521 0.499729 -0.143717
C12   C     C_R   0.435970 0.494634 0.695778 0.886786
C13   C     C_R   0.535019 0.814971 0.500565 -0.147630
C14   C     C_R   0.603711 0.980529 0.576089 -0.240976
C15   C     C_R   0.611283 0.876062 0.556270 0.216546
C16   C     C_R   0.465141 0.863432 0.451449 0.151110
C17   C     C_R   0.458509 0.970443 0.471115 0.037468
C18   C     C_R   0.529698 0.029126 0.534046 0.001599
C19   C     C_R   0.529043 0.136584 0.551613 0.215483
C20   C     C_R   0.390339 0.128749 0.441956 -0.327383
C21   C     C_R   0.382982 0.021158 0.430006 0.281695
C22   C     C_R   0.943102 0.601638 0.595025 0.311595
C23   C     C_R   0.477819 0.299595 0.501025 0.816638
C24   C     C_R   0.824043 0.588826 0.586807 -0.037514
C25   C     C_R   0.859017 0.460907 0.454572 0.005823
C26   C     C_R   0.980045 0.468642 0.459523 -0.128860
C27   C     C_R   0.020584 0.535938 0.535087 -0.031792
C28   C     C_R   0.137566 0.535682 0.548708 0.397510
C29   C     C_R   0.178655 0.419573 0.405506 0.014301
C30   C     C_R   0.061213 0.410554 0.393117 0.168347
C31   C     C_R   0.564163 0.502869 0.303299 0.873303
C32   C     C_R   0.737323 0.598806 0.041617 0.421786
C33   C     C_R   0.602281 0.510061 0.189944 -0.318254
C34   C     C_R   0.309670 0.384864 0.833848 -0.288394
C35   C     C_R   0.306895 0.328475 0.918467 -0.211347
C36   C     C_R   0.391620 0.358619 0.976797 0.292688
Cu1   Cu    Cu3+1 0.386470 0.492430 0.492410 0.947497
Cu2   Cu    Cu3+1 0.613530 0.507570 0.507590 0.959676
H1    H     H_    0.337178 0.167529 0.405530 0.170192
H2    H     H_    0.660088 0.023646 0.622560 0.181406
H3    H     H_    0.240824 0.376478 0.354140 0.194741
H4    H     H_    0.763219 0.636427 0.633323 0.164733
H5    H     H_    0.716464 0.698257 0.878635 0.141107
H6    H     H_    0.822251 0.407286 0.401284 0.135615
H7    H     H_    0.252345 0.352368 0.783364 0.166553
H8    H     H_    0.245825 0.255330 0.932648 0.146827
N1    N     N_R   0.215880 0.481050 0.481000 -0.247514
N2    N     N_R   0.784100 0.518950 0.519000 -0.197204
O1    O     O_R   0.419710 0.645650 0.494620 -0.622077
O2    O     O_R   0.611450 0.658430 0.507430 -0.531269
O3    O     O_R   0.357340 0.490460 0.641450 -0.599463
O4    O     O_R   0.549080 0.503250 0.654260 -0.560364
O5    O     O_R   0.388550 0.341570 0.492570 -0.590794
O6    O     O_R   0.580290 0.354350 0.505380 -0.582830
O7    O     O_R   0.450920 0.496750 0.345740 -0.527797
O8    O     O_R   0.642660 0.509540 0.358550 -0.592589
O9    O     O_3   0.809694 0.584729 0.189564 -0.663308
H9    H     H_    0.813303 0.520187 0.222771 0.324433
N3    N     N_2   0.297728 0.965462 0.378039 -0.395197
H10   H     H_    0.286240 0.005334 0.318380 0.248113
C37   C     C_3   0.184803 0.923595 0.445752 -0.657896
H11   H     H_    0.126542 0.875452 0.400346 0.232334
H12   H     H_    0.138982 0.987990 0.485383 0.212443
H13   H     H_    0.198749 0.873335 0.503865 0.247807
N4    N     N_2   0.699802 0.834664 0.589769 -0.408416
H14   H     H_    0.710772 0.863884 0.660647 0.230472
C38   C     C_3   0.813443 0.844587 0.514983 -0.655788
H15   H     H_    0.877926 0.809658 0.544664 0.222972
H16   H     H_    0.850819 0.928152 0.499982 0.208887
H17   H     H_    0.802855 0.803521 0.441865 0.258318
N5    N     N_2   0.410696 0.807857 0.375273 -0.391801
H18   H     H_    0.340010 0.749204 0.400955 0.284040
C39   C     C_3   0.491728 0.785025 0.279626 -0.605130
H19   H     H_    0.548227 0.729050 0.291297 0.203150
H20   H     H_    0.549774 0.857916 0.247466 0.228712
H21   H     H_    0.439649 0.750050 0.223399 0.225070
N6    N     N_2   0.169642 0.586743 0.637402 -0.367278
H22   H     H_    0.251510 0.632746 0.631756 0.286643
C40   C     C_3   0.108711 0.542762 0.736708 -0.563593
H23   H     H_    0.173037 0.516846 0.773502 0.217041
H24   H     H_    0.037847 0.475279 0.730204 0.193566
H25   H     H_    0.067559 0.603313 0.788018 0.252627
O10   O     O_3   0.985764 0.681138 0.656421 -0.737967
H26   H     H_    0.919555 0.717630 0.693388 0.303459
N7    N     N_2   0.030370 0.347538 0.309818 -0.426200
H27   H     H_    0.968124 0.370382 0.277343 0.249562
C41   C     C_3   0.014209 0.236385 0.323408 -0.703007
H28   H     H_    0.937449 0.212343 0.388943 0.217661
H29   H     H_    0.096163 0.214115 0.337440 0.228946
H30   H     H_    0.996134 0.194384 0.252844 0.231699
O11   O     O_3   0.847560 0.657141 0.000415 -0.680584
H31   H     H_    0.864873 0.649475 0.924686 0.312518
O12   O     O_3   0.400813 0.436938 0.181914 -0.700919
H32   H     H_    0.344124 0.463484 0.150077 0.327591
N8    N     N_2   0.406179 0.284975 0.044609 -0.386469
H33   H     H_    0.330299 0.231529 0.071987 0.252730
C42   C     C_3   0.511002 0.236103 0.007616 -0.667348
H34   H     H_    0.517781 0.183611 0.066897 0.224909
H35   H     H_    0.593395 0.295555 0.991868 0.229825
H36   H     H_    0.504448 0.189404 0.936373 0.219886
O13   O     O_3   0.545737 0.673424 0.778114 -0.747298
H37   H     H_    0.605583 0.737488 0.777653 0.312287
N9    N     N_2   0.585708 0.192332 0.626789 -0.430755
H38   H     H_    0.539412 0.245663 0.672265 0.252352
C43   C     C_3   0.713840 0.226725 0.595777 -0.655281
H39   H     H_    0.734637 0.312953 0.601435 0.244245
H40   H     H_    0.751617 0.200763 0.515928 0.219517
H41   H     H_    0.757795 0.194921 0.648421 0.209997

loop_
_geom_bond_atom_site_label_1
_geom_bond_atom_site_label_2
_ccdc_geom_bond_type
C41   H28   S    
C28   N1    A    
O12   H32   S    
C24   H4    S    
C39   H19   S    
C14   C18   A    
N8    H33   S    
C4    C8    A    
C42   H36   S    
C42   H34   S    
N7    H27   S    
C43   H40   S    
C11   C19   A    
C26   C27   A    
O13   H37   S    
C29   N1    A    
Cu1   Cu2   S    
C21   N3    S    
C3    C7    A    
C5    C6    A    
Cu1   O3    S    
C32   O11   S    
Cu2   O4    S    
C15   N4    S    
C34   C35   A    
C37   H12   S    
C9    C32   A    
C12   O4    A    
C19   N9    S    
C35   C36   A    
C16   C17   A    
N4    C38   S    
C31   C33   S    
C31   O8    A    
Cu1   N1    S    
C1    O2    A    
Cu2   N2    S    
C5    C32   A    
Cu1   O5    S    
N6    C40   S    
N3    H10   S    
C9    C33   A    
C39   H20   S    
C16   N5    S    
C25   H6    S    
C42   H35   S    
C23   O5    A    
N7    C41   S    
C43   H41   S    
C11   C20   A    
N3    C37   S    
C38   H15   S    
C24   N2    A    
N9    C43   S    
O11   H31   S    
C40   H24   S    
C20   H1    S    
C18   C19   A    
C25   C26   A    
N6    H22   S    
C17   C21   A    
C38   H16   S    
C37   H13   S    
C2    C4    A    
C29   C30   A    
Cu1   O1    S    
O10   H26   S    
Cu2   O6    S    
C17   C18   A    
C10   C34   A    
C34   H7    S    
C30   N7    S    
C28   N6    S    
C25   N2    A    
C10   C12   S    
C26   C30   A    
C22   C27   A    
C13   C15   A    
C39   H21   S    
C22   C24   A    
C13   C16   A    
C1    C13   S    
N9    H38   S    
C12   O3    A    
C23   O6    A    
N5    C39   S    
C2    C36   A    
C29   H3    S    
C8    O12   S    
C4    C5    A    
C40   H25   S    
N8    C42   S    
C6    C7    A    
Cu2   O2    S    
C43   H39   S    
C6    H5    S    
C38   H17   S    
C22   O10   S    
C41   H29   S    
C2    C3    A    
N5    H18   S    
C3    C10   A    
C36   N8    S    
O9    H9    S    
C11   C23   S    
C9    O9    S    
C8    C33   A    
C37   H11   S    
C14   H2    S    
C40   H23   S    
Cu1   O7    S    
Cu2   O8    S    
C20   C21   A    
N4    H14   S    
C7    O13   S    
C41   H30   S    
C27   C28   A    
C14   C15   A    
C31   O7    A    
C35   H8    S    
C1    O1    A    
