data_mof_unit_23574.cif
_audit_creation_date              2012-12-10T19:59:24-0500
_audit_creation_method            fapswitch 2.2
_symmetry_space_group_name_H-M    P1
_symmetry_Int_Tables_number       1
_space_group_crystal_system       triclinic
_cell_length_a                    14.978446
_cell_length_b                    14.130117
_cell_length_c                    10.70311
_cell_angle_alpha                 89.704077
_cell_angle_beta                  89.757074
_cell_angle_gamma                 90.017111
_cell_volume                      2265.2325129

loop_
_atom_site_label
_atom_site_type_symbol
_atom_type_description
_atom_site_fract_x
_atom_site_fract_y
_atom_site_fract_z
_atom_type_partial_charge
C1    C     C_R   0.327745 0.500027 0.499343 0.898953
C2    C     C_R   0.672259 0.500043 0.500627 0.911833
C3    C     C_R   0.185226 0.426438 0.554212 -0.171162
C4    C     C_R   0.814682 0.426830 0.445551 -0.170752
C5    C     C_R   0.093223 0.427907 0.554555 -0.177493
C6    C     C_R   0.906686 0.428304 0.444951 -0.176762
C7    C     C_R   0.048054 0.502106 0.495474 -0.057163
C8    C     C_R   0.951976 0.502136 0.503699 -0.057361
C9    C     C_R   0.465688 0.105139 0.397604 0.251184
C10   C     C_R   0.534599 0.104295 0.602825 0.252847
C11   C     C_R   0.466541 0.204886 0.400460 -0.096363
C12   C     C_R   0.533563 0.204177 0.599716 -0.092778
C13   C     C_R   0.500110 0.052936 0.500237 -0.161223
C14   C     C_R   0.437325 0.894923 0.570837 -0.127544
C15   C     C_R   0.562910 0.895510 0.429518 -0.115009
C16   C     C_R   0.438600 0.795369 0.569819 0.095615
C17   C     C_R   0.561526 0.795945 0.430381 0.095680
C18   C     C_R   0.500149 0.946446 0.500229 0.222758
C19   C     C_R   0.497058 0.500001 0.259975 0.891024
C20   C     C_R   0.500904 0.499832 0.740124 0.912956
C21   C     C_R   0.460406 0.578500 0.062587 0.032778
C22   C     C_R   0.469347 0.579761 0.936268 -0.051657
C23   C     C_R   0.485653 0.497946 0.128796 -0.099815
C24   C     C_R   0.493616 0.498501 0.871723 -0.040106
C25   C     C_R   0.498082 0.412152 0.065199 -0.161624
C26   C     C_R   0.501253 0.412354 0.936363 -0.175626
C27   C     C_3   0.494314 0.682614 0.931500 0.164244
C28   C     C_3   0.480962 0.681767 0.073593 0.146243
C29   C     C_R   0.095078 0.575018 0.432336 0.480677
C30   C     C_R   0.905076 0.574684 0.566699 0.478967
C31   C     C_R   0.187422 0.574165 0.436333 -0.146413
C32   C     C_R   0.812724 0.573853 0.562950 -0.138884
C33   C     C_R   0.232057 0.500231 0.496800 -0.141645
C34   C     C_R   0.767961 0.500265 0.502885 -0.144271
H1    H     H_    0.511230 0.346282 0.114029 0.178122
H2    H     H_    0.514994 0.346439 0.888697 0.177564
H3    H     H_    0.387568 0.931509 0.626095 0.152824
H4    H     H_    0.612702 0.932551 0.374320 0.157362
H5    H     H_    0.390259 0.756224 0.624857 0.115970
H6    H     H_    0.609822 0.757253 0.375272 0.114809
H7    H     H_    0.445504 0.725912 0.878184 0.115611
H8    H     H_    0.541501 0.696499 0.129957 0.115957
H9    H     H_    0.224386 0.630211 0.389725 0.217611
H10   H     H_    0.775862 0.629621 0.609466 0.219439
H11   H     H_    0.219743 0.369134 0.601229 0.175502
H12   H     H_    0.780076 0.369799 0.398816 0.175644
H13   H     H_    0.056980 0.371905 0.602300 0.177956
H14   H     H_    0.942834 0.372574 0.397320 0.177746
H15   H     H_    0.440306 0.245049 0.322642 0.184521
H16   H     H_    0.559992 0.243860 0.677301 0.182179
N1    N     N_R   0.500000 0.252470 0.500000 -0.135108
N2    N     N_R   0.500000 0.747550 0.500000 -0.089139
O1    O     O_R   0.369060 0.579480 0.500010 -0.617831
O2    O     O_R   0.630940 0.579480 0.499990 -0.613678
O3    O     O_R   0.369050 0.420520 0.500010 -0.611972
O4    O     O_R   0.630950 0.420520 0.499990 -0.612254
O5    O     O_R   0.499990 0.579490 0.316780 -0.611017
O6    O     O_R   0.500010 0.579490 0.683220 -0.592089
O7    O     O_R   0.499980 0.420540 0.316780 -0.637212
O8    O     O_R   0.500020 0.420540 0.683220 -0.645624
Zn1   Zn    Zn3+2 0.500000 0.606140 0.500000 1.033796
Zn2   Zn    Zn3+2 0.500000 0.393860 0.500000 0.965309
S1    S     S_3+6 0.608631 0.705961 0.889494 0.068890
O9    O     O_2   0.667751 0.625921 0.931323 -0.324749
O10   O     O_2   0.617221 0.717843 0.750461 -0.225884
O11   O     O_3   0.641728 0.807093 0.957560 -0.428469
H17   H     H_    0.665235 0.788057 0.040309 0.354879
S2    S     S_3+6 0.384743 0.747772 0.121588 0.082145
O12   O     O_2   0.301102 0.703731 0.070654 -0.297469
O13   O     O_2   0.379160 0.748521 0.261702 -0.233839
O14   O     O_3   0.393460 0.859674 0.068816 -0.395366
H18   H     H_    0.370526 0.858402 0.982200 0.361071
O15   O     O_3   0.054336 0.647514 0.366852 -0.705294
H19   H     H_    0.990443 0.632648 0.354832 0.349915
O16   O     O_3   0.945940 0.646782 0.631868 -0.706352
H20   H     H_    0.009830 0.631825 0.643838 0.350650
S3    S     S_3+6 0.421854 0.048415 0.264236 0.072794
O17   O     O_2   0.358974 0.970996 0.304181 -0.176422
O18   O     O_2   0.372313 0.117553 0.182875 -0.289975
O19   O     O_3   0.506227 0.000958 0.181619 -0.471855
H21   H     H_    0.544552 0.055310 0.157794 0.358321
S4    S     S_3+6 0.580402 0.046224 0.735093 0.069020
O20   O     O_2   0.645487 0.971830 0.693199 -0.191261
O21   O     O_2   0.628114 0.115440 0.817569 -0.285665
O22   O     O_3   0.498385 0.993644 0.817701 -0.497130
H22   H     H_    0.457526 0.045676 0.841503 0.357940

loop_
_geom_bond_atom_site_label_1
_geom_bond_atom_site_label_2
_ccdc_geom_bond_type
C15   C18   A    
S1    O10   D    
C7    C29   A    
O15   H19   S    
C14   C18   A    
C1    C33   S    
C7    C8    S    
C4    H12   S    
S3    O17   D    
C19   O5    A    
C5    H13   S    
C6    H14   S    
C13   C18   S    
C22   C24   A    
C28   S2    S    
C24   C26   A    
N2    Zn1   S    
C29   O15   S    
C3    C33   A    
O3    Zn2   S    
O8    Zn2   S    
C9    C13   A    
C1    O1    A    
O1    Zn1   S    
C31   H9    S    
C20   C24   S    
S2    O12   D    
C31   C33   A    
C20   O8    A    
C2    C34   S    
O6    Zn1   S    
O11   H17   S    
S1    O11   S    
C21   C22   A    
N1    Zn2   S    
C17   N2    A    
S3    O18   D    
C4    C34   A    
C4    C6    A    
C2    O2    A    
C5    C7    A    
C6    C8    A    
C19   O7    A    
C25   C26   A    
O22   H22   S    
C3    H11   S    
C17   H6    S    
C32   C34   A    
C19   C23   S    
O16   H20   S    
C15   H4    S    
C11   H15   S    
C27   H7    S    
C32   H10   S    
C9    S3    S    
C9    C11   A    
C10   C12   A    
C25   H1    S    
C26   H2    S    
C21   C28   S    
S4    O21   D    
C22   C27   S    
C21   C23   A    
O4    Zn2   S    
C20   O6    A    
C12   N1    A    
S3    O19   S    
C15   C17   A    
O7    Zn2   S    
C16   N2    A    
O19   H21   S    
C3    C5    A    
C10   C13   A    
C12   H16   S    
O5    Zn1   S    
O2    Zn1   S    
S4    O22   S    
C8    C30   A    
C1    O3    A    
O14   H18   S    
C29   C31   A    
C2    O4    A    
C14   H3    S    
C30   C32   A    
C30   O16   S    
S2    O14   S    
C28   H8    S    
C10   S4    S    
C14   C16   A    
C23   C25   A    
C11   N1    A    
C16   H5    S    
S1    O9    D    
S2    O13   D    
S4    O20   D    
C27   C28   S    
C27   S1    S    
