data_mof_unit_58710.cif
_audit_creation_date              2012-12-10T17:42:47-0500
_audit_creation_method            fapswitch 2.2
_symmetry_space_group_name_H-M    P1
_symmetry_Int_Tables_number       1
_space_group_crystal_system       triclinic
_cell_length_a                    15.050609
_cell_length_b                    13.780064
_cell_length_c                    15.867591
_cell_angle_alpha                 90.051608
_cell_angle_beta                  90.297011
_cell_angle_gamma                 90.304122
_cell_volume                      3290.82028236

loop_
_atom_site_label
_atom_site_type_symbol
_atom_type_description
_atom_site_fract_x
_atom_site_fract_y
_atom_site_fract_z
_atom_type_partial_charge
C1    C     C_R   0.328582 0.499864 0.500445 0.799212
C2    C     C_3   0.559577 0.586902 0.950808 -0.505999
C3    C     C_3   0.557502 0.592913 0.051114 0.856385
C4    C     C_1   0.500485 0.501018 0.825095 -0.075728
C5    C     C_1   0.499657 0.501046 0.175099 -0.003269
C6    C     C_1   0.499354 0.500057 0.250632 -0.171948
C7    C     C_R   0.813630 0.573127 0.456269 -0.237926
C8    C     C_R   0.767558 0.501516 0.500863 -0.080366
C9    C     C_R   0.813321 0.432463 0.548127 -0.222348
C10   C     C_R   0.905859 0.434278 0.551314 0.066724
C11   C     C_R   0.952877 0.504555 0.504720 0.007187
C12   C     C_R   0.499610 0.499967 0.340246 0.806700
C13   C     C_R   0.906640 0.575562 0.457396 0.091960
C14   C     C_R   0.951274 0.367808 0.601936 -0.329570
C15   C     C_R   0.045251 0.366915 0.605061 0.478002
C16   C     C_R   0.092122 0.433300 0.553490 0.022355
C17   C     C_R   0.045965 0.503586 0.505344 -0.009625
C18   C     C_R   0.093086 0.573207 0.457792 0.088732
C19   C     C_R   0.047385 0.643863 0.411718 -0.288057
C20   C     C_R   0.954469 0.646485 0.411831 0.250478
C21   C     C_R   0.185215 0.431486 0.549450 -0.207626
C22   C     C_R   0.231629 0.500288 0.501819 -0.091612
C23   C     C_R   0.671127 0.500328 0.499819 0.806967
C24   C     C_R   0.185549 0.571515 0.457108 -0.209910
C25   C     C_R   0.422841 0.794457 0.483977 0.620078
C26   C     C_R   0.424052 0.205351 0.519567 0.595114
C27   C     C_R   0.577999 0.794886 0.508521 -0.108719
C28   C     C_R   0.577355 0.205971 0.487749 -0.110747
C29   C     C_R   0.579757 0.897522 0.503535 0.029448
C30   C     C_R   0.579567 0.103484 0.493754 0.028185
C31   C     C_R   0.499016 0.948627 0.500994 -0.013272
C32   C     C_R   0.499099 0.051642 0.499998 0.009173
C33   C     C_R   0.418634 0.896613 0.496774 -0.169381
C34   C     C_R   0.419135 0.103098 0.506248 -0.211083
C35   C     C_R   0.660095 0.950058 0.500617 -0.185436
C36   C     C_R   0.659940 0.051831 0.493389 -0.188350
C37   C     C_R   0.337470 0.051286 0.503530 0.181559
C38   C     C_R   0.337010 0.948219 0.499287 0.241154
C39   C     C_R   0.500045 0.500049 0.659820 0.818563
C40   C     C_3   0.404887 0.512374 0.048130 -0.461922
C41   C     C_3   0.540894 0.407600 0.048951 -0.442522
C42   C     C_3   0.538608 0.405837 0.951609 -0.393993
C43   C     C_3   0.405288 0.515405 0.950700 -0.395299
C44   C     C_1   0.500235 0.500308 0.749513 -0.192396
C45   C     C_3   0.501211 0.503872 0.082731 0.251271
C46   C     C_3   0.500889 0.502297 0.917345 0.263084
Cu1   Cu    Cu3+1 0.499990 0.597420 0.500010 0.956060
Cu2   Cu    Cu3+1 0.499990 0.402580 0.500010 0.961741
H1    H     H_    0.361161 0.457006 0.925507 0.177216
H2    H     H_    0.496724 0.343910 0.929544 0.171540
H3    H     H_    0.222152 0.377322 0.583766 0.216810
H4    H     H_    0.221596 0.624508 0.420285 0.180793
H5    H     H_    0.083934 0.697915 0.376125 0.143833
H6    H     H_    0.639931 0.756453 0.515540 0.159709
H7    H     H_    0.638678 0.245041 0.477297 0.160078
H8    H     H_    0.723023 0.912345 0.501981 0.128334
H9    H     H_    0.722754 0.090238 0.489259 0.129045
H10   H     H_    0.364491 0.449194 0.069482 0.176073
H11   H     H_    0.502247 0.344633 0.073427 0.171264
H12   H     H_    0.610480 0.398735 0.071526 0.206456
H13   H     H_    0.372302 0.578704 0.073017 0.196791
H14   H     H_    0.606931 0.394059 0.927223 0.173024
H15   H     H_    0.378062 0.585963 0.928671 0.167478
H16   H     H_    0.540115 0.653920 0.917447 0.122524
H17   H     H_    0.628950 0.573470 0.930009 0.167854
H18   H     H_    0.776411 0.625453 0.419581 0.181415
H19   H     H_    0.776587 0.378451 0.583681 0.137918
H20   H     H_    0.911701 0.318914 0.639603 0.146434
N1    N     N_R   0.499930 0.743810 0.499960 -0.235216
N2    N     N_R   0.499930 0.256190 0.499960 -0.220698
O1    O     O_R   0.370250 0.582280 0.500020 -0.543336
O2    O     O_R   0.370250 0.417720 0.500020 -0.537097
O3    O     O_R   0.499990 0.582310 0.379440 -0.586714
O4    O     O_R   0.499990 0.417690 0.379440 -0.571828
O5    O     O_R   0.629730 0.582260 0.499990 -0.595161
O6    O     O_R   0.629730 0.417740 0.499990 -0.596188
O7    O     O_R   0.499980 0.582240 0.620570 -0.571849
O8    O     O_R   0.499980 0.417760 0.620570 -0.572658
O9    O     O_3   0.095253 0.309423 0.660241 -0.622545
C47   C     C_3   0.049062 0.232578 0.700059 0.043251
H21   H     H_    0.098138 0.174971 0.714372 0.159881
H22   H     H_    0.998870 0.196632 0.658772 0.126685
C48   C     C_3   0.010947 0.265461 0.784330 -0.820826
H23   H     H_    0.964391 0.326830 0.776087 0.243201
H24   H     H_    0.974957 0.204153 0.814329 0.201414
H25   H     H_    0.065765 0.289178 0.826842 0.250115
N3    N     N_2   0.909766 0.720047 0.365354 -0.436113
H26   H     H_    0.942102 0.740181 0.310862 0.251084
C49   C     C_3   0.884793 0.803281 0.415399 -0.727795
H27   H     H_    0.945121 0.841688 0.439018 0.226995
H28   H     H_    0.843318 0.780693 0.469744 0.229773
H29   H     H_    0.845481 0.854125 0.376009 0.229377
O10   O     O_3   0.351826 0.748416 0.445590 -0.560765
C50   C     C_3   0.365382 0.744651 0.357176 0.127640
H30   H     H_    0.351115 0.669525 0.335513 0.157990
H31   H     H_    0.434519 0.762216 0.336469 0.137033
C51   C     C_3   0.300778 0.811941 0.312178 -0.873445
H32   H     H_    0.317873 0.888784 0.325952 0.248391
H33   H     H_    0.304747 0.800238 0.243082 0.207468
H34   H     H_    0.231735 0.796737 0.332922 0.254501
O11   O     O_3   0.360541 0.249726 0.568666 -0.566960
C52   C     C_3   0.382279 0.231189 0.654282 0.079700
H35   H     H_    0.453689 0.246488 0.668363 0.152943
H36   H     H_    0.368286 0.154003 0.670232 0.127108
C53   C     C_3   0.327245 0.294944 0.712055 -0.798276
H37   H     H_    0.349513 0.285223 0.778335 0.191371
H38   H     H_    0.335348 0.372496 0.694743 0.249686
H39   H     H_    0.256244 0.274058 0.707586 0.266919
N4    N     N_2   0.255862 0.102114 0.493571 -0.426190
H40   H     H_    0.258418 0.164359 0.457564 0.269767
C54   C     C_3   0.199519 0.108616 0.566887 -0.656600
H41   H     H_    0.189378 0.185903 0.582926 0.268813
H42   H     H_    0.229042 0.071968 0.622632 0.212612
H43   H     H_    0.133957 0.075213 0.552448 0.211812
N5    N     N_2   0.254361 0.896782 0.496148 -0.377670
H44   H     H_    0.202440 0.932675 0.467547 0.267601
C55   C     C_3   0.228908 0.848401 0.573392 -0.627839
H45   H     H_    0.168840 0.803160 0.561539 0.225156
H46   H     H_    0.213505 0.902355 0.623031 0.194058
H47   H     H_    0.282648 0.800148 0.596353 0.238302
O12   O     O_3   0.517564 0.676793 0.089286 -0.611658
C56   C     C_3   0.505602 0.759022 0.037624 -0.007988
H48   H     H_    0.449779 0.746202 0.992759 0.156672
H49   H     H_    0.567353 0.778998 0.003622 0.127938
C57   C     C_3   0.480711 0.844688 0.092989 -0.792130
H50   H     H_    0.534619 0.859664 0.139352 0.244914
H51   H     H_    0.470552 0.910148 0.053407 0.199151
H52   H     H_    0.418326 0.828457 0.127379 0.246951
O13   O     O_3   0.645141 0.579948 0.083820 -0.609991
C58   C     C_3   0.698137 0.664677 0.078342 0.083732
H53   H     H_    0.673082 0.721875 0.121464 0.189913
H54   H     H_    0.700789 0.692793 0.012763 0.115345
C59   C     C_3   0.792416 0.640471 0.105720 -0.809631
H55   H     H_    0.820247 0.583743 0.063836 0.247049
H56   H     H_    0.834924 0.706434 0.102079 0.197657
H57   H     H_    0.792619 0.613529 0.171693 0.259585

loop_
_geom_bond_atom_site_label_1
_geom_bond_atom_site_label_2
_ccdc_geom_bond_type
C24   H4    S    
N3    H26   S    
C25   O10   S    
C16   C21   A    
C12   O4    A    
C27   C29   A    
C34   C37   A    
C41   C42   S    
Cu2   O6    S    
C54   H41   S    
C23   O6    A    
C2    H17   S    
C51   H32   S    
C27   H6    S    
C43   H15   S    
C7    C8    A    
C4    C46   S    
C2    C46   S    
C53   H38   S    
C1    O1    A    
C18   C24   A    
C39   O7    A    
N4    C54   S    
C26   O11   S    
C6    C12   S    
C5    C6    T    
C15   C16   A    
C20   N3    S    
C8    C23   S    
C52   C53   S    
C18   C19   A    
C42   C46   S    
Cu2   O8    S    
Cu1   N1    S    
C26   C34   A    
C40   C43   S    
C15   O9    S    
C48   H23   S    
C8    C9    A    
N5    C55   S    
C59   H57   S    
C31   C33   A    
C49   H28   S    
C9    C10   A    
C42   H14   S    
C37   N4    S    
C27   N1    A    
C50   H31   S    
C19   H5    S    
C1    C22   S    
C21   C22   A    
C52   H35   S    
Cu2   O2    S    
C47   C48   S    
C51   H33   S    
C28   H7    S    
C2    H16   S    
C40   C45   S    
C53   H39   S    
C43   H1    S    
C1    O2    A    
C40   H10   S    
O11   C52   S    
Cu2   O4    S    
Cu1   O3    S    
C47   H22   S    
C36   H9    S    
C10   C14   A    
C55   H47   S    
C23   O5    A    
C16   C17   A    
C4    C44   T    
C50   C51   S    
C5    C45   S    
C3    C45   S    
C40   H13   S    
C35   C36   A    
C32   C34   A    
C58   H54   S    
C9    H19   S    
C37   C38   A    
C57   H52   S    
Cu1   Cu2   S    
C17   C18   A    
C54   H42   S    
O10   C50   S    
C49   H29   S    
C52   H36   S    
Cu1   O1    S    
O12   C56   S    
C42   H2    S    
C48   H24   S    
N3    C49   S    
C59   H55   S    
C26   N2    A    
C22   C24   A    
C58   C59   S    
C25   N1    A    
Cu1   O7    S    
C56   H49   S    
C21   H3    S    
C51   H34   S    
C57   H51   S    
O13   C58   S    
C11   C17   A    
C14   H20   S    
C13   C20   A    
C35   H8    S    
C3    O13   S    
C31   C32   A    
C28   N2    A    
C41   H12   S    
Cu2   N2    S    
C47   H21   S    
C56   H48   S    
C39   C44   S    
C53   H37   S    
C29   C35   A    
C55   H45   S    
C33   C38   A    
C30   C36   A    
C19   C20   A    
C55   H46   S    
C58   H53   S    
C49   H27   S    
Cu1   O5    S    
C29   C31   A    
N4    H40   S    
C7    H18   S    
C30   C32   A    
C38   N5    S    
C11   C13   A    
C57   H50   S    
C56   C57   S    
C28   C30   A    
C2    C3    S    
C54   H43   S    
C50   H30   S    
C43   C46   S    
C10   C11   A    
O9    C47   S    
C3    O12   S    
C7    C13   A    
C48   H25   S    
C41   H11   S    
C59   H56   S    
C41   C45   S    
C14   C15   A    
C39   O8    A    
C12   O3    A    
N5    H44   S    
C25   C33   A    
