data_mof_unit_50837.cif
_audit_creation_date              2012-12-10T18:55:59-0500
_audit_creation_method            fapswitch 2.2
_symmetry_space_group_name_H-M    P1
_symmetry_Int_Tables_number       1
_space_group_crystal_system       triclinic
_cell_length_a                    10.601073
_cell_length_b                    9.937663
_cell_length_c                    15.098416
_cell_angle_alpha                 91.144469
_cell_angle_beta                  93.197418
_cell_angle_gamma                 91.085048
_cell_volume                      1587.50318695

loop_
_atom_site_label
_atom_site_type_symbol
_atom_type_description
_atom_site_fract_x
_atom_site_fract_y
_atom_site_fract_z
_atom_type_partial_charge
C1    C     C_R   0.260989 0.498721 0.511023 0.859722
C2    C     C_R   0.942580 0.626304 0.491333 -0.004947
C3    C     C_R   0.935629 0.381230 0.469512 -0.000691
C4    C     C_R   0.064371 0.618769 0.530489 -0.000694
C5    C     C_R   0.549558 0.616394 0.097552 -0.130331
C6    C     C_R   0.450429 0.383605 0.902446 -0.130332
C7    C     C_R   0.477857 0.624295 0.907202 -0.128790
C8    C     C_R   0.522126 0.375704 0.092797 -0.128790
C9    C     C_R   0.562871 0.616447 0.189602 -0.024993
C10   C     C_R   0.437120 0.383552 0.810396 -0.024992
C11   C     C_R   0.465292 0.628257 0.815273 -0.029191
C12   C     C_R   0.739010 0.501279 0.488976 0.859726
C13   C     C_R   0.534698 0.371743 0.184726 -0.029190
C14   C     C_R   0.539220 0.495107 0.234140 -0.238876
C15   C     C_R   0.460774 0.504892 0.765858 -0.238875
C16   C     C_R   0.515972 0.498288 0.048537 0.043430
C17   C     C_R   0.484011 0.501711 0.951462 0.043430
C18   C     C_R   0.873495 0.504664 0.475183 -0.321879
C19   C     C_R   0.126505 0.495336 0.524818 -0.321877
C20   C     C_3   0.674800 0.149233 0.621046 -0.748267
C21   C     C_3   0.325200 0.850767 0.378954 -0.748274
C22   C     C_3   0.322130 0.136838 0.382302 -0.765217
C23   C     C_R   0.512831 0.498653 0.328807 0.839724
C24   C     C_3   0.677869 0.863162 0.617699 -0.765210
C25   C     C_2   0.609168 0.742603 0.236335 0.446784
C26   C     C_2   0.390826 0.257397 0.763662 0.446787
C27   C     C_2   0.450843 0.762942 0.774954 0.446796
C28   C     C_2   0.549151 0.237058 0.225045 0.446795
C29   C     C_2   0.102640 0.244754 0.547789 0.471334
C30   C     C_2   0.897358 0.755245 0.452212 0.471332
C31   C     C_2   0.879953 0.269413 0.411178 0.498774
C32   C     C_2   0.120047 0.730584 0.588824 0.498782
C33   C     C_R   0.487167 0.501347 0.671193 0.839726
C34   C     C_R   0.582504 0.075002 0.556281 0.211465
C35   C     C_R   0.417496 0.924998 0.443719 0.211468
C36   C     C_R   0.417215 0.068729 0.444064 0.179273
C37   C     C_R   0.582785 0.931271 0.555936 0.179272
C38   C     C_R   0.057420 0.373695 0.508668 -0.004946
H1    H     H_    0.569966 0.709579 0.065640 0.178883
H2    H     H_    0.344795 0.877245 0.309952 0.241174
H3    H     H_    0.330981 0.245577 0.381724 0.287266
H4    H     H_    0.332845 0.103547 0.312740 0.251269
H5    H     H_    0.224817 0.112163 0.401081 0.255541
H6    H     H_    0.669019 0.754423 0.618276 0.287266
H7    H     H_    0.775182 0.887838 0.598920 0.255547
H8    H     H_    0.667153 0.896452 0.687261 0.251266
H9    H     H_    0.660917 0.738727 0.299995 0.064002
H10   H     H_    0.339079 0.261272 0.700001 0.064001
H11   H     H_    0.394674 0.775073 0.713686 0.090804
H12   H     H_    0.430020 0.290420 0.934357 0.178882
H13   H     H_    0.605324 0.224928 0.286311 0.090804
H14   H     H_    0.196814 0.236714 0.577986 0.070988
H15   H     H_    0.803189 0.763278 0.422005 0.070981
H16   H     H_    0.784223 0.274499 0.382857 0.042900
H17   H     H_    0.215776 0.725500 0.617144 0.042897
H18   H     H_    0.478815 0.719150 0.942936 0.179304
H19   H     H_    0.521163 0.280849 0.057064 0.179304
H20   H     H_    0.672059 0.257951 0.619856 0.286092
H21   H     H_    0.655204 0.122755 0.690048 0.241172
H22   H     H_    0.773120 0.122591 0.607399 0.252822
H23   H     H_    0.327941 0.742048 0.380144 0.286092
H24   H     H_    0.226879 0.877409 0.392601 0.252816
N1    N     N_R   0.500000 0.857200 0.500000 -0.130770
N2    N     N_R   0.500000 0.142800 0.500000 -0.130770
O1    O     O_R   0.316770 0.614620 0.499990 -0.630239
O2    O     O_2   0.407597 0.147626 0.796796 -0.520521
O3    O     O_2   0.498750 0.863510 0.811699 -0.526562
O4    O     O_2   0.501244 0.136489 0.188301 -0.526563
O5    O     O_2   0.031503 0.147620 0.553502 -0.490115
O6    O     O_2   0.968489 0.852386 0.446509 -0.490109
O7    O     O_2   0.943455 0.175207 0.387839 -0.512166
O8    O     O_2   0.056544 0.824788 0.612166 -0.512163
O9    O     O_R   0.683230 0.385380 0.500010 -0.630239
O10   O     O_R   0.683230 0.614620 0.500010 -0.642311
O11   O     O_R   0.316770 0.385380 0.499990 -0.642313
O12   O     O_R   0.499990 0.614660 0.369060 -0.631844
O13   O     O_R   0.500010 0.385340 0.630940 -0.631844
O14   O     O_R   0.500010 0.614660 0.630940 -0.645446
O15   O     O_R   0.499990 0.385340 0.369060 -0.645446
O16   O     O_2   0.592396 0.852374 0.203201 -0.520521
Zn1   Zn    Zn3+2 0.500000 0.653120 0.500000 0.924804
Zn2   Zn    Zn3+2 0.500000 0.346880 0.500000 0.924803

loop_
_geom_bond_atom_site_label_1
_geom_bond_atom_site_label_2
_ccdc_geom_bond_type
C8    C13   A    
C12   O10   A    
C2    C18   A    
C34   C37   A    
C35   C36   A    
C23   O12   A    
C9    C25   S    
C32   O8    D    
C7    C11   A    
N1    Zn1   S    
C24   H7    S    
C28   O4    D    
C10   C15   A    
C28   H13   S    
C33   O14   A    
C22   H3    S    
C25   O16   D    
C3    C18   A    
C5    C16   A    
C37   N1    A    
C4    C19   A    
C11   C15   A    
C3    C38   A    
C16   C17   S    
C7    C17   A    
C29   C38   S    
C1    O1    A    
C13   C28   S    
C20   H22   S    
C25   H9    S    
C32   H17   S    
C21   H23   S    
C26   H10   S    
C20   C34   S    
C10   C26   S    
C31   O7    D    
C8    C16   A    
C13   C14   A    
C7    H18   S    
C12   O9    A    
C30   O6    D    
C29   O5    D    
C30   H15   S    
C1    C19   S    
C26   O2    D    
C1    O11   A    
C14   C23   S    
C2    C4    A    
C9    C14   A    
C5    C9    A    
C19   C38   A    
C8    H19   S    
O1    Zn1   S    
C22   H5    S    
C11   C27   S    
C34   N2    A    
C24   C37   S    
C6    H12   S    
C20   H21   S    
C3    C31   S    
N2    Zn2   S    
C21   H24   S    
C4    C32   S    
C5    H1    S    
C24   H6    S    
O10   Zn1   S    
C20   H20   S    
O9    Zn2   S    
C6    C17   A    
O12   Zn1   S    
C6    C10   A    
O15   Zn2   S    
O11   Zn2   S    
C21   C35   S    
C22   C36   S    
C2    C30   S    
C24   H8    S    
O14   Zn1   S    
C33   O13   A    
C22   H4    S    
C21   H2    S    
O13   Zn2   S    
C31   H16   S    
C27   O3    D    
C12   C18   S    
C35   N1    A    
C23   O15   A    
C36   N2    A    
C15   C33   S    
C27   H11   S    
C29   H14   S    
