data_mof_unit_29561.cif
_audit_creation_date              2012-12-10T18:13:55-0500
_audit_creation_method            fapswitch 2.2
_symmetry_space_group_name_H-M    P1
_symmetry_Int_Tables_number       1
_space_group_crystal_system       triclinic
_cell_length_a                    10.722369
_cell_length_b                    9.408895
_cell_length_c                    23.514992
_cell_angle_alpha                 90.115218
_cell_angle_beta                  89.94993
_cell_angle_gamma                 89.9832
_cell_volume                      2372.31930756

loop_
_atom_site_label
_atom_site_type_symbol
_atom_type_description
_atom_site_fract_x
_atom_site_fract_y
_atom_site_fract_z
_atom_type_partial_charge
C1    C     C_R   0.259637 0.499798 0.499935 0.768856
C2    C     C_R   0.616705 0.530713 0.119830 0.524907
C3    C     C_R   0.581678 0.401664 0.238662 -0.076851
C4    C     C_R   0.503943 0.499800 0.391130 0.789545
C5    C     C_R   0.585486 0.400985 0.298321 -0.035582
C6    C     C_R   0.510422 0.499480 0.328731 -0.129747
C7    C     C_R   0.438519 0.599299 0.298913 -0.222674
C8    C     C_R   0.437643 0.599961 0.239722 -0.077653
C9    C     C_R   0.508424 0.500572 0.209379 0.301481
C10   C     C_R   0.509906 0.629688 0.761145 -0.098935
C11   C     C_R   0.509699 0.629367 0.701852 -0.226581
C12   C     C_R   0.283573 0.448901 0.971711 -0.137525
C13   C     C_R   0.499224 0.500676 0.671725 -0.044335
C14   C     C_R   0.488327 0.372571 0.701996 -0.225106
C15   C     C_R   0.487996 0.373304 0.761288 -0.103156
C16   C     C_R   0.740108 0.499766 0.499873 0.756467
C17   C     C_R   0.499065 0.501738 0.790995 0.359604
C18   C     C_3   0.071645 0.576480 0.553492 -0.377129
C19   C     C_3   0.071259 0.344146 0.499963 -0.371345
C20   C     C_3   0.927725 0.576238 0.553508 -0.371611
C21   C     C_3   0.928526 0.344119 0.499752 -0.376377
C22   C     C_3   0.071933 0.575551 0.446124 -0.372088
C23   C     C_R   0.285627 0.447567 0.030884 -0.131617
C24   C     C_3   0.121686 0.499033 0.499870 0.151253
C25   C     C_3   0.878020 0.498980 0.499816 0.153384
C26   C     C_3   0.927961 0.575698 0.446133 -0.372156
C27   C     C_3   0.624696 0.083764 0.515813 -0.190447
C28   C     C_3   0.624640 0.916321 0.515936 -0.187455
C29   C     C_3   0.410195 0.084067 0.543210 -0.186598
C30   C     C_3   0.410052 0.916337 0.543148 -0.187438
C31   C     C_3   0.465383 0.083371 0.444904 -0.177170
C32   C     C_3   0.465600 0.916122 0.444872 -0.180390
C33   C     C_R   0.499711 0.500159 0.609124 0.805016
C34   C     C_R   0.397303 0.472344 0.060504 -0.016773
C35   C     C_R   0.611263 0.526116 0.879532 0.543254
C36   C     C_R   0.392978 0.476456 0.881175 0.539291
C37   C     C_R   0.393214 0.474643 0.940840 -0.020557
C38   C     C_R   0.506108 0.499051 0.970086 -0.014238
C39   C     C_R   0.615975 0.524861 0.939213 -0.057951
C40   C     C_2   0.860185 0.544187 0.054129 0.437215
C41   C     C_2   0.673354 0.303044 0.327517 0.337536
C42   C     C_R   0.508755 0.497813 0.030169 -0.011973
C43   C     C_R   0.622063 0.522147 0.059706 -0.098045
C44   C     C_R   0.734233 0.540595 0.027821 -0.016758
C45   C     C_R   0.728525 0.545277 0.968231 -0.133607
C46   C     C_R   0.399991 0.471659 0.119972 0.551149
Cu1   Cu    Cu3+1 0.499860 0.642410 0.500030 0.896995
Cu2   Cu    Cu3+1 0.499860 0.357590 0.500030 0.894258
H1    H     H_    0.195750 0.429808 0.950286 0.200036
H2    H     H_    0.894058 0.285945 0.537855 0.162421
H3    H     H_    0.106353 0.687116 0.444902 0.163698
H4    H     H_    0.106838 0.521154 0.407155 0.162004
H5    H     H_    0.893667 0.687339 0.445033 0.166579
H6    H     H_    0.893089 0.521600 0.407117 0.156564
H7    H     H_    0.654879 0.124050 0.558135 0.140590
H8    H     H_    0.654427 0.876813 0.558376 0.138081
H9    H     H_    0.199132 0.427666 0.053336 0.202001
H10   H     H_    0.695313 0.120620 0.484488 0.141909
H11   H     H_    0.695562 0.878748 0.484815 0.144447
H12   H     H_    0.518380 0.729670 0.679688 0.145157
H13   H     H_    0.433154 0.122499 0.586663 0.140079
H14   H     H_    0.432688 0.877978 0.586598 0.141118
H15   H     H_    0.371713 0.123088 0.432216 0.143191
H16   H     H_    0.372102 0.876084 0.432042 0.137411
H17   H     H_    0.532089 0.120487 0.411924 0.157619
H18   H     H_    0.532637 0.878887 0.411948 0.159920
H19   H     H_    0.314491 0.122788 0.533814 0.137784
H20   H     H_    0.314331 0.877806 0.533598 0.138532
H21   H     H_    0.381438 0.675829 0.321566 0.150497
H22   H     H_    0.381739 0.677678 0.217352 0.157177
H23   H     H_    0.479971 0.271874 0.679954 0.143975
H24   H     H_    0.518522 0.729273 0.783968 0.139141
H25   H     H_    0.893215 0.687813 0.554674 0.161509
H26   H     H_    0.894755 0.286150 0.461403 0.165073
H27   H     H_    0.879808 0.484804 0.092517 0.127468
H28   H     H_    0.813897 0.559991 0.944227 0.218589
H29   H     H_    0.637629 0.327133 0.214421 0.180855
H30   H     H_    0.698384 0.319360 0.371699 0.070716
H31   H     H_    0.479969 0.274040 0.784226 0.138086
H32   H     H_    0.105813 0.688167 0.554522 0.161722
H33   H     H_    0.105789 0.285545 0.461877 0.168252
H34   H     H_    0.106547 0.522982 0.592546 0.159353
H35   H     H_    0.105039 0.286589 0.538318 0.160033
H36   H     H_    0.892887 0.522343 0.592508 0.160045
N1    N     N_R   0.500991 0.501941 0.851922 -0.470025
N2    N     N_R   0.508190 0.501236 0.148272 -0.456355
N3    N     N_3   0.500250 0.143650 0.501250 -0.118231
N4    N     N_3   0.500250 0.856350 0.501250 -0.117221
O1    O     O_R   0.317570 0.620260 0.500030 -0.594724
O2    O     O_2   0.285740 0.453663 0.852576 -0.529175
O3    O     O_2   0.295230 0.441452 0.149437 -0.531748
O4    O     O_2   0.716914 0.573210 0.149939 -0.546334
O5    O     O_2   0.945293 0.610191 0.031914 -0.539992
O6    O     O_2   0.720852 0.203391 0.302141 -0.540295
O7    O     O_R   0.317570 0.379740 0.500030 -0.593384
O8    O     O_R   0.499840 0.620290 0.417900 -0.582118
O9    O     O_R   0.499840 0.379710 0.417900 -0.597571
O10   O     O_R   0.682190 0.620260 0.500010 -0.594974
O11   O     O_R   0.682190 0.379740 0.500010 -0.602037
O12   O     O_R   0.499920 0.620230 0.582140 -0.589107
O13   O     O_R   0.499920 0.379770 0.582140 -0.588490
O14   O     O_2   0.716163 0.549963 0.849254 -0.530200

loop_
_geom_bond_atom_site_label_1
_geom_bond_atom_site_label_2
_ccdc_geom_bond_type
Cu2   O7    S    
C11   C13   A    
C14   H23   S    
C34   C42   A    
C40   O5    D    
C33   O13   A    
C35   O14   S    
C12   H1    S    
C28   H8    S    
C7    C8    A    
Cu2   O9    S    
C12   C23   A    
C29   C30   S    
Cu1   O10   S    
C45   H28   S    
C17   N1    S    
C32   H18   S    
C36   C37   A    
C19   C21   S    
C38   C42   A    
C38   C39   A    
C27   H7    S    
C20   C25   S    
C10   C17   A    
C32   N4    S    
C31   H17   S    
C12   C37   A    
C5    C41   S    
C4    O8    A    
C15   H31   S    
C31   C32   S    
C8    C9    A    
C28   N4    S    
Cu1   O8    S    
C34   C46   A    
C39   C45   A    
C29   H19   S    
C13   C14   A    
Cu1   O1    S    
C19   H35   S    
C26   H6    S    
C21   H2    S    
C2    O4    S    
C29   H13   S    
C31   N3    S    
Cu1   Cu2   S    
C31   H15   S    
C32   H16   S    
C18   C24   S    
C4    C6    S    
C41   H30   S    
C46   O3    S    
C25   C26   S    
C21   H26   S    
Cu1   O12   S    
C35   C39   A    
C43   C44   A    
C13   C33   S    
C37   C38   A    
C3    C9    A    
C4    O9    A    
C9    N2    S    
C41   O6    D    
C2    C43   A    
C1    O7    A    
C23   C34   A    
Cu2   N3    S    
C27   N3    S    
C20   H36   S    
C22   C24   S    
C42   C43   A    
C30   N4    S    
C11   H12   S    
C3    H29   S    
C26   H5    S    
C44   C45   A    
C22   H4    S    
C28   H11   S    
C36   O2    S    
C16   C25   S    
C23   H9    S    
Cu2   O11   S    
C21   C25   S    
C1    O1    A    
C3    C5    A    
C27   H10   S    
C7    H21   S    
C16   O11   A    
C15   C17   A    
C6    C7    A    
C36   N1    A    
C8    H22   S    
C40   H27   S    
C33   O12   A    
Cu1   N4    S    
C30   H14   S    
C19   C24   S    
C35   N1    A    
C16   O10   A    
C5    C6    A    
Cu2   O13   S    
C18   H34   S    
C20   H25   S    
C2    N2    A    
C18   C20   S    
C29   N3    S    
C10   C11   A    
C40   C44   S    
C1    C24   S    
C18   H32   S    
C22   C26   S    
C27   C28   S    
C14   C15   A    
C19   H33   S    
C30   H20   S    
C22   H3    S    
C46   N2    A    
C10   H24   S    
