data_mof_unit_6875.cif
_audit_creation_date              2012-12-10T18:00:48-0500
_audit_creation_method            fapswitch 2.2
_symmetry_space_group_name_H-M    P1
_symmetry_Int_Tables_number       1
_space_group_crystal_system       triclinic
_cell_length_a                    15.853626
_cell_length_b                    10.786909
_cell_length_c                    9.597297
_cell_angle_alpha                 89.816192
_cell_angle_beta                  88.98782
_cell_angle_gamma                 91.816587
_cell_volume                      1640.15683966

loop_
_atom_site_label
_atom_site_type_symbol
_atom_type_description
_atom_site_fract_x
_atom_site_fract_y
_atom_site_fract_z
_atom_type_partial_charge
C1    C     C_R   0.498002 0.262484 0.499929 0.797001
C2    C     C_R   0.502154 0.737497 0.499935 0.802204
C3    C     C_R   0.443860 0.930210 0.418676 -0.229676
C4    C     C_R   0.556728 0.069731 0.580245 -0.220791
C5    C     C_R   0.503090 0.871525 0.499918 -0.062624
C6    C     C_R   0.497350 0.128441 0.499283 -0.069615
C7    C     C_R   0.445225 0.425387 0.078413 -0.065723
C8    C     C_R   0.554882 0.574450 0.921691 -0.063605
C9    C     C_R   0.443057 0.426099 0.930694 0.262896
C10   C     C_R   0.553666 0.578993 0.069437 0.263873
C11   C     C_R   0.339968 0.499498 0.500973 0.818087
C12   C     C_R   0.660067 0.500313 0.499053 0.814321
C13   C     C_3   0.970001 0.459086 0.622803 0.218481
C14   C     C_3   0.030254 0.539129 0.377556 0.218082
C15   C     C_3   0.025407 0.382605 0.523304 -0.199952
C16   C     C_3   0.974833 0.615630 0.477015 -0.200437
C17   C     C_1   0.250264 0.499005 0.502778 -0.184145
C18   C     C_1   0.749833 0.500164 0.497388 -0.186427
C19   C     C_3   0.028707 0.574852 0.601827 -0.201215
C20   C     C_3   0.971514 0.423380 0.398498 -0.201263
C21   C     C_3   0.083049 0.498824 0.501016 0.109630
C22   C     C_3   0.917135 0.499403 0.499375 0.109022
C23   C     C_1   0.174709 0.498758 0.502508 -0.073839
C24   C     C_1   0.825418 0.499859 0.497842 -0.071963
C25   C     C_R   0.440164 0.058884 0.417256 0.182359
C26   C     C_R   0.561065 0.941109 0.580266 0.180798
Cu1   Cu    Cu3+1 0.500000 0.500020 0.640660 0.930932
Cu2   Cu    Cu3+1 0.500000 0.499980 0.359340 0.930409
H1    H     H_    0.047199 0.287432 0.542937 0.136542
H2    H     H_    0.953096 0.710826 0.457344 0.136746
H3    H     H_    0.947125 0.362107 0.314622 0.137426
H4    H     H_    0.053140 0.636114 0.685683 0.137146
H5    H     H_    0.399782 0.874984 0.357635 0.147183
H6    H     H_    0.600945 0.124939 0.641039 0.149876
H7    H     H_    0.401271 0.366755 0.138052 0.139092
H8    H     H_    0.598848 0.633186 0.862239 0.137175
N1    N     N_R   0.500020 0.500030 0.852070 -0.190595
N2    N     N_R   0.499980 0.499970 0.147930 -0.190290
O1    O     O_R   0.500000 0.319660 0.618740 -0.605868
O2    O     O_R   0.500000 0.680340 0.381260 -0.588939
O3    O     O_R   0.499990 0.319630 0.381170 -0.569829
O4    O     O_R   0.500010 0.680370 0.618830 -0.571377
O5    O     O_R   0.379080 0.500000 0.618760 -0.577524
O6    O     O_R   0.620920 0.500000 0.381240 -0.595204
O7    O     O_R   0.379080 0.499970 0.381190 -0.577349
O8    O     O_R   0.620920 0.500030 0.618810 -0.576218
C27   C     C_3   0.934027 0.413714 0.763276 -0.409528
C28   C     C_3   0.004031 0.377295 0.861048 -0.849242
H9    H     H_    0.040141 0.300113 0.815812 0.249522
H10   H     H_    0.047851 0.457678 0.879532 0.257683
H11   H     H_    0.975955 0.346156 0.962538 0.242023
H12   H     H_    0.897236 0.488661 0.811840 0.203084
H13   H     H_    0.890929 0.332196 0.746277 0.203402
C29   C     C_3   0.066874 0.584281 0.237392 -0.408752
C30   C     C_3   0.997404 0.620838 0.138726 -0.848568
H14   H     H_    0.953643 0.540476 0.119688 0.255989
H15   H     H_    0.961166 0.698113 0.183529 0.250056
H16   H     H_    0.026013 0.651922 0.037590 0.241791
H17   H     H_    0.110018 0.665694 0.254786 0.203409
H18   H     H_    0.103787 0.509181 0.189327 0.203595
C31   C     C_3   0.374110 0.119153 0.331135 -0.864520
H19   H     H_    0.338221 0.185224 0.395865 0.217771
H20   H     H_    0.404954 0.168761 0.241741 0.238764
H21   H     H_    0.328292 0.049687 0.288560 0.221906
C32   C     C_3   0.629275 0.880827 0.661470 -0.870872
H22   H     H_    0.600479 0.825916 0.748430 0.237878
H23   H     H_    0.665937 0.819289 0.592234 0.218027
H24   H     H_    0.673940 0.950515 0.706685 0.223740
C33   C     C_3   0.374685 0.343101 0.868784 -0.373646
C34   C     C_3   0.287261 0.396215 0.892681 -0.852625
H25   H     H_    0.285218 0.491886 0.850094 0.273619
H26   H     H_    0.239064 0.337290 0.839467 0.241360
H27   H     H_    0.270865 0.398182 0.005616 0.237377
H28   H     H_    0.383181 0.325245 0.757726 0.256534
H29   H     H_    0.375876 0.250062 0.918876 0.163781
C35   C     C_3   0.611205 0.678263 0.131543 -0.384908
C36   C     C_3   0.577363 0.807664 0.107458 -0.839309
H30   H     H_    0.511577 0.812881 0.148083 0.272759
H31   H     H_    0.617351 0.877700 0.162286 0.244008
H32   H     H_    0.578415 0.830998 0.994863 0.236884
H33   H     H_    0.621250 0.667857 0.242863 0.258472
H34   H     H_    0.675049 0.673487 0.082347 0.163721

loop_
_geom_bond_atom_site_label_1
_geom_bond_atom_site_label_2
_ccdc_geom_bond_type
C30   H14   S    
C29   H18   S    
C36   H30   S    
C17   C23   T    
C18   C24   T    
C14   C21   S    
C19   C21   S    
C9    C33   S    
C6    C25   A    
Cu2   O2    S    
C16   H2    S    
Cu2   O3    S    
C8    H8    S    
C31   H20   S    
C10   C35   S    
C28   H11   S    
Cu1   O1    S    
C32   H23   S    
C11   O5    A    
C34   H25   S    
C27   H13   S    
C28   H10   S    
C31   H19   S    
C19   H4    S    
C15   H1    S    
C29   H17   S    
C36   H31   S    
C21   C23   S    
C15   C20   S    
C4    H6    S    
Cu2   O7    S    
C13   C19   S    
C1    C6    S    
C14   C20   S    
C3    C25   A    
C35   C36   S    
C12   O8    A    
C35   H34   S    
C13   C27   S    
Cu2   O6    S    
C31   H21   S    
Cu1   O5    S    
C27   C28   S    
Cu2   N2    S    
C32   H24   S    
C34   H27   S    
C9    N1    A    
C33   H28   S    
C25   C31   S    
Cu1   O8    S    
C4    C6    A    
C28   H9    S    
C14   C29   S    
C20   C22   S    
C13   C15   S    
C14   C16   S    
C11   O7    A    
C2    C5    S    
C8    N1    A    
C36   H32   S    
C1    O3    A    
C7    C9    A    
C29   C30   S    
C11   C17   S    
C16   C22   S    
C26   C32   S    
C7    H7    S    
C3    C5    A    
C35   H33   S    
C4    C26   A    
C27   H12   S    
C10   N2    A    
C30   H15   S    
C12   O6    A    
Cu1   O4    S    
C2    O4    A    
C16   C19   S    
C7    N2    A    
C13   C22   S    
C33   H29   S    
C22   C24   S    
C33   C34   S    
C1    O1    A    
C5    C26   A    
C2    O2    A    
C15   C21   S    
C8    C10   A    
C32   H22   S    
C30   H16   S    
C12   C18   S    
Cu1   Cu2   S    
C3    H5    S    
C34   H26   S    
Cu1   N1    S    
C20   H3    S    
