data_mof_unit_17631.cif
_audit_creation_date              2012-12-11T15:56:01-0500
_audit_creation_method            fapswitch 2.2
_symmetry_space_group_name_H-M    P1
_symmetry_Int_Tables_number       1
_space_group_crystal_system       triclinic
_cell_length_a                    11.024035
_cell_length_b                    11.05302
_cell_length_c                    18.747716
_cell_angle_alpha                 90.318393
_cell_angle_beta                  90.967346
_cell_angle_gamma                 59.334145
_cell_volume                      1964.63862842

loop_
_atom_site_label
_atom_site_type_symbol
_atom_type_description
_atom_site_fract_x
_atom_site_fract_y
_atom_site_fract_z
_atom_type_partial_charge
C1    C     C_R   0.360925 0.765455 0.395087 0.534291
C2    C     C_R   0.244981 0.447150 0.194962 -0.156260
C3    C     C_R   0.237254 0.447534 0.269295 -0.041382
C4    C     C_R   0.385802 0.357631 0.386260 0.542523
C5    C     C_R   0.808523 0.746317 0.331763 -0.093808
C6    C     C_R   0.835791 0.647617 0.278850 -0.097403
C7    C     C_R   0.974793 0.542270 0.264383 -0.100375
C8    C     C_R   0.090624 0.540668 0.298544 0.014378
C9    C     C_R   0.366114 0.358129 0.308111 0.001390
C10   C     C_R   0.867097 0.327036 0.184063 0.017328
C11   C     C_R   0.964780 0.232603 0.234401 0.000046
C12   C     C_R   0.627862 0.155366 0.161706 -0.005735
C13   C     C_R   0.934883 0.248419 0.306435 -0.009362
C14   C     C_R   0.707218 0.451899 0.278701 -0.143202
C15   C     C_R   0.737266 0.437086 0.206193 -0.179516
C16   C     C_R   0.773473 0.380640 0.402517 0.545724
C17   C     C_3   0.021614 0.078081 0.239126 -0.250639
C18   C     C_3   0.987393 0.096125 0.317348 -0.284861
C19   C     C_R   0.807793 0.359442 0.328752 0.045589
C20   C     C_R   0.370012 0.825416 0.171578 0.003996
C21   C     C_R   0.424806 0.883401 0.219821 0.002221
C22   C     C_R   0.422863 0.865202 0.292946 -0.005188
C23   C     C_R   0.362967 0.344076 0.158562 -0.012259
C24   C     C_R   0.329836 0.713526 0.270901 -0.164791
C25   C     C_R   0.333634 0.730025 0.197511 -0.169382
C26   C     C_3   0.386202 0.032722 0.228389 -0.249571
C27   C     C_3   0.384634 0.013192 0.308134 -0.290619
C28   C     C_R   0.348005 0.761939 0.606624 0.542944
C29   C     C_R   0.361286 0.791896 0.319312 0.008990
C30   C     C_R   0.302144 0.310403 0.810143 0.025310
C31   C     C_R   0.368395 0.191133 0.766609 0.044905
C32   C     C_R   0.375081 0.201402 0.694092 0.010465
C33   C     C_R   0.236809 0.454403 0.704766 -0.160813
C34   C     C_R   0.492370 0.280511 0.269783 -0.145784
C35   C     C_R   0.229236 0.443004 0.778394 -0.174682
C36   C     C_3   0.514948 0.067162 0.771567 -0.261599
C37   C     C_3   0.519849 0.074098 0.691349 -0.272473
C38   C     C_R   0.319148 0.333441 0.662871 0.009119
C39   C     C_R   0.848367 0.321553 0.829330 0.021585
C40   C     C_R   0.369541 0.350902 0.595473 0.557148
C41   C     C_R   0.903635 0.385701 0.787184 0.045344
C42   C     C_R   0.894359 0.387865 0.714356 0.005791
C43   C     C_R   0.778437 0.252534 0.721568 -0.170063
C44   C     C_R   0.791590 0.248097 0.795918 -0.182068
C45   C     C_R   0.493658 0.265897 0.195744 -0.031150
C46   C     C_3   0.877306 0.532198 0.791082 -0.250177
C47   C     C_3   0.873470 0.532871 0.710632 -0.262309
C48   C     C_R   0.822539 0.329991 0.680594 0.010978
C49   C     C_R   0.314052 0.814713 0.831856 0.009146
C50   C     C_R   0.211705 0.805378 0.790911 -0.029181
C51   C     C_R   0.221086 0.795958 0.717735 0.069444
C52   C     C_R   0.764076 0.375715 0.609896 0.551313
C53   C     C_R   0.449409 0.772769 0.724498 -0.161170
C54   C     C_R   0.440777 0.781120 0.798962 -0.157004
C55   C     C_3   0.055203 0.899089 0.786571 -0.223391
C56   C     C_R   0.058194 0.650348 0.346588 -0.086663
C57   C     C_3   0.066428 0.891758 0.705946 0.142233
C58   C     C_R   0.333799 0.791561 0.682696 -0.011521
C59   C     C_R   0.911073 0.314749 0.111422 0.538732
C60   C     C_R   0.330838 0.296863 0.090857 0.529372
C61   C     C_R   0.311226 0.894927 0.103762 0.534461
C62   C     C_R   0.883372 0.309836 0.904442 0.554674
C63   C     C_R   0.295144 0.287996 0.885233 0.549910
C64   C     C_R   0.858130 0.931073 0.092147 -0.093533
C65   C     C_R   0.277057 0.890270 0.899308 0.541869
C66   C     C_R   0.831947 0.916943 0.163012 -0.183488
C67   C     C_R   0.920261 0.748123 0.365625 -0.131020
C68   C     C_R   0.717493 0.027047 0.197414 -0.143285
C69   C     C_3   0.829321 0.949624 0.940696 -0.014126
C70   C     C_3   0.739442 0.880254 0.943705 -0.399512
C71   C     C_3   0.920895 0.891425 0.615278 -0.001675
C72   C     C_3   0.854985 0.810834 0.583681 -0.358652
C73   C     C_R   0.661301 0.171206 0.091578 -0.013264
C74   C     C_R   0.767356 0.056469 0.054230 0.329012
Cr1   Cr    Cr6+3 0.601740 0.606840 0.505840 1.006022
Cr2   Cr    Cr6+3 0.291500 0.601560 0.495070 0.994349
Cr3   Cr    Cr6+3 0.606780 0.291630 0.499130 0.982714
Cr4   Cr    Cr6+3 0.062440 0.063060 0.008240 1.026725
Cr5   Cr    Cr6+3 0.062950 0.375000 0.998920 0.994035
Cr6   Cr    Cr6+3 0.374550 0.061770 0.992470 1.001771
H1    H     H_    0.592617 0.226444 0.298206 0.144068
H2    H     H_    0.081881 0.044931 0.353028 0.140013
H3    H     H_    0.300643 0.640914 0.289852 0.137734
H4    H     H_    0.294958 0.679512 0.161698 0.130051
H5    H     H_    0.281533 0.109800 0.204909 0.145520
H6    H     H_    0.473554 0.045101 0.211026 0.168543
H7    H     H_    0.469495 0.019921 0.337283 0.140885
H8    H     H_    0.278208 0.077660 0.331277 0.138478
H9    H     H_    0.189875 0.558546 0.682004 0.201558
H10   H     H_    0.174289 0.537073 0.810480 0.123215
H11   H     H_    0.518227 0.971757 0.791036 0.143671
H12   H     H_    0.701360 0.825640 0.343830 0.113498
H13   H     H_    0.589432 0.092047 0.799451 0.136839
H14   H     H_    0.602631 0.094910 0.673780 0.152761
H15   H     H_    0.900146 0.830487 0.403432 0.095099
H16   H     H_    0.519758 0.984881 0.663828 0.131619
H17   H     H_    0.721933 0.206917 0.697115 0.131783
H18   H     H_    0.753071 0.192829 0.826886 0.133496
H19   H     H_    0.966664 0.537504 0.814906 0.157502
H20   H     H_    0.773614 0.606693 0.814717 0.125879
H21   H     H_    0.770159 0.614169 0.688852 0.152181
H22   H     H_    0.964343 0.533075 0.686432 0.157679
H23   H     H_    0.748646 0.657315 0.247361 0.129516
H24   H     H_    0.543636 0.757280 0.699701 0.123260
H25   H     H_    0.527165 0.775393 0.830009 0.112356
H26   H     H_    0.020579 0.004906 0.808221 0.133548
H27   H     H_    0.947609 0.842664 0.067667 0.093043
H28   H     H_    0.001206 0.845695 0.807993 0.138100
H29   H     H_    0.040466 0.993853 0.680769 0.089962
H30   H     H_    0.900631 0.819896 0.191320 0.136561
H31   H     H_    0.697207 0.009145 0.251400 0.110354
H32   H     H_    0.136599 0.669048 0.365272 0.186331
H33   H     H_    0.595816 0.269383 0.063312 0.114617
H34   H     H_    0.992796 0.468164 0.222460 0.136286
H35   H     H_    0.150379 0.518164 0.164715 0.134416
H36   H     H_    0.941926 0.874160 0.953508 0.135559
H37   H     H_    0.826633 0.980241 0.884435 0.133545
H38   H     H_    0.627835 0.958432 0.931239 0.196424
H39   H     H_    0.777437 0.794769 0.903548 0.084155
H40   H     H_    0.746413 0.833538 0.996890 0.133488
H41   H     H_    0.986524 0.901027 0.573817 0.153988
H42   H     H_    0.834838 0.998219 0.629927 0.121570
H43   H     H_    0.938790 0.703226 0.568426 0.160414
H44   H     H_    0.785391 0.803391 0.623320 0.141303
H45   H     H_    0.607107 0.537094 0.296277 0.137273
H46   H     H_    0.790959 0.866476 0.535527 0.087853
H47   H     H_    0.661093 0.511483 0.168095 0.120212
H48   H     H_    0.135341 0.017430 0.229677 0.160288
H49   H     H_    0.959321 0.044598 0.207041 0.174371
H50   H     H_    0.902335 0.074559 0.330995 0.144348
O1    O     O_R   0.748670 0.497520 0.427970 -0.506743
O2    O     O_R   0.417470 0.174910 0.067830 -0.511648
O3    O     O_R   0.375160 0.946380 0.070880 -0.498359
O4    O     O_R   0.476470 0.723930 0.429450 -0.494178
O5    O     O_R   0.160500 0.919670 0.926690 -0.532799
O6    O     O_R   0.933140 0.190380 0.936050 -0.462554
O7    O     O_R   0.909010 0.403210 0.925030 -0.530366
O8    O     O_R   0.179590 0.361290 0.918480 -0.511732
O9    O     O_R   0.391360 0.170840 0.907510 -0.528468
O10   O     O_R   0.350950 0.942600 0.922260 -0.514353
O11   O     O_3   0.166650 0.166610 0.999880 -0.249203
O12   O     O_R   0.300170 0.471020 0.567120 -0.503370
O13   O     O_R   0.264730 0.744140 0.416740 -0.563006
O14   O     O_R   0.309440 0.472410 0.418220 -0.519464
O15   O     O_R   0.501630 0.260530 0.414310 -0.531291
O16   O     O_R   0.727920 0.305730 0.428950 -0.516923
O17   O     O_R   0.738670 0.496020 0.588600 -0.524505
O18   O     O_R   0.467190 0.722540 0.578350 -0.508748
O19   O     O_R   0.254720 0.742640 0.577370 -0.509999
O20   O     O_3   0.774813 0.074793 0.981341 -0.556788
O21   O     O_3   0.003245 0.818955 0.675897 -0.567644
O22   O     O_R   0.491630 0.259030 0.574940 -0.527436
O23   O     O_R   0.718640 0.304340 0.577850 -0.520768
O24   O     O_3   0.500010 0.500010 0.500020 -0.248373
O25   O     O_R   0.186620 0.923750 0.087000 -0.529061
O26   O     O_R   0.957350 0.194160 0.084660 -0.490946
O27   O     O_R   0.935120 0.407280 0.085350 -0.528382
O28   O     O_R   0.203800 0.365060 0.067090 -0.510994

loop_
_geom_bond_atom_site_label_1
_geom_bond_atom_site_label_2
_ccdc_geom_bond_type
C66   C68   A    
C21   C26   S    
C69   H36   S    
C23   C45   A    
C22   C29   A    
C40   O12   A    
C59   O27   A    
C73   C74   A    
C71   H42   S    
C5    C67   A    
C8    C56   A    
Cr5   O28   S    
Cr1   O4    S    
C61   O3    A    
C7    C8    A    
C39   C41   A    
Cr5   O11   S    
C53   C54   A    
C12   C68   A    
C26   C27   S    
C14   H45   S    
C49   C65   S    
C13   C18   S    
Cr6   O2    S    
C69   O20   S    
C7    H34   S    
C21   C22   A    
C36   C37   S    
C24   H3    S    
C60   O28   A    
C10   C15   A    
C26   H5    S    
C30   C31   A    
Cr4   O25   S    
C20   C25   A    
C53   H24   S    
C49   C54   A    
C73   H33   S    
C40   O22   A    
C16   O16   A    
C41   C42   A    
C62   O6    A    
C20   C61   S    
C16   O1    A    
C24   C29   A    
Cr3   O23   S    
C65   O10   A    
C44   H18   S    
C36   H13   S    
C57   H29   S    
C70   H40   S    
C25   H4    S    
C41   C46   S    
C51   C57   S    
C34   H1    S    
C32   C38   A    
C43   C48   A    
C53   C58   A    
C42   C47   S    
C28   O19   A    
C47   H22   S    
C15   H47   S    
C12   C73   A    
C72   H44   S    
C67   H15   S    
C60   O2    A    
C27   H8    S    
C61   O25   A    
Cr3   O22   S    
Cr1   O1    S    
C50   C51   A    
C6    C7    A    
C23   C60   S    
C71   O21   S    
C28   O18   A    
C32   C37   S    
C13   C19   A    
C55   H26   S    
C17   H49   S    
C24   C25   A    
C3    C8    S    
Cr4   O11   S    
C51   C58   A    
Cr1   O17   S    
C52   O23   A    
Cr6   O10   S    
Cr6   O3    S    
C37   H16   S    
C72   H46   S    
C68   H31   S    
C64   C66   A    
C43   C44   A    
C35   H10   S    
Cr5   O27   S    
C1    O13   A    
C33   H9    S    
Cr3   O24   S    
C2    H35   S    
C31   C32   A    
C70   H39   S    
C26   H6    S    
C50   C55   S    
C1    C29   S    
C17   C18   S    
C34   C45   A    
C42   C48   A    
C6    H23   S    
C66   H30   S    
C27   H7    S    
C3    C9    A    
C65   O5    A    
Cr2   O14   S    
C36   H11   S    
Cr5   O7    S    
Cr6   O11   S    
C52   O17   A    
C22   C27   S    
C55   C57   S    
C72   H43   S    
C9    C34   A    
C63   O8    A    
C18   H50   S    
C1    O4    A    
C56   C67   A    
Cr3   O15   S    
C64   H27   S    
Cr4   O5    S    
C39   C62   S    
C46   H20   S    
C46   C47   S    
C11   C17   S    
C54   H25   S    
C31   C36   S    
C63   O9    A    
C14   C19   A    
C71   H41   S    
C43   H17   S    
C12   C45   S    
C4    O14   A    
C59   O26   A    
C17   H48   S    
C39   C44   A    
C28   C58   S    
Cr1   O18   S    
Cr2   O24   S    
Cr6   O9    S    
C30   C35   A    
C33   C38   A    
C55   H28   S    
C46   H19   S    
C2    C3    A    
C71   C72   S    
C38   C40   S    
C11   C13   A    
Cr1   O24   S    
Cr4   O26   S    
C5    C6    A    
Cr2   O19   S    
C70   H38   S    
C16   C19   S    
C4    O15   A    
C57   O21   S    
C69   H37   S    
C33   C35   A    
C37   H14   S    
C10   C59   S    
C47   H21   S    
C62   O7    A    
C69   C70   S    
C5    H12   S    
C10   C11   A    
Cr2   O13   S    
C48   C52   S    
Cr5   O8    S    
C20   C21   A    
C18   H2    S    
C49   C50   A    
C2    C23   A    
C64   C74   A    
C14   C15   A    
C74   O20   S    
C4    C9    S    
C30   C63   S    
Cr4   O6    S    
Cr3   O16   S    
C56   H32   S    
Cr2   O12   S    
