data_mof_unit_57161.cif
_audit_creation_date              2013-03-05T16:12:09-0500
_audit_creation_method            fapswitch 2.2
_symmetry_space_group_name_H-M    P1
_symmetry_Int_Tables_number       1
_space_group_crystal_system       triclinic
_cell_length_a                    10.945541
_cell_length_b                    9.601996
_cell_length_c                    27.663086
_cell_angle_alpha                 90.658635
_cell_angle_beta                  95.455921
_cell_angle_gamma                 89.821313
_cell_volume                      2893.99518842

loop_
_atom_site_label
_atom_site_type_symbol
_atom_site_description
_atom_site_fract_x
_atom_site_fract_y
_atom_site_fract_z
_atom_type_partial_charge
O1    O     O_R   0.317570 0.620260 0.500030 -0.603511
O2    O     O_R   0.317570 0.379740 0.500030 -0.621530
C1    C     C_R   0.258660 0.499790 0.500799 0.707064
O3    O     O_R   0.499900 0.620250 0.430280 -0.601072
O4    O     O_R   0.499900 0.379750 0.430280 -0.587953
C2    C     C_R   0.509089 0.499377 0.408206 0.797293
Cu1   Cu    Cu3+1 0.499860 0.642410 0.500020 0.887625
Cu2   Cu    Cu3+1 0.499860 0.357590 0.500020 0.883871
O5    O     O_R   0.682190 0.620260 0.500010 -0.595009
O6    O     O_R   0.682190 0.379740 0.500010 -0.601103
O7    O     O_R   0.499860 0.620280 0.569750 -0.579192
O8    O     O_R   0.499860 0.379720 0.569750 -0.590188
C3    C     C_R   0.738752 0.499582 0.502065 0.775697
C4    C     C_R   0.500657 0.500765 0.592435 0.799482
C5    C     C_R   0.471383 0.428703 0.178490 0.533694
O9    O     O_2   0.378969 0.371784 0.200526 -0.540244
N1    N     N_R   0.570752 0.483793 0.205821 -0.469398
C6    C     C_R   0.667163 0.539687 0.184695 0.532766
C7    C     C_R   0.531978 0.614501 0.279234 -0.115852
C8    C     C_R   0.515999 0.618101 0.328594 -0.231639
C9    C     C_R   0.581355 0.377693 0.335494 -0.246171
C10   C     C_R   0.596427 0.373467 0.285933 -0.100584
C11   C     C_R   0.569083 0.491164 0.257507 0.370366
C12   C     C_R   0.560238 0.495166 0.105134 -0.047489
C13   C     C_R   0.463972 0.433777 0.127638 -0.017665
C14   C     C_R   0.363194 0.378385 0.098892 -0.144574
C15   C     C_R   0.664382 0.545009 0.133854 -0.021670
C16   C     C_R   0.534411 0.497941 0.356709 -0.038509
H1    H     H_    0.604395 0.286303 0.357041 0.155263
H2    H     H_    0.627171 0.278345 0.269481 0.135553
H3    H     H_    0.290805 0.324256 0.115063 0.185853
C17   C     C_R   0.503006 0.503045 0.645768 -0.038374
C18   C     C_R   0.428402 0.496334 0.975330 -0.011003
C19   C     C_R   0.649682 0.549984 0.979665 0.056290
C20   C     C_R   0.536051 0.522004 0.951984 0.043791
C21   C     C_R   0.312543 0.499467 0.946775 0.135526
C22   C     C_R   0.309830 0.486906 0.896143 -0.148260
C23   C     C_R   0.417370 0.496387 0.872836 -0.065167
C24   C     C_R   0.530025 0.519766 0.900588 -0.049811
C25   C     C_R   0.636864 0.539535 0.876879 -0.008471
C26   C     C_R   0.629133 0.533859 0.825932 0.531725
N2    N     N_R   0.518760 0.509861 0.799613 -0.466440
C27   C     C_R   0.413794 0.491257 0.821935 0.541734
C28   C     C_R   0.529862 0.630430 0.722386 -0.113016
C29   C     C_R   0.525078 0.628416 0.671852 -0.235689
C30   C     C_R   0.484684 0.380057 0.671188 -0.231230
C31   C     C_R   0.489239 0.382444 0.721779 -0.102624
C32   C     C_R   0.512491 0.507474 0.747554 0.359871
O10   O     O_2   0.306058 0.469888 0.794914 -0.544563
C33   C     C_R   0.442224 0.468107 0.025836 0.037886
C34   C     C_R   0.552145 0.506728 0.053893 0.079636
C35   C     C_R   0.654211 0.555229 0.031121 0.040585
C36   C     C_R   0.353674 0.393121 0.048695 -0.237182
H4    H     H_    0.539459 0.724845 0.653295 0.150505
H5    H     H_    0.547232 0.727570 0.742077 0.139665
H6    H     H_    0.222040 0.477957 0.874717 0.193841
H7    H     H_    0.276907 0.343491 0.027878 0.149637
O11   O     O_2   0.764729 0.590662 0.212784 -0.541603
C37   C     C_R   0.761983 0.600856 0.111242 -0.144215
H8    H     H_    0.512531 0.706552 0.257559 0.135169
H9    H     H_    0.842663 0.641238 0.132481 0.186520
C38   C     C_R   0.755278 0.569267 0.954848 -0.210883
C39   C     C_R   0.748842 0.563807 0.904410 -0.149304
O12   O     O_2   0.731146 0.551348 0.802858 -0.541267
C40   C     C_R   0.757799 0.604533 0.060779 -0.212244
H10   H     H_    0.845289 0.583839 0.973614 0.138527
H11   H     H_    0.466875 0.282112 0.652060 0.145262
H12   H     H_    0.832557 0.578048 0.887079 0.184325
H13   H     H_    0.475557 0.287023 0.741021 0.138258
H14   H     H_    0.835672 0.650502 0.045929 0.140240
C41   C     C_3   0.072399 0.612402 0.542442 0.323507
C42   C     C_3   0.064757 0.339830 0.511846 0.331376
C43   C     C_3   0.932947 0.586453 0.547274 -0.375558
C44   C     C_3   0.923058 0.348728 0.514183 -0.358299
H15   H     H_    0.918375 0.531509 0.581372 0.116942
H16   H     H_    0.895398 0.316695 0.550142 0.147385
H17   H     H_    0.881034 0.683594 0.552702 0.174796
H18   H     H_    0.871457 0.274805 0.489725 0.192447
H19   H     H_    0.091025 0.641189 0.441281 0.182064
H20   H     H_    0.077949 0.472344 0.422672 0.162565
H21   H     H_    0.874027 0.645809 0.443204 0.181591
H22   H     H_    0.870283 0.472940 0.425069 0.146833
C45   C     C_3   0.054509 0.541316 0.452688 -0.398926
C46   C     C_3   0.117223 0.497853 0.503146 -0.028129
C47   C     C_3   0.874957 0.497106 0.503964 0.036862
C48   C     C_3   0.913263 0.543380 0.453796 -0.320423
C49   C     C_3   0.623175 0.082821 0.517397 -0.245280
C50   C     C_3   0.625001 0.916987 0.513550 -0.254730
H23   H     H_    0.651647 0.116325 0.555445 0.157141
H24   H     H_    0.666667 0.873211 0.548388 0.159235
H25   H     H_    0.693757 0.123720 0.495043 0.143832
H26   H     H_    0.686179 0.885515 0.485502 0.137401
H27   H     H_    0.432125 0.130311 0.570761 0.158186
H28   H     H_    0.463215 0.892418 0.574811 0.146238
C51   C     C_3   0.414758 0.084021 0.533793 -0.219607
C52   C     C_3   0.424619 0.920228 0.537475 -0.208256
C53   C     C_3   0.466867 0.080292 0.450629 0.135033
C54   C     C_3   0.456240 0.913279 0.451585 0.132252
N3    N     N_3   0.500250 0.143650 0.501060 -0.151829
N4    N     N_3   0.500250 0.856350 0.501060 -0.152898
H29   H     H_    0.545570 0.103261 0.429190 0.115322
H30   H     H_    0.520461 0.874213 0.425608 0.124786
H31   H     H_    0.320408 0.112808 0.520559 0.143259
H32   H     H_    0.333010 0.876809 0.533614 0.130592
C55   C     C_3   0.082552 0.770784 0.526568 -0.309535
C56   C     C_3   0.987832 0.844831 0.490513 -0.946138
H33   H     H_    0.005225 0.831825 0.452046 0.252676
H34   H     H_    0.891291 0.822656 0.495446 0.254531
H35   H     H_    0.997290 0.957761 0.496911 0.247640
H36   H     H_    0.078395 0.836742 0.559104 0.219112
H37   H     H_    0.170012 0.786255 0.512516 0.203838
C57   C     C_3   0.093884 0.234824 0.469162 -0.319384
C58   C     C_3   0.995599 0.184778 0.429057 -0.933137
H38   H     H_    0.926754 0.115119 0.442860 0.245148
H39   H     H_    0.949136 0.272177 0.409370 0.260292
H40   H     H_    0.041062 0.122450 0.401766 0.245701
H41   H     H_    0.159478 0.284790 0.448114 0.187974
H42   H     H_    0.138354 0.139348 0.483551 0.203102
C59   C     C_3   0.149763 0.592431 0.594253 -0.439238
C60   C     C_3   0.205561 0.718546 0.622877 -0.851683
H43   H     H_    0.268516 0.776497 0.601484 0.244163
H44   H     H_    0.132774 0.787858 0.635044 0.248779
H45   H     H_    0.260237 0.681630 0.656180 0.266059
H46   H     H_    0.094136 0.542590 0.620609 0.206611
H47   H     H_    0.228676 0.522120 0.590737 0.190929
C61   C     C_3   0.121312 0.279764 0.562145 -0.434352
C62   C     C_3   0.088798 0.129333 0.573684 -0.905864
H48   H     H_    0.991217 0.105393 0.562393 0.260321
H49   H     H_    0.149637 0.055213 0.556778 0.233799
H50   H     H_    0.104769 0.112830 0.613479 0.253198
H51   H     H_    0.222386 0.289098 0.566999 0.216456
H52   H     H_    0.085378 0.339306 0.591802 0.199921
C63   C     C_3   0.354149 0.149413 0.421082 -0.347585
C64   C     C_3   0.363898 0.168547 0.366327 -0.828794
H53   H     H_    0.445696 0.116240 0.353649 0.235807
H54   H     H_    0.280531 0.129074 0.344699 0.249582
H55   H     H_    0.366021 0.280472 0.357435 0.257562
H56   H     H_    0.267300 0.098487 0.425996 0.184922
H57   H     H_    0.338461 0.250852 0.435173 0.259515
C65   C     C_3   0.327461 0.852092 0.431501 -0.354661
C66   C     C_3   0.292471 0.858751 0.376431 -0.902999
H58   H     H_    0.209378 0.924068 0.368606 0.257733
H59   H     H_    0.368780 0.897050 0.356872 0.262107
H60   H     H_    0.267608 0.753822 0.361067 0.241062
H61   H     H_    0.325942 0.742010 0.436661 0.276643
H62   H     H_    0.252523 0.893451 0.451743 0.168896
C67   C     C_3   0.192060 0.534689 0.967704 -0.432240
C68   C     C_3   0.129132 0.662729 0.943914 -0.816288
H63   H     H_    0.194618 0.751061 0.944533 0.264450
H64   H     H_    0.092611 0.639722 0.905874 0.252282
H65   H     H_    0.050754 0.694577 0.964273 0.232296
H66   H     H_    0.128958 0.444118 0.962876 0.201803
H67   H     H_    0.206493 0.561750 0.006828 0.224170
H68   H     H_    0.488000 0.714202 0.344578 0.158286

loop_
_geom_bond_atom_site_label_1
_geom_bond_atom_site_label_2
_geom_bond_distance
_ccdc_geom_bond_type
H19   C45   1.101046 S    
C55   H36   1.098964 S    
C42   C57   1.598335 S    
C61   C62   1.533099 S    
C49   H25   1.109872 S    
C26   N2    1.368682 A    
C20   C24   1.416930 A    
C51   C52   1.579893 S    
C68   H65   1.110388 S    
C53   C63   1.564078 S    
C49   C50   1.594851 S    
C64   H55   1.106058 S    
C53   C54   1.608932 S    
Cu1   Cu2   2.734840 S    
C59   H46   1.107057 S    
C60   H43   1.105531 S    
Cu1   O7    1.943042 S    
N1    C11   1.432570 S    
C25   C39   1.398856 A    
C44   H16   1.113851 S    
C21   C22   1.401943 A    
Cu2   N3    2.054769 S    
C68   H64   1.109586 S    
C58   H38   1.106678 S    
C66   H59   1.103656 S    
C47   C48   1.557331 S    
C57   H41   1.082937 S    
O7    C4    1.313882 A    
C51   N3    1.483165 S    
C5    C13   1.402719 A    
C56   H33   1.104305 S    
C40   H14   1.078527 S    
C19   C38   1.413032 A    
C18   C21   1.429286 A    
Cu1   O5    2.006368 S    
C19   C20   1.421870 A    
C17   C29   1.406015 A    
O5    C3    1.311321 A    
C31   H13   1.082812 S    
C67   C68   1.531710 S    
C39   H12   1.083518 S    
C22   H6    1.083093 S    
C6    O11   1.349259 S    
C2    C16   1.476808 S    
C50   H26   1.110797 S    
C51   H31   1.097985 S    
C12   C15   1.407874 A    
H21   C48   1.103482 S    
C60   H45   1.110797 S    
C58   H40   1.111264 S    
C12   C34   1.417443 A    
C55   H37   1.078217 S    
C63   H56   1.090991 S    
H27   C51   1.110241 S    
C9    C10   1.396502 A    
C43   H15   1.110881 S    
O3    Cu1   1.938531 S    
C57   C58   1.543737 S    
C53   N3    1.528014 S    
C60   H44   1.110616 S    
N1    C6    1.367912 A    
C49   N3    1.497085 S    
C23   C24   1.406420 A    
C37   H9    1.083326 S    
C33   C36   1.410337 A    
Cu1   N4    2.054134 S    
C38   H10   1.077802 S    
C34   C35   1.416185 A    
C31   C32   1.400776 A    
C12   C13   1.407948 A    
C42   C44   1.560489 S    
C66   H60   1.113411 S    
C65   H62   1.106462 S    
C24   C25   1.408482 A    
C41   C43   1.565797 S    
C36   H7    1.081165 S    
C27   O10   1.349731 S    
C64   H54   1.107873 S    
C8    C16   1.402170 A    
C18   C33   1.420078 A    
H22   C48   1.108516 S    
C9    H1    1.082123 S    
C42   C46   1.652308 S    
C54   C65   1.577796 S    
O1    C1    1.327446 A    
C7    C11   1.398490 A    
C62   H49   1.103307 S    
C22   C23   1.398524 A    
C21   C67   1.525300 S    
C45   C46   1.556612 S    
C61   H52   1.097194 S    
Cu2   O8    1.938186 S    
C38   C39   1.390717 A    
C33   C34   1.416368 A    
N2    C32   1.435123 S    
C65   C66   1.537085 S    
H28   C52   1.113177 S    
C43   C47   1.552249 S    
C50   N4    1.494493 S    
C8    H68   1.074950 S    
C59   H47   1.105509 S    
O3    C2    1.313278 A    
C25   C26   1.404249 A    
C9    C16   1.406996 A    
C50   H24   1.112652 S    
C29   H4    1.082959 S    
C63   H57   1.064468 S    
C54   N4    1.514660 S    
C41   C55   1.594882 S    
C63   C64   1.541645 S    
C23   C27   1.405187 A    
N2    C27   1.368192 A    
C62   H48   1.107985 S    
C14   C36   1.391417 A    
C28   C29   1.393847 A    
H20   C45   1.104847 S    
C41   C46   1.644006 S    
C5    N1    1.368379 A    
C30   C31   1.395567 A    
C10   H2    1.082709 S    
O1    Cu1   2.007253 S    
C17   C30   1.405953 A    
O2    Cu2   2.005934 S    
C6    C15   1.405342 A    
C4    C17   1.473034 S    
O6    C3    1.306498 A    
C65   H61   1.068614 S    
O4    Cu2   1.943393 S    
C59   C60   1.535254 S    
C64   H53   1.108919 S    
C7    H8    1.082944 S    
C55   C56   1.546044 S    
C19   C35   1.419881 A    
C41   C59   1.607028 S    
C7    C8    1.393047 A    
C52   H32   1.082530 S    
O2    C1    1.320002 A    
C13   C14   1.399695 A    
C62   H50   1.111196 S    
C30   H11   1.082849 S    
C28   C32   1.400086 A    
C54   H30   1.113293 S    
C66   H58   1.108834 S    
C37   C40   1.393199 A    
C57   H42   1.097526 S    
C28   H5    1.082854 S    
O4    C2    1.315654 A    
C56   H34   1.100027 S    
C61   H51   1.105472 S    
C52   N4    1.489121 S    
C18   C20   1.419988 A    
C67   H66   1.111196 S    
C68   H63   1.111106 S    
C44   C47   1.537277 S    
C67   H67   1.106853 S    
C42   C61   1.582492 S    
O8    C4    1.314156 A    
C14   H3    1.083211 S    
C45   C48   1.549284 S    
Cu2   O6    2.007687 S    
C44   H18   1.095168 S    
C3    C47   1.486882 S    
C1    C46   1.555800 S    
C49   H23   1.113032 S    
C43   H17   1.106851 S    
C10   C11   1.399538 A    
C15   C37   1.399453 A    
C26   O12   1.349658 S    
C53   H29   1.115253 S    
C35   C40   1.414331 A    
C5    O9    1.349757 S    
C58   H39   1.102120 S    
C56   H35   1.100303 S    
