data_mof_unit_55636.cif
_audit_creation_date              2012-12-10T17:10:23-0500
_audit_creation_method            fapswitch 2.2
_symmetry_space_group_name_H-M    P1
_symmetry_Int_Tables_number       1
_space_group_crystal_system       triclinic
_cell_length_a                    10.822155
_cell_length_b                    13.041538
_cell_length_c                    11.624035
_cell_angle_alpha                 99.313089
_cell_angle_beta                  93.995962
_cell_angle_gamma                 90.142629
_cell_volume                      1614.86912402

loop_
_atom_site_label
_atom_site_type_symbol
_atom_type_description
_atom_site_fract_x
_atom_site_fract_y
_atom_site_fract_z
_atom_type_partial_charge
C1    C     C_R   0.496648 0.299433 0.479514 0.808847
C2    C     C_R   0.503346 0.700569 0.520491 0.809358
C3    C     C_R   0.498755 0.813004 0.530438 -0.083914
C4    C     C_R   0.501274 0.187007 0.469592 -0.082295
C5    C     C_R   0.578150 0.025604 0.369753 -0.180406
C6    C     C_R   0.421951 0.974420 0.630321 -0.183168
C7    C     C_R   0.562438 0.131679 0.377580 -0.262024
C8    C     C_R   0.437636 0.868339 0.622473 -0.257921
C9    C     C_R   0.450994 0.134882 0.553521 0.089564
C10   C     C_R   0.549071 0.865137 0.446538 0.083662
C11   C     C_R   0.467662 0.027542 0.546145 0.129485
C12   C     C_R   0.532418 0.972480 0.453922 0.128878
C13   C     C_R   0.368889 0.414841 0.023730 0.035429
C14   C     C_R   0.630455 0.586028 0.976280 0.039890
C15   C     C_R   0.383961 0.421902 0.146277 0.029708
C16   C     C_R   0.615316 0.578904 0.853741 0.032089
C17   C     C_R   0.557918 0.534369 0.156268 0.002984
C18   C     C_R   0.442002 0.465792 0.843760 -0.000631
C19   C     C_R   0.548034 0.530374 0.033512 0.008452
C20   C     C_R   0.452106 0.469633 0.966466 0.009037
C21   C     C_R   0.262270 0.512615 0.501378 0.811025
C22   C     C_R   0.737289 0.486163 0.498568 0.810740
C23   C     C_R   0.128660 0.563714 0.719594 -0.136778
C24   C     C_R   0.870669 0.428839 0.281285 -0.128606
C25   C     C_R   0.078954 0.546470 0.822314 -0.130850
C26   C     C_R   0.921166 0.442953 0.177883 -0.175079
C27   C     C_R   0.968407 0.491084 0.816698 -0.155347
C28   C     C_R   0.031069 0.499049 0.182325 -0.169775
C29   C     C_R   0.902646 0.460612 0.709159 -0.135956
C30   C     C_R   0.095953 0.532709 0.289661 -0.128002
C31   C     C_R   0.946662 0.485603 0.604839 0.080846
C32   C     C_R   0.052383 0.509285 0.394883 0.080841
C33   C     C_R   0.068567 0.524708 0.608719 0.076780
C34   C     C_R   0.930663 0.469963 0.391449 0.080527
C35   C     C_R   0.873058 0.471911 0.497458 -0.237996
C36   C     C_R   0.126032 0.524348 0.502528 -0.237116
Cu1   Cu    Cu3+1 0.509250 0.507730 0.615930 0.922982
Cu2   Cu    Cu3+1 0.490750 0.492270 0.384070 0.923057
H1    H     H_    0.067372 0.514948 0.102484 0.138866
H2    H     H_    0.932132 0.473534 0.895870 0.126279
H3    H     H_    0.212613 0.610228 0.728496 0.152801
H4    H     H_    0.786177 0.383090 0.273829 0.150655
H5    H     H_    0.127548 0.574502 0.906139 0.138297
H6    H     H_    0.873207 0.412646 0.094398 0.129662
H7    H     H_    0.818896 0.415110 0.708533 0.155367
H8    H     H_    0.178661 0.579198 0.289156 0.156589
H9    H     H_    0.398797 0.828842 0.687109 0.164075
H10   H     H_    0.601295 0.171179 0.312951 0.163336
H11   H     H_    0.627137 0.985855 0.297779 0.183616
H12   H     H_    0.372998 0.014175 0.702312 0.178593
H13   H     H_    0.369690 0.419726 0.790229 0.164198
H14   H     H_    0.629830 0.580865 0.209866 0.163160
H15   H     H_    0.677960 0.620713 0.808743 0.139759
H16   H     H_    0.320901 0.380451 0.191231 0.140674
N1    N     N_R   0.523180 0.519350 0.790130 -0.204692
N2    N     N_R   0.476820 0.480650 0.209870 -0.204433
O1    O     O_R   0.506570 0.354460 0.582000 -0.594414
O2    O     O_R   0.493430 0.645540 0.418000 -0.592944
O3    O     O_R   0.490940 0.341410 0.386200 -0.586078
O4    O     O_R   0.509060 0.658590 0.613800 -0.584175
O5    O     O_R   0.327470 0.506520 0.597900 -0.590006
O6    O     O_R   0.672530 0.493480 0.402100 -0.591535
O7    O     O_R   0.311840 0.493460 0.402100 -0.588741
O8    O     O_R   0.688160 0.506540 0.597900 -0.588937
N3    N     N_3   0.269279 0.353536 0.958162 -0.611407
H17   H     H_    0.210253 0.326544 0.014512 0.216550
H18   H     H_    0.308286 0.287936 0.911023 0.221168
N4    N     N_3   0.727925 0.649824 0.042001 -0.604005
H19   H     H_    0.773485 0.691544 0.987551 0.216605
H20   H     H_    0.793434 0.600170 0.072668 0.218104
N5    N     N_3   0.619351 0.811187 0.355440 -0.605126
H21   H     H_    0.686102 0.765585 0.391652 0.227297
H22   H     H_    0.559520 0.764264 0.294407 0.249058
N6    N     N_3   0.380760 0.188839 0.644655 -0.621605
H23   H     H_    0.313955 0.234414 0.608474 0.228392
H24   H     H_    0.440610 0.235789 0.705643 0.236675

loop_
_geom_bond_atom_site_label_1
_geom_bond_atom_site_label_2
_ccdc_geom_bond_type
C27   C29   A    
C24   H4    S    
C19   C20   A    
C25   H5    S    
C26   H6    S    
C21   C36   S    
C13   N3    S    
C22   C35   S    
N6    H24   S    
C32   C36   A    
C24   C26   A    
C1    O3    A    
C2    O4    A    
C33   C36   A    
C34   C35   A    
C16   H15   S    
Cu2   O2    S    
N4    H19   S    
N3    H18   S    
C31   C33   A    
C21   O5    A    
C10   N5    S    
C5    H11   S    
C4    C7    A    
C17   H14   S    
C18   H13   S    
C21   O7    A    
N6    H23   S    
C15   H16   S    
C5    C12   A    
C3    C8    A    
C6    C11   A    
C5    C7    A    
C6    C8    A    
C28   H1    S    
C23   C33   A    
C24   C34   A    
C29   H7    S    
C32   C34   A    
Cu1   Cu2   S    
C1    O1    A    
C22   O6    A    
C27   H2    S    
C6    H12   S    
C9    C11   A    
C17   N2    A    
C10   C12   A    
C18   N1    A    
C13   C15   A    
C14   C16   A    
C9    N6    S    
Cu1   O8    S    
N5    H22   S    
Cu2   O7    S    
C13   C20   A    
C14   C19   A    
C30   H8    S    
Cu1   O5    S    
C11   C12   A    
C2    O2    A    
C25   C27   A    
C26   C28   A    
C23   H3    S    
C1    C4    S    
C15   N2    A    
C28   C30   A    
C2    C3    S    
C16   N1    A    
N5    H21   S    
C29   C31   A    
C3    C10   A    
C7    H10   S    
C30   C32   A    
C31   C35   A    
C17   C19   A    
C18   C20   A    
C23   C25   A    
C8    H9    S    
Cu1   O4    S    
C22   O8    A    
Cu2   O3    S    
Cu1   N1    S    
Cu2   N2    S    
N4    H20   S    
N3    H17   S    
C14   N4    S    
C4    C9    A    
Cu1   O1    S    
Cu2   O6    S    
