data_mof_unit_38810.cif
_audit_creation_date              2012-12-10T18:13:21-0500
_audit_creation_method            fapswitch 2.2
_symmetry_space_group_name_H-M    P1
_symmetry_Int_Tables_number       1
_space_group_crystal_system       triclinic
_cell_length_a                    32.249881
_cell_length_b                    32.249882
_cell_length_c                    21.812682
_cell_angle_alpha                 90.0
_cell_angle_beta                  89.999947
_cell_angle_gamma                 89.999978
_cell_volume                      22686.3858531

loop_
_atom_site_label
_atom_site_type_symbol
_atom_type_description
_atom_site_fract_x
_atom_site_fract_y
_atom_site_fract_z
_atom_type_partial_charge
C1    C     C_R   0.420442 1.000000 0.500000 0.812472
C2    C     C_R   1.000000 0.293582 0.500000 -0.173808
C3    C     C_R   0.971744 0.474245 0.217875 0.015899
C4    C     C_R   0.474245 0.971744 0.782125 0.015899
C5    C     C_R   0.971744 0.525755 0.782125 0.015899
C6    C     C_R   0.525755 0.028256 0.782125 0.015899
C7    C     C_R   0.028256 0.474245 0.782125 0.015899
C8    C     C_R   0.025755 0.471744 0.717875 0.015899
C9    C     C_R   0.528256 0.025755 0.717875 0.015899
C10   C     C_R   0.974245 0.528256 0.717875 0.015899
C11   C     C_R   0.471744 0.974245 0.717875 0.015899
C12   C     C_R   0.974245 0.471744 0.282125 0.015899
C13   C     C_R   0.706418 1.000000 0.500000 -0.173802
C14   C     C_R   0.471744 0.025754 0.282125 0.015898
C15   C     C_R   0.025755 0.528256 0.282125 0.015899
C16   C     C_R   0.528256 0.974245 0.282125 0.015899
C17   C     C_R   0.500000 1.000000 0.185786 -0.100543
C18   C     C_R   0.000000 0.500000 0.185786 -0.100542
C19   C     C_R   0.500000 1.000000 0.814213 -0.100543
C20   C     C_R   1.000000 0.500000 0.814213 -0.100542
C21   C     C_R   1.000000 0.500000 0.685786 -0.100543
C22   C     C_R   0.500000 1.000000 0.685786 -0.100543
C23   C     C_R   0.000000 0.500000 0.314213 -0.100542
C24   C     C_R   1.000000 0.706418 0.500000 -0.173806
C25   C     C_R   0.500000 1.000000 0.314213 -0.100542
C26   C     C_R   0.228103 0.962176 0.500520 0.061797
C27   C     C_R   0.037824 0.228103 0.500526 0.061788
C28   C     C_R   0.771897 0.037824 0.500525 0.061784
C29   C     C_R   0.962175 0.771897 0.500528 0.061787
C30   C     C_R   0.771897 0.962176 0.499475 0.061784
C31   C     C_R   0.962175 0.228103 0.499474 0.061787
C32   C     C_R   0.228103 0.037824 0.499480 0.061783
C33   C     C_R   0.037824 0.771897 0.499472 0.061786
C34   C     C_R   0.728103 0.462175 0.000528 0.061785
C35   C     C_R   0.793582 0.500000 1.000000 -0.173805
C36   C     C_R   0.537824 0.728103 0.000527 0.061789
C37   C     C_R   0.271897 0.537824 0.000528 0.061786
C38   C     C_R   0.462175 0.271897 0.000527 0.061789
C39   C     C_R   0.271897 0.462176 0.999473 0.061786
C40   C     C_R   0.462176 0.728103 0.999473 0.061787
C41   C     C_R   0.728103 0.537824 0.999472 0.061786
C42   C     C_R   0.537824 0.271897 0.999473 0.061789
C43   C     C_R   0.206143 0.000000 0.500000 -0.090822
C44   C     C_R   1.000000 0.206143 0.500000 -0.090821
C45   C     C_R   0.793857 1.000000 0.500000 -0.090817
C46   C     C_R   0.500000 0.793582 0.000000 -0.173807
C47   C     C_R   1.000000 0.793857 0.500000 -0.090819
C48   C     C_R   0.706143 0.500000 1.000000 -0.090819
C49   C     C_R   0.500000 0.706143 0.000000 -0.090820
C50   C     C_R   0.293857 0.500000 0.000000 -0.090818
C51   C     C_R   0.500000 0.293857 1.000000 -0.090821
C52   C     C_R   0.271681 0.037779 0.500587 0.408551
C53   C     C_R   0.962221 0.271681 0.500580 0.408551
C54   C     C_R   0.728319 0.962221 0.500582 0.408548
C55   C     C_R   0.037779 0.728319 0.500579 0.408551
C56   C     C_R   0.728319 0.037779 0.499418 0.408548
C57   C     C_R   0.206418 0.500000 0.000000 -0.173806
C58   C     C_R   0.037779 0.271681 0.499420 0.408552
C59   C     C_R   0.271681 0.962221 0.499413 0.408553
C60   C     C_R   0.962221 0.728319 0.499421 0.408550
C61   C     C_R   0.771681 0.537779 0.000579 0.408550
C62   C     C_R   0.462221 0.771681 0.000580 0.408551
C63   C     C_R   0.228319 0.462221 0.000579 0.408550
C64   C     C_R   0.537779 0.228319 0.000579 0.408551
C65   C     C_R   0.228319 0.537779 0.999421 0.408550
C66   C     C_R   0.537779 0.771681 0.999420 0.408550
C67   C     C_R   0.771681 0.462221 0.999421 0.408549
C68   C     C_R   0.500000 0.206418 1.000000 -0.173809
C69   C     C_R   0.462221 0.228319 0.999420 0.408552
C70   C     C_3   0.404309 0.125097 0.360982 0.049191
C71   C     C_3   0.384916 0.110895 0.421504 -0.304384
C72   C     C_3   0.406759 0.130507 0.476408 -0.895829
C73   C     C_3   0.874902 0.404309 0.360982 0.049187
C74   C     C_3   0.889104 0.384915 0.421503 -0.304378
C75   C     C_3   0.869492 0.406756 0.476408 -0.895841
C76   C     C_3   0.595691 0.874903 0.360982 0.049185
C77   C     C_3   0.615086 0.889105 0.421503 -0.304376
C78   C     C_3   0.593246 0.869494 0.476408 -0.895839
C79   C     C_1   0.161234 1.000000 0.500000 -0.018016
C80   C     C_3   0.125098 0.595690 0.360982 0.049187
C81   C     C_3   0.110897 0.615085 0.421503 -0.304378
C82   C     C_3   0.130509 0.593244 0.476408 -0.895845
C83   C     C_3   0.595691 0.125097 0.639018 0.049187
C84   C     C_3   0.615086 0.110896 0.578497 -0.304379
C85   C     C_3   0.593244 0.130507 0.523591 -0.895838
C86   C     C_3   0.125098 0.404309 0.639018 0.049187
C87   C     C_3   0.110897 0.384914 0.578497 -0.304378
C88   C     C_3   0.130508 0.406755 0.523592 -0.895843
C89   C     C_3   0.404308 0.874903 0.639018 0.049189
C90   C     C_1   1.000000 0.161234 0.500000 -0.018015
C91   C     C_3   0.384914 0.889104 0.578497 -0.304382
C92   C     C_3   0.406755 0.869492 0.523592 -0.895831
C93   C     C_3   0.874902 0.595690 0.639018 0.049187
C94   C     C_3   0.889103 0.615085 0.578497 -0.304378
C95   C     C_3   0.869492 0.593244 0.523592 -0.895845
C96   C     C_3   0.904310 0.625098 0.860982 0.049185
C97   C     C_3   0.884915 0.610897 0.921503 -0.304377
C98   C     C_3   0.906755 0.630508 0.976408 -0.895845
C99   C     C_3   0.374901 0.904310 0.860982 0.049186
C100  C     C_3   0.389103 0.884915 0.921503 -0.304377
C101  C     C_1   0.838766 0.000000 0.500000 -0.018015
C102  C     C_3   0.369491 0.906755 0.976408 -0.895844
C103  C     C_3   0.095690 0.374902 0.860982 0.049186
C104  C     C_3   0.115085 0.389103 0.921503 -0.304378
C105  C     C_3   0.093245 0.369491 0.976408 -0.895845
C106  C     C_3   0.625098 0.095690 0.860982 0.049187
C107  C     C_3   0.610897 0.115085 0.921503 -0.304378
C108  C     C_3   0.630509 0.093244 0.976408 -0.895845
C109  C     C_3   0.095690 0.625098 0.139018 0.049185
C110  C     C_3   0.115086 0.610896 0.078497 -0.304376
C111  C     C_3   0.093245 0.630508 0.023592 -0.895844
C112  C     C_R   0.000000 0.420442 0.500000 0.812473
C113  C     C_1   1.000000 0.838766 0.500000 -0.018014
C114  C     C_3   0.625098 0.904310 0.139018 0.049186
C115  C     C_3   0.610897 0.884915 0.078497 -0.304378
C116  C     C_3   0.630509 0.906755 0.023591 -0.895845
C117  C     C_3   0.904310 0.374902 0.139018 0.049186
C118  C     C_3   0.884915 0.389104 0.078497 -0.304378
C119  C     C_3   0.906755 0.369493 0.023591 -0.895842
C120  C     C_3   0.374901 0.095689 0.139018 0.049186
C121  C     C_3   0.389102 0.115085 0.078498 -0.304378
C122  C     C_3   0.369491 0.093244 0.023592 -0.895843
C123  C     C_3   0.301861 0.912457 0.439900 0.080182
C124  C     C_1   0.661234 0.500000 1.000000 -0.018014
C125  C     C_3   0.302420 0.865110 0.436836 -0.319606
C126  C     C_3   0.317042 0.849851 0.374248 -0.934088
C127  C     C_3   0.087551 0.301853 0.439913 0.080188
C128  C     C_3   0.134898 0.302413 0.436863 -0.319605
C129  C     C_3   0.150166 0.317023 0.374272 -0.934093
C130  C     C_3   0.698149 0.087551 0.439908 0.080187
C131  C     C_3   0.697586 0.134898 0.436858 -0.319605
C132  C     C_3   0.682980 0.150164 0.374265 -0.934088
C133  C     C_3   0.912447 0.698148 0.439916 0.080187
C134  C     C_3   0.865100 0.697588 0.436869 -0.319606
C135  C     C_1   0.500000 0.661234 0.000000 -0.018015
C136  C     C_3   0.849830 0.682981 0.374278 -0.934090
C137  C     C_3   0.698150 0.912449 0.560092 0.080189
C138  C     C_3   0.697588 0.865101 0.563140 -0.319608
C139  C     C_3   0.682983 0.849834 0.625733 -0.934093
C140  C     C_3   0.912449 0.301853 0.560088 0.080187
C141  C     C_3   0.865102 0.302414 0.563138 -0.319604
C142  C     C_3   0.849835 0.317024 0.625729 -0.934091
C143  C     C_3   0.301851 0.087547 0.560104 0.080186
C144  C     C_3   0.302420 0.134893 0.563160 -0.319616
C145  C     C_3   0.317028 0.150155 0.625754 -0.934100
C146  C     C_1   0.338766 0.500000 0.000000 -0.018014
C147  C     C_3   0.087553 0.698148 0.560084 0.080187
C148  C     C_3   0.134900 0.697588 0.563131 -0.319604
C149  C     C_3   0.150169 0.682980 0.625722 -0.934089
C150  C     C_3   0.801851 0.412447 0.939916 0.080190
C151  C     C_3   0.802412 0.365099 0.936869 -0.319606
C152  C     C_3   0.817019 0.349830 0.874278 -0.934084
C153  C     C_3   0.587552 0.801853 0.939914 0.080188
C154  C     C_3   0.634899 0.802413 0.936865 -0.319607
C155  C     C_3   0.650167 0.817023 0.874275 -0.934092
C156  C     C_3   0.198149 0.587553 0.939915 0.080188
C157  C     C_1   0.500000 0.338766 1.000000 -0.018015
C158  C     C_3   0.197589 0.634900 0.936868 -0.319606
C159  C     C_3   0.182982 0.650169 0.874277 -0.934092
C160  C     C_3   0.412448 0.198146 0.939915 0.080187
C161  C     C_3   0.365101 0.197587 0.936865 -0.319607
C162  C     C_3   0.349833 0.182976 0.874275 -0.934091
C163  C     C_3   0.198147 0.412448 0.060085 0.080188
C164  C     C_3   0.197588 0.365100 0.063133 -0.319605
C165  C     C_3   0.182980 0.349832 0.125724 -0.934091
C166  C     C_3   0.412448 0.801853 0.060086 0.080188
C167  C     C_3   0.365101 0.802412 0.063135 -0.319607
C168  C     C_1   0.338439 0.000000 0.500001 0.050553
C169  C     C_3   0.349832 0.817021 0.125725 -0.934092
C170  C     C_3   0.801851 0.587553 0.060084 0.080187
C171  C     C_3   0.802411 0.634901 0.063130 -0.319604
C172  C     C_3   0.817018 0.650170 0.125721 -0.934088
C173  C     C_3   0.587552 0.198146 0.060085 0.080188
C174  C     C_3   0.634899 0.197587 0.063135 -0.319605
C175  C     C_3   0.650167 0.182976 0.125724 -0.934092
C176  C     C_1   1.000000 0.338439 0.500000 0.050563
C177  C     C_1   0.661561 0.000000 0.500000 0.050569
C178  C     C_1   1.000000 0.661561 0.500000 0.050568
C179  C     C_1   0.838439 0.500000 1.000000 0.050569
C180  C     C_R   0.579558 0.000000 0.500000 0.812473
C181  C     C_1   0.500000 0.838439 0.000000 0.050564
C182  C     C_1   0.161561 0.500000 0.000000 0.050568
C183  C     C_1   0.500000 0.161561 0.000000 0.050563
C184  C     C_1   0.375876 0.000000 0.500001 -0.216352
C185  C     C_1   0.000000 0.375876 0.500000 -0.216347
C186  C     C_1   0.624124 1.000000 0.500000 -0.216345
C187  C     C_1   1.000000 0.624124 0.500000 -0.216345
C188  C     C_1   0.875876 0.500000 1.000000 -0.216344
C189  C     C_1   0.500000 0.875876 0.000000 -0.216346
C190  C     C_1   0.124124 0.500000 1.000000 -0.216345
C191  C     C_R   0.000000 0.579558 0.500000 0.812473
C192  C     C_1   0.500000 0.124124 0.000000 -0.216347
C193  C     C_1   0.123806 1.000000 0.500000 -0.179993
C194  C     C_1   1.000000 0.123806 0.500000 -0.179993
C195  C     C_1   0.876194 0.000000 0.500000 -0.179993
C196  C     C_1   1.000000 0.876194 0.500000 -0.179993
C197  C     C_1   0.623806 0.500000 1.000000 -0.179993
C198  C     C_1   0.500000 0.623806 0.000000 -0.179993
C199  C     C_1   0.376194 0.500000 0.000000 -0.179993
C200  C     C_1   0.500000 0.376194 1.000000 -0.179993
C201  C     C_R   0.000000 0.920748 0.500000 0.812931
C202  C     C_R   0.920442 0.500000 1.000000 0.812473
C203  C     C_R   0.079252 1.000000 0.500000 0.812931
C204  C     C_R   0.000000 0.079252 0.500000 0.812931
C205  C     C_R   0.920748 0.000000 0.500000 0.812931
C206  C     C_R   0.500000 0.420748 1.000000 0.812931
C207  C     C_R   0.579252 0.500000 1.000000 0.812930
C208  C     C_R   0.500000 0.579252 0.000000 0.812930
C209  C     C_R   0.420748 0.500000 0.000000 0.812931
C210  C     C_R   0.500000 1.000000 0.381118 0.806010
C211  C     C_R   0.000000 0.500000 0.381118 0.806011
C212  C     C_R   0.500000 0.000000 0.618882 0.806010
C213  C     C_R   0.500000 0.920442 0.000000 0.812473
C214  C     C_R   1.000000 0.500000 0.618882 0.806011
C215  C     C_R   0.000000 0.500000 0.881118 0.806011
C216  C     C_R   0.500000 1.000000 0.881118 0.806011
C217  C     C_R   1.000000 0.500000 0.118882 0.806011
C218  C     C_R   0.500000 0.000000 0.118882 0.806011
C219  C     C_R   0.558966 0.950678 0.312759 -0.357024
C220  C     C_R   0.049322 0.558966 0.312759 -0.357023
C221  C     C_R   0.441033 0.049322 0.312759 -0.357022
C222  C     C_R   0.950678 0.441034 0.312759 -0.357022
C223  C     C_R   0.441034 0.950678 0.687241 -0.357023
C224  C     C_R   0.079558 0.500000 1.000000 0.812473
C225  C     C_R   0.950677 0.558966 0.687241 -0.357023
C226  C     C_R   0.558966 0.049322 0.687241 -0.357023
C227  C     C_R   0.049322 0.441034 0.687241 -0.357023
C228  C     C_R   0.058966 0.450677 0.812759 -0.357022
C229  C     C_R   0.549323 0.058966 0.812759 -0.357022
C230  C     C_R   0.941034 0.549322 0.812759 -0.357023
C231  C     C_R   0.450677 0.941034 0.812759 -0.357022
C232  C     C_R   0.941034 0.450677 0.187241 -0.357023
C233  C     C_R   0.450677 0.058965 0.187241 -0.357022
C234  C     C_R   0.058966 0.549322 0.187241 -0.357023
C235  C     C_R   0.500000 0.079558 0.000000 0.812474
C236  C     C_R   0.549323 0.941034 0.187241 -0.357023
C237  C     C_R   0.583038 0.921088 0.281676 0.441157
C238  C     C_R   0.078912 0.583038 0.281676 0.441157
C239  C     C_R   0.416961 0.078911 0.281676 0.441156
C240  C     C_R   0.921088 0.416962 0.281676 0.441157
C241  C     C_R   0.416961 0.921089 0.718324 0.441156
C242  C     C_R   0.921088 0.583038 0.718324 0.441156
C243  C     C_R   0.583038 0.078911 0.718324 0.441157
C244  C     C_R   0.078912 0.416962 0.718324 0.441156
C245  C     C_R   0.083038 0.421088 0.781675 0.441158
C246  C     C_R   0.293582 0.000000 0.500000 -0.173810
C247  C     C_R   0.578912 0.083038 0.781676 0.441157
C248  C     C_R   0.916962 0.578912 0.781676 0.441157
C249  C     C_R   0.421087 0.916963 0.781676 0.441156
C250  C     C_R   0.916962 0.421088 0.218324 0.441156
C251  C     C_R   0.421087 0.083037 0.218325 0.441155
C252  C     C_R   0.083038 0.578912 0.218324 0.441156
C253  C     C_R   0.578912 0.916962 0.218324 0.441157
C254  C     C_R   0.525755 0.971744 0.217875 0.015899
C255  C     C_R   0.028256 0.525755 0.217875 0.015899
C256  C     C_R   0.474245 0.028255 0.217875 0.015899
Cu1   Cu    Cu3+1 0.500000 0.041050 0.500000 0.905097
Cu2   Cu    Cu3+1 0.000000 1.000000 0.561790 0.958574
Cu3   Cu    Cu3+1 0.500000 0.500000 0.938210 0.958574
Cu4   Cu    Cu3+1 0.500000 0.500000 0.061790 0.958574
Cu5   Cu    Cu3+1 0.958950 0.500000 0.500000 0.905097
Cu6   Cu    Cu3+1 0.500000 0.958950 0.500000 0.905097
Cu7   Cu    Cu3+1 0.041050 0.500000 0.500000 0.905098
Cu8   Cu    Cu3+1 0.000000 0.541050 0.000000 0.905097
Cu9   Cu    Cu3+1 0.458950 0.000000 0.000000 0.905097
Cu10  Cu    Cu3+1 0.000000 0.458950 0.000000 0.905097
Cu11  Cu    Cu3+1 0.541050 0.000000 0.000000 0.905097
Cu12  Cu    Cu3+1 0.000000 1.000000 0.438210 0.958574
H1    H     H_    0.565053 0.955141 0.360898 0.175548
H2    H     H_    0.544859 0.065053 0.860898 0.175548
H3    H     H_    0.664715 0.097205 0.975599 0.241499
H4    H     H_    0.103488 0.658318 0.146022 0.167248
H5    H     H_    0.061118 0.623627 0.136161 0.129716
H6    H     H_    0.148437 0.619546 0.077796 0.244201
H7    H     H_    0.113095 0.576677 0.074580 0.234822
H8    H     H_    0.059647 0.622917 0.024188 0.260360
H9    H     H_    0.106675 0.618177 0.980445 0.262029
H10   H     H_    0.097206 0.664714 0.024400 0.241498
H11   H     H_    0.658318 0.896513 0.146022 0.167247
H12   H     H_    0.623627 0.938882 0.136161 0.129715
H13   H     H_    0.934947 0.544859 0.860898 0.175548
H14   H     H_    0.619546 0.851563 0.077796 0.244200
H15   H     H_    0.576678 0.886906 0.074580 0.234822
H16   H     H_    0.622918 0.940353 0.024187 0.260360
H17   H     H_    0.618178 0.893326 0.980444 0.262029
H18   H     H_    0.664715 0.902795 0.024400 0.241499
H19   H     H_    0.896512 0.341682 0.146022 0.167247
H20   H     H_    0.938882 0.376373 0.136161 0.129716
H21   H     H_    0.851563 0.380454 0.077796 0.244201
H22   H     H_    0.886905 0.423323 0.074581 0.234822
H23   H     H_    0.940354 0.377084 0.024188 0.260361
H24   H     H_    0.455140 0.934947 0.860898 0.175548
H25   H     H_    0.893326 0.381824 0.980445 0.262029
H26   H     H_    0.902795 0.335287 0.024400 0.241497
H27   H     H_    0.341681 0.103487 0.146022 0.167247
H28   H     H_    0.376373 0.061117 0.136161 0.129715
H29   H     H_    0.380453 0.148436 0.077797 0.244200
H30   H     H_    0.423321 0.113094 0.074580 0.234822
H31   H     H_    0.377082 0.059646 0.024188 0.260359
H32   H     H_    0.381822 0.106674 0.980445 0.262029
H33   H     H_    0.335285 0.097205 0.024401 0.241498
H34   H     H_    0.332953 0.924671 0.427246 0.148965
H35   H     H_    0.934947 0.455141 0.139102 0.175549
H36   H     H_    0.278781 0.923737 0.405452 0.128695
H37   H     H_    0.323312 0.852561 0.472780 0.229267
H38   H     H_    0.270663 0.853125 0.445712 0.232741
H39   H     H_    0.296144 0.861468 0.337586 0.259670
H40   H     H_    0.316747 0.815428 0.373411 0.261442
H41   H     H_    0.349161 0.860676 0.365141 0.256328
H42   H     H_    0.075338 0.332943 0.427246 0.148957
H43   H     H_    0.076277 0.278768 0.405468 0.128702
H44   H     H_    0.147442 0.323313 0.472800 0.229261
H45   H     H_    0.146883 0.270658 0.445756 0.232748
H46   H     H_    0.455140 0.065053 0.139102 0.175548
H47   H     H_    0.138555 0.296117 0.337617 0.259673
H48   H     H_    0.184589 0.316730 0.373447 0.261442
H49   H     H_    0.139341 0.349139 0.365147 0.256329
H50   H     H_    0.667060 0.075335 0.427239 0.148954
H51   H     H_    0.721236 0.076277 0.405466 0.128706
H52   H     H_    0.676684 0.147440 0.472792 0.229259
H53   H     H_    0.729340 0.146884 0.445755 0.232748
H54   H     H_    0.703889 0.138555 0.337613 0.259672
H55   H     H_    0.683271 0.184587 0.373439 0.261440
H56   H     H_    0.650865 0.139337 0.365134 0.256329
H57   H     H_    0.065053 0.544859 0.139102 0.175548
H58   H     H_    0.924660 0.667058 0.427247 0.148956
H59   H     H_    0.923720 0.721234 0.405471 0.128703
H60   H     H_    0.852557 0.676687 0.472805 0.229260
H61   H     H_    0.853115 0.729343 0.445765 0.232748
H62   H     H_    0.861440 0.703888 0.337624 0.259672
H63   H     H_    0.815407 0.683273 0.373455 0.261441
H64   H     H_    0.860656 0.650865 0.365149 0.256328
H65   H     H_    0.667061 0.924663 0.572763 0.148954
H66   H     H_    0.721238 0.923722 0.594534 0.128706
H67   H     H_    0.676685 0.852559 0.527206 0.229260
H68   H     H_    0.544859 0.934947 0.139102 0.175549
H69   H     H_    0.729341 0.853115 0.554242 0.232750
H70   H     H_    0.703892 0.861443 0.662385 0.259673
H71   H     H_    0.683274 0.815411 0.626557 0.261441
H72   H     H_    0.650868 0.860661 0.634865 0.256330
H73   H     H_    0.924663 0.332943 0.572755 0.148957
H74   H     H_    0.923723 0.278767 0.594532 0.128703
H75   H     H_    0.852559 0.323315 0.527200 0.229260
H76   H     H_    0.853116 0.270660 0.554244 0.232746
H77   H     H_    0.861444 0.296118 0.662383 0.259672
H78   H     H_    0.815411 0.316733 0.626554 0.261441
H79   H     H_    0.396509 0.158317 0.353977 0.167247
H80   H     H_    0.860662 0.349140 0.634855 0.256328
H81   H     H_    0.332938 0.075326 0.572775 0.148957
H82   H     H_    0.278761 0.076275 0.594544 0.128712
H83   H     H_    0.323324 0.147434 0.527227 0.229265
H84   H     H_    0.270668 0.146885 0.554264 0.232749
H85   H     H_    0.296116 0.138549 0.662404 0.259675
H86   H     H_    0.316745 0.184578 0.626582 0.261442
H87   H     H_    0.349140 0.139320 0.634885 0.256332
H88   H     H_    0.075340 0.667058 0.572752 0.148956
H89   H     H_    0.076279 0.721233 0.594529 0.128703
H90   H     H_    0.438881 0.123628 0.363836 0.129715
H91   H     H_    0.147443 0.676688 0.527194 0.229260
H92   H     H_    0.146885 0.729343 0.554236 0.232748
H93   H     H_    0.138560 0.703887 0.662376 0.259672
H94   H     H_    0.184592 0.683273 0.626545 0.261442
H95   H     H_    0.139344 0.650864 0.634849 0.256328
H96   H     H_    0.832941 0.424660 0.927245 0.148953
H97   H     H_    0.778764 0.423720 0.905472 0.128704
H98   H     H_    0.823314 0.352557 0.972805 0.229259
H99   H     H_    0.770658 0.353114 0.945767 0.232748
H100  H     H_    0.796110 0.361438 0.837625 0.259672
H101  H     H_    0.351564 0.119544 0.422208 0.244199
H102  H     H_    0.816727 0.315406 0.873455 0.261439
H103  H     H_    0.849134 0.360656 0.865147 0.256328
H104  H     H_    0.575338 0.832944 0.927248 0.148958
H105  H     H_    0.576277 0.778768 0.905469 0.128701
H106  H     H_    0.647442 0.823312 0.972803 0.229262
H107  H     H_    0.646884 0.770658 0.945757 0.232747
H108  H     H_    0.638556 0.796118 0.837619 0.259672
H109  H     H_    0.684590 0.816730 0.873450 0.261441
H110  H     H_    0.639342 0.849140 0.865151 0.256329
H111  H     H_    0.167059 0.575340 0.927245 0.148955
H112  H     H_    0.044859 0.565053 0.360898 0.175548
H113  H     H_    0.386907 0.076676 0.425420 0.234820
H114  H     H_    0.221235 0.576279 0.905471 0.128703
H115  H     H_    0.176688 0.647443 0.972804 0.229260
H116  H     H_    0.229343 0.646885 0.945765 0.232749
H117  H     H_    0.203890 0.638560 0.837623 0.259672
H118  H     H_    0.183275 0.684593 0.873454 0.261442
H119  H     H_    0.150866 0.639344 0.865147 0.256329
H120  H     H_    0.424661 0.167056 0.927248 0.148958
H121  H     H_    0.423723 0.221231 0.905469 0.128701
H122  H     H_    0.352557 0.176688 0.972804 0.229262
H123  H     H_    0.353116 0.229342 0.945757 0.232747
H124  H     H_    0.440357 0.122917 0.475807 0.260357
H125  H     H_    0.361444 0.203881 0.837619 0.259672
H126  H     H_    0.315410 0.183270 0.873450 0.261441
H127  H     H_    0.360658 0.150860 0.865151 0.256329
H128  H     H_    0.167057 0.424661 0.072753 0.148957
H129  H     H_    0.221233 0.423722 0.094530 0.128702
H130  H     H_    0.176688 0.352557 0.027196 0.229260
H131  H     H_    0.229343 0.353116 0.054239 0.232748
H132  H     H_    0.203886 0.361442 0.162379 0.259672
H133  H     H_    0.183273 0.315408 0.126548 0.261441
H134  H     H_    0.150864 0.360657 0.134851 0.256329
H135  H     H_    0.393332 0.118174 0.519556 0.262033
H136  H     H_    0.424661 0.832943 0.072754 0.148957
H137  H     H_    0.423722 0.778767 0.094531 0.128702
H138  H     H_    0.352558 0.823313 0.027198 0.229261
H139  H     H_    0.353116 0.770658 0.054241 0.232748
H140  H     H_    0.361443 0.796115 0.162380 0.259673
H141  H     H_    0.315409 0.816728 0.126550 0.261441
H142  H     H_    0.360658 0.849137 0.134852 0.256329
H143  H     H_    0.832941 0.575340 0.072753 0.148955
H144  H     H_    0.778765 0.576280 0.094528 0.128704
H145  H     H_    0.823312 0.647443 0.027194 0.229259
H146  H     H_    0.402797 0.164713 0.475601 0.241495
H147  H     H_    0.770657 0.646885 0.054233 0.232748
H148  H     H_    0.796110 0.638561 0.162375 0.259672
H149  H     H_    0.816725 0.684594 0.126544 0.261440
H150  H     H_    0.849134 0.639345 0.134851 0.256328
H151  H     H_    0.575338 0.167056 0.072752 0.148958
H152  H     H_    0.576277 0.221232 0.094531 0.128701
H153  H     H_    0.647442 0.176687 0.027196 0.229261
H154  H     H_    0.646884 0.229342 0.054243 0.232746
H155  H     H_    0.638556 0.203881 0.162380 0.259672
H156  H     H_    0.684590 0.183269 0.126550 0.261442
H157  H     H_    0.841682 0.396511 0.353978 0.167247
H158  H     H_    0.639342 0.150860 0.134849 0.256329
H159  H     H_    0.187642 0.921509 0.462884 0.215856
H160  H     H_    0.187937 0.922288 0.540596 0.228769
H161  H     H_    0.078495 0.187642 0.462899 0.215855
H162  H     H_    0.077708 0.187937 0.540611 0.228771
H163  H     H_    0.812358 0.078494 0.462896 0.215855
H164  H     H_    0.812063 0.077709 0.540608 0.228771
H165  H     H_    0.921504 0.812358 0.462903 0.215855
H166  H     H_    0.922292 0.812063 0.540615 0.228771
H167  H     H_    0.812358 0.921506 0.537104 0.215856
H168  H     H_    0.876373 0.438882 0.363838 0.129715
H169  H     H_    0.812063 0.922291 0.459392 0.228771
H170  H     H_    0.921505 0.187642 0.537101 0.215855
H171  H     H_    0.922291 0.187937 0.459389 0.228771
H172  H     H_    0.187641 0.078491 0.537114 0.215856
H173  H     H_    0.187937 0.077712 0.459402 0.228771
H174  H     H_    0.078495 0.812358 0.537097 0.215855
H175  H     H_    0.077708 0.812063 0.459385 0.228771
H176  H     H_    0.687642 0.421504 0.962903 0.215855
H177  H     H_    0.687937 0.422292 0.040615 0.228771
H178  H     H_    0.578495 0.687642 0.962900 0.215855
H179  H     H_    0.880454 0.351563 0.422205 0.244200
H180  H     H_    0.577708 0.687937 0.040613 0.228771
H181  H     H_    0.312358 0.578495 0.962902 0.215855
H182  H     H_    0.312063 0.577708 0.040614 0.228771
H183  H     H_    0.421505 0.312358 0.962901 0.215855
H184  H     H_    0.422292 0.312063 0.040613 0.228770
H185  H     H_    0.312358 0.421505 0.037098 0.215856
H186  H     H_    0.312063 0.422292 0.959387 0.228771
H187  H     H_    0.421505 0.687642 0.037099 0.215855
H188  H     H_    0.422292 0.687937 0.959387 0.228771
H189  H     H_    0.687642 0.578495 0.037097 0.215855
H190  H     H_    0.923323 0.386906 0.425420 0.234822
H191  H     H_    0.687937 0.577708 0.959385 0.228771
H192  H     H_    0.578495 0.312358 0.037099 0.215855
H193  H     H_    0.577708 0.312063 0.959387 0.228771
H194  H     H_    0.877083 0.440354 0.475811 0.260360
H195  H     H_    0.881823 0.393327 0.519555 0.262029
H196  H     H_    0.434947 0.044858 0.360899 0.175548
H197  H     H_    0.835286 0.402795 0.475600 0.241497
H198  H     H_    0.603490 0.841683 0.353978 0.167248
H199  H     H_    0.561119 0.876373 0.363839 0.129716
H200  H     H_    0.648438 0.880455 0.422204 0.244201
H201  H     H_    0.613095 0.923324 0.425419 0.234820
H202  H     H_    0.559647 0.877084 0.475811 0.260360
H203  H     H_    0.606675 0.881826 0.519555 0.262030
H204  H     H_    0.597207 0.835288 0.475601 0.241496
H205  H     H_    0.158318 0.603488 0.353977 0.167248
H206  H     H_    0.123627 0.561118 0.363839 0.129716
H207  H     H_    0.955141 0.434947 0.360898 0.175548
H208  H     H_    0.119546 0.648437 0.422203 0.244201
H209  H     H_    0.076678 0.613094 0.425420 0.234822
H210  H     H_    0.122918 0.559646 0.475812 0.260360
H211  H     H_    0.118178 0.606674 0.519555 0.262028
H212  H     H_    0.164715 0.597205 0.475599 0.241499
H213  H     H_    0.603489 0.158317 0.646022 0.167248
H214  H     H_    0.561118 0.123627 0.636161 0.129716
H215  H     H_    0.648437 0.119545 0.577795 0.244201
H216  H     H_    0.613095 0.076677 0.574580 0.234821
H217  H     H_    0.559646 0.122916 0.524189 0.260360
H218  H     H_    0.434947 0.955141 0.639102 0.175548
H219  H     H_    0.606674 0.118175 0.480444 0.262030
H220  H     H_    0.597205 0.164713 0.524399 0.241496
H221  H     H_    0.158318 0.396511 0.646022 0.167248
H222  H     H_    0.123627 0.438882 0.636161 0.129716
H223  H     H_    0.119546 0.351562 0.577796 0.244201
H224  H     H_    0.076678 0.386905 0.574580 0.234822
H225  H     H_    0.122917 0.440353 0.524188 0.260360
H226  H     H_    0.118177 0.393326 0.480445 0.262029
H227  H     H_    0.164714 0.402794 0.524401 0.241498
H228  H     H_    0.396510 0.841683 0.646023 0.167248
H229  H     H_    0.955141 0.565053 0.639102 0.175548
H230  H     H_    0.438881 0.876373 0.636162 0.129715
H231  H     H_    0.351562 0.880455 0.577795 0.244201
H232  H     H_    0.386906 0.923323 0.574580 0.234819
H233  H     H_    0.440354 0.877082 0.524190 0.260357
H234  H     H_    0.393327 0.881824 0.480444 0.262028
H235  H     H_    0.402793 0.835286 0.524400 0.241498
H236  H     H_    0.841682 0.603488 0.646023 0.167247
H237  H     H_    0.876373 0.561118 0.636161 0.129715
H238  H     H_    0.880454 0.648437 0.577796 0.244201
H239  H     H_    0.923322 0.613094 0.574580 0.234822
H240  H     H_    0.565053 0.044859 0.639102 0.175548
H241  H     H_    0.877082 0.559646 0.524188 0.260360
H242  H     H_    0.881822 0.606674 0.480445 0.262029
H243  H     H_    0.835285 0.597205 0.524401 0.241498
H244  H     H_    0.896512 0.658318 0.853978 0.167248
H245  H     H_    0.938882 0.623627 0.863839 0.129716
H246  H     H_    0.851563 0.619546 0.922204 0.244200
H247  H     H_    0.886905 0.576678 0.925420 0.234822
H248  H     H_    0.940353 0.622917 0.975812 0.260360
H249  H     H_    0.893326 0.618177 0.019555 0.262029
H250  H     H_    0.902795 0.664714 0.975599 0.241498
H251  H     H_    0.044859 0.434947 0.639102 0.175548
H252  H     H_    0.341681 0.896513 0.853978 0.167247
H253  H     H_    0.376373 0.938883 0.863839 0.129715
H254  H     H_    0.380453 0.851563 0.922203 0.244200
H255  H     H_    0.423322 0.886906 0.925420 0.234822
H256  H     H_    0.377082 0.940354 0.975812 0.260360
H257  H     H_    0.381822 0.893326 0.019555 0.262029
H258  H     H_    0.335285 0.902795 0.975600 0.241498
H259  H     H_    0.103488 0.341682 0.853977 0.167248
H260  H     H_    0.061118 0.376373 0.863839 0.129716
H261  H     H_    0.148437 0.380454 0.922203 0.244201
H262  H     H_    0.065053 0.455141 0.860898 0.175548
H263  H     H_    0.113094 0.423322 0.925420 0.234822
H264  H     H_    0.059647 0.377082 0.975812 0.260360
H265  H     H_    0.106675 0.381822 0.019555 0.262029
H266  H     H_    0.097206 0.335285 0.975599 0.241498
H267  H     H_    0.658318 0.103487 0.853977 0.167247
H268  H     H_    0.623627 0.061117 0.863839 0.129715
H269  H     H_    0.619546 0.148437 0.922203 0.244200
H270  H     H_    0.576678 0.113094 0.925420 0.234822
H271  H     H_    0.622918 0.059646 0.975812 0.260360
H272  H     H_    0.618178 0.106674 0.019555 0.262029
N1    N     N_3   0.206723 0.923186 0.501556 -0.546875
N2    N     N_3   0.576814 0.706723 0.001571 -0.546883
N3    N     N_3   0.293277 0.576814 0.001572 -0.546885
N4    N     N_3   0.423186 0.293277 0.001571 -0.546882
N5    N     N_3   0.293277 0.423186 0.998428 -0.546884
N6    N     N_3   0.423186 0.706723 0.998429 -0.546883
N7    N     N_3   0.706723 0.576814 0.998426 -0.546885
N8    N     N_3   0.576814 0.293277 0.998428 -0.546882
N9    N     N_3   0.076814 0.206723 0.501570 -0.546881
N10   N     N_3   0.793277 0.076814 0.501567 -0.546884
N11   N     N_3   0.923186 0.793277 0.501573 -0.546884
N12   N     N_3   0.793277 0.923186 0.498433 -0.546887
N13   N     N_3   0.923185 0.206723 0.498430 -0.546881
N14   N     N_3   0.206723 0.076814 0.498443 -0.546881
N15   N     N_3   0.076814 0.793277 0.498427 -0.546883
N16   N     N_3   0.706723 0.423185 0.001573 -0.546883
O1    O     O_R   0.440150 0.034670 0.500000 -0.583123
O2    O     O_R   0.465330 0.940150 0.000000 -0.583124
O3    O     O_R   0.059850 0.465330 0.000000 -0.583124
O4    O     O_R   0.534670 0.059850 0.000000 -0.583125
O5    O     O_R   0.059850 0.534670 0.000000 -0.583125
O6    O     O_R   0.534670 0.940150 0.000000 -0.583125
O7    O     O_R   0.940150 0.465330 0.000000 -0.583125
O8    O     O_R   0.465330 0.059850 0.000000 -0.583124
O9    O     O_R   0.500000 0.034670 0.409850 -0.589403
O10   O     O_R   0.965330 0.500000 0.409850 -0.589403
O11   O     O_R   0.500000 0.965330 0.409850 -0.589404
O12   O     O_R   0.965330 0.440150 0.500000 -0.583125
O13   O     O_R   0.034670 0.500000 0.409850 -0.589404
O14   O     O_R   0.500000 0.034670 0.590150 -0.589404
O15   O     O_R   0.034670 0.500000 0.590150 -0.589403
O16   O     O_R   0.500000 0.965330 0.590150 -0.589402
O17   O     O_R   0.965330 0.500000 0.590150 -0.589404
O18   O     O_R   0.000000 0.534670 0.909850 -0.589404
O19   O     O_R   0.465330 0.000000 0.909850 -0.589403
O20   O     O_R   0.000000 0.465330 0.909850 -0.589403
O21   O     O_R   0.534670 0.000000 0.909850 -0.589404
O22   O     O_R   0.000000 0.534670 0.090150 -0.589404
O23   O     O_R   0.559850 0.965330 0.500000 -0.583124
O24   O     O_R   0.534670 0.000000 0.090150 -0.589403
O25   O     O_R   0.000000 0.465330 0.090150 -0.589403
O26   O     O_R   0.465330 0.000000 0.090150 -0.589404
O27   O     O_R   0.999970 0.940220 0.447740 -0.578248
O28   O     O_R   0.059780 0.999970 0.447740 -0.578248
O29   O     O_R   0.000030 0.059780 0.447740 -0.578248
O30   O     O_R   0.940220 0.000030 0.447740 -0.578248
O31   O     O_R   0.000030 0.940220 0.552260 -0.578248
O32   O     O_R   0.940220 0.999970 0.552260 -0.578248
O33   O     O_R   0.999970 0.059780 0.552260 -0.578248
O34   O     O_R   0.034670 0.559850 0.500000 -0.583125
O35   O     O_R   0.059780 0.000030 0.552260 -0.578248
O36   O     O_R   0.499970 0.440220 0.947740 -0.578247
O37   O     O_R   0.559780 0.499970 0.947740 -0.578248
O38   O     O_R   0.500030 0.559780 0.947740 -0.578248
O39   O     O_R   0.440220 0.500030 0.947740 -0.578247
O40   O     O_R   0.500030 0.440220 0.052260 -0.578248
O41   O     O_R   0.440220 0.499970 0.052260 -0.578248
O42   O     O_R   0.499970 0.559780 0.052260 -0.578248
O43   O     O_R   0.559780 0.500030 0.052260 -0.578248
O44   O     O_3   0.386998 0.102236 0.311668 -0.583428
O45   O     O_R   0.559850 0.034670 0.500000 -0.583125
O46   O     O_3   0.897762 0.386999 0.311667 -0.583426
O47   O     O_3   0.613001 0.897763 0.311667 -0.583428
O48   O     O_3   0.102238 0.613001 0.311667 -0.583427
O49   O     O_3   0.613001 0.102237 0.688333 -0.583428
O50   O     O_3   0.102238 0.386999 0.688333 -0.583427
O51   O     O_3   0.386998 0.897763 0.688333 -0.583429
O52   O     O_3   0.897762 0.613001 0.688333 -0.583426
O53   O     O_3   0.886999 0.602238 0.811667 -0.583427
O54   O     O_3   0.397761 0.887000 0.811667 -0.583427
O55   O     O_3   0.113001 0.397762 0.811667 -0.583428
O56   O     O_R   0.034670 0.440150 0.500000 -0.583125
O57   O     O_3   0.602238 0.113000 0.811667 -0.583427
O58   O     O_3   0.113001 0.602238 0.188333 -0.583427
O59   O     O_3   0.602238 0.886999 0.188332 -0.583427
O60   O     O_3   0.886999 0.397762 0.188333 -0.583427
O61   O     O_3   0.397761 0.113000 0.188333 -0.583427
O62   O     O_3   0.292581 0.924783 0.500611 -0.585316
O63   O     O_3   0.075217 0.292581 0.500623 -0.585319
O64   O     O_3   0.707419 0.075217 0.500619 -0.585319
O65   O     O_3   0.924783 0.707419 0.500626 -0.585319
O66   O     O_3   0.707419 0.924784 0.499381 -0.585320
O67   O     O_R   0.440150 0.965330 0.500000 -0.583126
O68   O     O_3   0.924783 0.292581 0.499377 -0.585318
O69   O     O_3   0.292581 0.075217 0.499391 -0.585317
O70   O     O_3   0.075217 0.707419 0.499374 -0.585319
O71   O     O_3   0.792581 0.424783 0.000626 -0.585319
O72   O     O_3   0.575217 0.792581 0.000624 -0.585318
O73   O     O_3   0.207419 0.575217 0.000625 -0.585319
O74   O     O_3   0.424783 0.207419 0.000624 -0.585318
O75   O     O_3   0.207419 0.424783 0.999375 -0.585319
O76   O     O_3   0.424783 0.792581 0.999376 -0.585318
O77   O     O_3   0.792581 0.575217 0.999374 -0.585319
O78   O     O_R   0.965330 0.559850 0.500000 -0.583124
O79   O     O_3   0.575217 0.207419 0.999375 -0.585318
O80   O     O_R   0.940150 0.534670 0.000000 -0.583125

loop_
_geom_bond_atom_site_label_1
_geom_bond_atom_site_label_2
_ccdc_geom_bond_type
C33   C55   A    
H187  N6    S    
C206  O40   A    
C139  H72   S    
C30   C45   A    
C140  H74   S    
C138  H67   S    
C88   H226  S    
Cu3   O38   S    
C114  C115  S    
C132  H54   S    
C12   C23   A    
C233  C251  A    
C172  H150  S    
C46   C62   A    
Cu7   O34   S    
C46   C181  S    
Cu6   O23   S    
C209  O39   A    
C73   O46   S    
C169  H141  S    
C39   C63   A    
C36   C66   A    
C106  C107  S    
C173  O79   S    
C143  C144  S    
C191  O34   A    
H186  N5    S    
C204  O33   A    
C16   C219  A    
C61   O77   S    
C153  O72   S    
C98   H248  S    
C125  H38   S    
C67   O71   S    
C110  C111  S    
C32   C52   A    
C126  H41   S    
Cu1   O45   S    
C102  H258  S    
C110  H6    S    
C1    C184  S    
C147  H89   S    
C22   C212  S    
C92   H233  S    
C70   H90   S    
C9    C226  A    
C41   C61   A    
C163  H128  S    
C72   H135  S    
C109  O58   S    
C91   C92   S    
C165  H133  S    
C125  C126  S    
C38   C69   A    
H189  N7    S    
C131  H52   S    
C183  C192  T    
C119  H26   S    
C220  C238  A    
C180  O23   A    
C217  O22   A    
C104  C105  S    
C10   C21   A    
C172  H148  S    
C103  O55   S    
C74   H179  S    
C33   N15   S    
C20   C215  S    
C191  O78   A    
C241  C249  A    
C239  O44   S    
C74   C75   S    
C11   C223  A    
C89   H230  S    
C142  H78   S    
C179  C188  T    
C225  C242  A    
H161  N9    S    
C124  C197  T    
C51   C157  S    
C177  C186  T    
C199  C209  S    
C83   H214  S    
C216  O19   A    
C190  C224  S    
C145  H86   S    
C149  H94   S    
C95   H242  S    
C106  O57   S    
C28   N10   S    
Cu6   O11   S    
C236  H68   S    
C94   H239  S    
C29   N11   S    
C121  H30   S    
C159  H117  S    
C76   C77   S    
C117  H20   S    
C226  H240  S    
C175  H156  S    
C154  C155  S    
C234  H57   S    
C53   O68   S    
Cu1   O14   S    
H165  N11   S    
C139  H70   S    
C24   C178  S    
C158  C159  S    
C33   C47   A    
C75   H194  S    
C34   C48   A    
C42   C64   A    
Cu10  O3    S    
C192  C235  S    
C13   C54   A    
C129  H48   S    
C16   C25   A    
C132  H56   S    
C241  O51   S    
Cu2   O35   S    
C238  C252  A    
C73   H168  S    
C108  H3    S    
C209  O41   A    
C96   H245  S    
C2    C53   A    
C170  H144  S    
C40   N6    S    
C55   O70   S    
C238  O48   S    
C193  C203  S    
C180  C186  S    
C150  H97   S    
C219  C237  A    
C156  C158  S    
C130  C131  S    
C126  H39   S    
C102  H256  S    
Cu12  O29   S    
C37   C50   A    
C84   H215  S    
C141  H75   S    
C85   H220  S    
C223  C241  A    
Cu10  O7    S    
C104  H261  S    
Cu7   O15   S    
H182  N3    S    
C164  H131  S    
C93   H237  S    
C59   C246  A    
C41   N7    S    
C152  H103  S    
C123  C125  S    
C247  O57   S    
C162  H127  S    
C14   C256  A    
C130  H51   S    
C26   N1    S    
C78   H204  S    
H166  N11   S    
C137  H65   S    
C151  H98   S    
H188  N6    S    
C208  O42   A    
C82   H211  S    
C74   H190  S    
C198  C208  S    
C87   H224  S    
C103  H259  S    
C93   H236  S    
C235  O8    A    
H169  N12   S    
C147  C148  S    
C166  O76   S    
C128  C129  S    
C6    C9    A    
C97   C98   S    
C28   C56   A    
C7    C8    A    
C167  C169  S    
C5    C20   A    
C15   C255  A    
Cu11  O24   S    
C44   C90   S    
C6    C19   A    
C30   C54   A    
C97   H247  S    
C108  H271  S    
C66   O72   S    
C29   C47   A    
C111  H9    S    
C76   H199  S    
H191  N7    S    
Cu12  O27   S    
C99   H252  S    
Cu3   O39   S    
C99   O54   S    
C170  C171  S    
C32   N14   S    
C119  H23   S    
C128  H45   S    
C84   H216  S    
C95   H243  S    
Cu2   O32   S    
C122  H31   S    
C188  C202  S    
C114  O59   S    
C174  C175  S    
C245  O55   S    
C251  O61   S    
C105  H264  S    
C216  O21   A    
C173  H152  S    
C75   H197  S    
C213  O6    A    
C253  O59   S    
C37   C65   A    
C107  C108  S    
C118  H21   S    
C152  H102  S    
C100  H255  S    
C36   N2    S    
C89   C91   S    
C81   H209  S    
C62   O76   S    
C152  H100  S    
C13   C56   A    
C143  H82   S    
C49   C135  S    
Cu2   O33   S    
Cu9   O19   S    
C155  H108  S    
C166  H136  S    
C94   C95   S    
C181  C189  T    
C163  H129  S    
H175  N15   S    
C57   C182  S    
C57   C63   A    
C14   C221  A    
C35   C179  S    
C149  H93   S    
C17   C254  A    
C77   H201  S    
Cu10  O25   S    
C136  H64   S    
C120  H28   S    
Cu7   O56   S    
H180  N2    S    
C227  C244  A    
C71   H113  S    
C38   C51   A    
C115  H15   S    
C210  O11   A    
Cu7   O13   S    
C242  C248  A    
C160  O74   S    
C219  H1    S    
C233  H46   S    
C89   O51   S    
C39   N5    S    
C162  H125  S    
C212  O14   A    
C83   C84   S    
C29   C60   A    
C35   C67   A    
C194  C204  S    
C37   N3    S    
C213  O2    A    
C116  H17   S    
C35   C61   A    
C144  C145  S    
C131  H53   S    
C111  H8    S    
Cu9   Cu11  S    
C12   C222  A    
C70   C71   S    
C189  C213  S    
C114  H11   S    
C134  H61   S    
C155  H110  S    
C156  H114  S    
C80   H206  S    
C236  C253  A    
C113  C196  T    
C158  H116  S    
C144  H84   S    
C231  C249  A    
C72   H146  S    
C120  C121  S    
C26   C59   A    
C153  H104  S    
Cu1   O9    S    
C214  O17   A    
C139  H71   S    
C75   H195  S    
C118  H22   S    
Cu3   O37   S    
C174  H153  S    
C64   O79   S    
C182  C190  T    
C95   H241  S    
C79   C193  T    
C34   N16   S    
C157  C200  T    
C123  H36   S    
C71   C72   S    
C169  H140  S    
C117  C118  S    
C105  H266  S    
C88   H227  S    
C56   O64   S    
C201  O27   A    
C32   C43   A    
C125  H37   S    
C25   C210  S    
C206  O36   A    
C86   H221  S    
C72   H124  S    
C110  H7    S    
C229  C247  A    
Cu6   O16   S    
Cu5   O10   S    
C218  O24   A    
C92   H234  S    
C5    C230  A    
Cu4   O41   S    
C236  C254  A    
C196  C201  S    
H184  N4    S    
Cu5   O78   S    
C17   C218  S    
C154  H106  S    
C129  H49   S    
C147  H88   S    
C143  O69   S    
C17   C256  A    
C240  C250  A    
C237  O47   S    
H162  N9    S    
C85   H217  S    
C151  H99   S    
C73   C74   S    
C119  H25   S    
C138  H69   S    
Cu11  O4    S    
C98   H249  S    
C70   O44   S    
C205  O30   A    
C161  C162  S    
Cu5   O17   S    
C176  C185  T    
C133  H59   S    
C77   C78   S    
C104  H263  S    
C239  C251  A    
C237  C253  A    
C164  C165  S    
C98   H250  S    
C91   H231  S    
C46   C66   A    
Cu4   O42   S    
C212  O16   A    
C107  H270  S    
C106  H268  S    
C54   O66   S    
C208  O38   A    
C58   O63   S    
C83   H213  S    
C76   H198  S    
C207  O37   A    
C150  O71   S    
C60   O65   S    
C86   O50   S    
C233  C256  A    
C16   C254  A    
Cu10  O20   S    
C202  O7    A    
C163  C164  S    
C68   C69   A    
C10   C225  A    
C121  H29   S    
C151  C152  S    
H183  N4    S    
C117  H19   S    
C175  H155  S    
C161  H123  S    
C50   C146  S    
C129  H47   S    
Cu2   Cu12  S    
C214  O15   A    
C115  H14   S    
C134  H60   S    
Cu1   O1    S    
H167  N12   S    
C100  H254  S    
C140  H73   S    
C88   H225  S    
C220  H112  S    
C244  C245  A    
C172  H149  S    
Cu1   Cu6   S    
C112  C185  S    
C4    C231  A    
C160  H120  S    
C175  H158  S    
H164  N10   S    
C84   C85   S    
C169  H142  S    
H177  N16   S    
C240  O46   S    
C86   C87   S    
C52   O69   S    
C21   C214  S    
C99   H253  S    
Cu11  O21   S    
C215  O20   A    
C126  H40   S    
C102  H257  S    
Cu12  O30   S    
C63   O75   S    
C229  H2    S    
Cu5   O12   S    
C70   H79   S    
C90   C194  T    
C140  O68   S    
C96   O53   S    
C123  H34   S    
C173  H151  S    
C227  H251  S    
Cu4   O43   S    
C91   H232  S    
C4    C11   A    
C121  C122  S    
C45   C101  S    
Cu8   O18   S    
C112  O56   A    
C178  C187  T    
C222  H207  S    
C165  H132  S    
C221  C239  A    
C93   O52   S    
C243  C247  A    
C133  C134  S    
C224  O5    A    
C197  C207  S    
C82   H212  S    
C131  C132  S    
C205  O32   A    
C64   C68   A    
C87   H223  S    
C71   H101  S    
C47   C113  S    
C127  H42   S    
C31   N13   S    
C243  O49   S    
C116  H16   S    
C170  O77   S    
C57   C65   A    
H159  N1    S    
C27   C58   A    
C34   C67   A    
C202  O80   A    
C78   H202  S    
C2    C58   A    
C142  H77   S    
C106  H267  S    
C18   C255  A    
C108  H272  S    
C223  H218  S    
C228  H262  S    
H193  N8    S    
C207  O43   A    
Cu12  O28   S    
Cu9   O2    S    
C109  C110  S    
C145  H87   S    
C167  H138  S    
C1    O1    A    
C40   C49   A    
C149  H95   S    
Cu9   O8    S    
C23   C211  S    
C27   N9    S    
C13   C177  S    
Cu3   O36   S    
C94   H238  S    
C222  C240  A    
C159  H118  S    
C171  H147  S    
C14   C25   A    
C160  H121  S    
C42   N8    S    
C138  C139  S    
C76   O47   S    
H176  N16   S    
Cu9   O26   S    
C87   C88   S    
Cu8   Cu10  S    
C7    C20   A    
C235  O4    A    
C103  C104  S    
C65   O73   S    
C204  O29   A    
Cu8   O80   S    
C81   H208  S    
C73   H157  S    
C234  C255  A    
C109  H5    S    
C36   C49   A    
C115  C116  S    
C83   O49   S    
C143  H81   S    
C132  H55   S    
C168  C246  S    
C171  C172  S    
C68   C183  S    
C93   C94   S    
C148  H92   S    
C165  H134  S    
C122  H33   S    
C166  H137  S    
C127  O63   S    
C140  C141  S    
Cu4   O40   S    
C135  C198  T    
C81   C82   S    
C145  H85   S    
C210  O9    A    
C173  C174  S    
C24   C55   A    
C201  O31   A    
C230  H13   S    
C180  O45   A    
C215  O18   A    
C150  H96   S    
C141  H76   S    
C224  O3    A    
H173  N14   S    
C109  H4    S    
C137  H66   S    
C9    C22   A    
C122  H32   S    
Cu11  O6    S    
C7    C228  A    
C43   C79   S    
C69   O74   S    
C40   C62   A    
C3    C18   A    
C19   C216  S    
C146  C199  T    
C118  C119  S    
C3    C12   A    
C117  O60   S    
C147  O70   S    
H172  N14   S    
C4    C19   A    
C162  H126  S    
C130  H50   S    
C168  C184  T    
C85   H219  S    
C78   H203  S    
H178  N2    S    
C116  H18   S    
C82   H210  S    
C217  O25   A    
C187  C191  S    
H181  N3    S    
C42   C51   A    
C2    C176  S    
C103  H260  S    
C15   C23   A    
C155  H109  S    
C156  H111  S    
H170  N13   S    
C27   C44   A    
C8    C227  A    
C26   C43   A    
C170  H143  S    
C232  H35   S    
C28   C45   A    
C59   O62   S    
C31   C44   A    
C30   N12   S    
C111  H10   S    
C92   H235  S    
C148  C149  S    
C234  C252  A    
C137  O66   S    
Cu5   Cu7   S    
C134  C136  S    
C228  C245  A    
C174  H154  S    
C242  O52   S    
C136  H62   S    
Cu8   O5    S    
Cu2   O31   S    
C211  O10   A    
C171  H145  S    
C80   O48   S    
Cu8   O22   S    
C105  H265  S    
Cu6   O67   S    
C99   C100  S    
C195  C205  S    
C24   C60   A    
C96   C97   S    
C100  C102  S    
C8    C21   A    
C231  H24   S    
C38   N4    S    
C203  O28   A    
C31   C53   A    
C86   H222  S    
C133  O65   S    
C130  O64   S    
C166  C167  S    
C250  O60   S    
C232  C250  A    
C225  H229  S    
Cu3   Cu4   S    
C230  C248  A    
C154  H107  S    
C164  H130  S    
C77   H200  S    
C150  C151  S    
C221  H196  S    
C203  O35   A    
C136  H63   S    
C120  H27   S    
H185  N5    S    
C80   C81   S    
C52   C246  A    
C3    C232  A    
C48   C124  S    
C133  H58   S    
C218  O26   A    
C114  H12   S    
C120  O61   S    
C123  O62   S    
C127  H43   S    
C137  C138  S    
C11   C22   A    
C163  O75   S    
C128  H44   S    
C160  C161  S    
H174  N15   S    
C15   C220  A    
C101  C195  T    
C5    C10   A    
C112  O12   A    
C141  C142  S    
C1    O67   A    
H160  N1    S    
C89   H228  S    
C142  H80   S    
C107  H269  S    
C248  O53   S    
C41   C48   A    
C97   H246  S    
C156  O73   S    
C244  O50   S    
C200  C206  S    
H192  N8    S    
C226  C243  A    
C167  H139  S    
C39   C50   A    
C96   H244  S    
C6    C229  A    
C80   H205  S    
C148  H91   S    
H163  N10   S    
C158  H115  S    
C211  O13   A    
C144  H83   S    
C159  H119  S    
C153  C154  S    
C18   C217  S    
C161  H122  S    
H171  N13   S    
C252  O58   S    
C249  O54   S    
C127  C128  S    
C153  H105  S    
