data_mof_unit_19835.cif
_audit_creation_date              2012-10-26T21:29:50-0400
_audit_creation_method            fapswitch 2.2
_symmetry_space_group_name_H-M    P1
_symmetry_Int_Tables_number       1
_space_group_crystal_system       triclinic
_cell_length_a                    26.566865
_cell_length_b                    26.566861
_cell_length_c                    26.566861
_cell_angle_alpha                 89.999987
_cell_angle_beta                  90.000021
_cell_angle_gamma                 90.0
_cell_volume                      18750.8429301

loop_
_atom_site_label
_atom_site_type_symbol
_atom_type_description
_atom_site_fract_x
_atom_site_fract_y
_atom_site_fract_z
_atom_type_partial_charge
C1    C     C_R   0.933078 0.698884 0.301116 0.555181
C2    C     C_R   0.066922 0.698883 0.301117 0.555172
C3    C     C_R   0.830741 0.104233 0.830741 -0.001446
C4    C     C_R   0.169259 0.895767 0.830741 -0.001446
C5    C     C_R   0.830741 0.104233 0.169259 -0.001446
C6    C     C_R   0.830741 0.895767 0.830741 -0.001447
C7    C     C_R   0.169258 0.104233 0.169258 -0.001447
C8    C     C_R   0.104233 0.169258 0.169258 -0.001446
C9    C     C_R   0.895767 0.830741 0.830741 -0.001447
C10   C     C_R   0.104233 0.169259 0.830741 -0.001447
C11   C     C_R   0.895767 0.830741 0.169259 -0.001446
C12   C     C_R   0.104233 0.830741 0.830741 -0.001446
C13   C     C_R   0.301117 0.301117 0.933078 0.555173
C14   C     C_R   0.895767 0.169259 0.169259 -0.001446
C15   C     C_R   0.104233 0.830741 0.169259 -0.001446
C16   C     C_R   0.895767 0.169259 0.830741 -0.001446
C17   C     C_R   0.830741 0.169259 0.895767 -0.001446
C18   C     C_R   0.169259 0.830741 0.104233 -0.001446
C19   C     C_R   0.830741 0.830741 0.895767 -0.001445
C20   C     C_R   0.169259 0.169259 0.104233 -0.001445
C21   C     C_R   0.169259 0.830741 0.895767 -0.001447
C22   C     C_R   0.830741 0.169259 0.104233 -0.001447
C23   C     C_R   0.169259 0.169259 0.895767 -0.001445
C24   C     C_R   0.698883 0.698883 0.066922 0.555173
C25   C     C_R   0.830741 0.830741 0.104233 -0.001446
C26   C     C_R   0.330741 0.395767 0.169258 -0.001446
C27   C     C_R   0.669259 0.604233 0.830741 -0.001447
C28   C     C_R   0.169259 0.395767 0.669259 -0.001448
C29   C     C_R   0.830741 0.604233 0.330741 -0.001447
C30   C     C_R   0.669259 0.395767 0.830741 -0.001446
C31   C     C_R   0.330741 0.604233 0.169259 -0.001448
C32   C     C_R   0.830741 0.395767 0.330741 -0.001447
C33   C     C_R   0.169259 0.604233 0.669259 -0.001447
C34   C     C_R   0.330741 0.604233 0.830741 -0.001446
C35   C     C_R   0.066922 0.301116 0.301116 0.555177
C36   C     C_R   0.669259 0.395767 0.169259 -0.001446
C37   C     C_R   0.169259 0.604233 0.330741 -0.001447
C38   C     C_R   0.830741 0.395767 0.669259 -0.001447
C39   C     C_R   0.669259 0.604233 0.169259 -0.001447
C40   C     C_R   0.330741 0.395767 0.830741 -0.001446
C41   C     C_R   0.830741 0.604233 0.669259 -0.001446
C42   C     C_R   0.169259 0.395767 0.330741 -0.001447
C43   C     C_R   0.604233 0.169259 0.669259 -0.001448
C44   C     C_R   0.395767 0.830741 0.330741 -0.001446
C45   C     C_R   0.604233 0.669259 0.830741 -0.001447
C46   C     C_R   0.933078 0.698883 0.698883 0.555172
C47   C     C_R   0.395767 0.330741 0.169258 -0.001445
C48   C     C_R   0.604233 0.830741 0.330741 -0.001447
C49   C     C_R   0.395767 0.169259 0.669259 -0.001448
C50   C     C_R   0.604233 0.330741 0.169259 -0.001446
C51   C     C_R   0.395767 0.669259 0.830741 -0.001447
C52   C     C_R   0.395767 0.830741 0.669259 -0.001447
C53   C     C_R   0.604233 0.169259 0.330741 -0.001449
C54   C     C_R   0.395767 0.330741 0.830741 -0.001448
C55   C     C_R   0.604233 0.669259 0.169259 -0.001447
C56   C     C_R   0.395762 0.169262 0.330735 -0.001387
C57   C     C_R   0.698883 0.301117 0.066922 0.555172
C58   C     C_R   0.604233 0.830741 0.669259 -0.001446
C59   C     C_R   0.395767 0.669259 0.169259 -0.001445
C60   C     C_R   0.604233 0.330741 0.830741 -0.001446
C61   C     C_R   0.830742 0.669259 0.395767 -0.001456
C62   C     C_R   0.169259 0.330741 0.604233 -0.001446
C63   C     C_R   0.330741 0.830741 0.395767 -0.001446
C64   C     C_R   0.669259 0.169259 0.604233 -0.001446
C65   C     C_R   0.169258 0.330741 0.395767 -0.001453
C66   C     C_R   0.830741 0.669259 0.604233 -0.001446
C67   C     C_R   0.669259 0.169259 0.395767 -0.001446
C68   C     C_R   0.301117 0.698883 0.933078 0.555172
C69   C     C_R   0.330741 0.830741 0.604233 -0.001446
C70   C     C_R   0.169259 0.669259 0.604233 -0.001446
C71   C     C_R   0.830741 0.330741 0.395767 -0.001446
C72   C     C_R   0.669259 0.830741 0.604233 -0.001446
C73   C     C_R   0.330745 0.169257 0.395770 -0.001510
C74   C     C_R   0.830741 0.330741 0.604233 -0.001445
C75   C     C_R   0.169259 0.669259 0.395767 -0.001445
C76   C     C_R   0.330741 0.169259 0.604233 -0.001444
C77   C     C_R   0.669259 0.830741 0.395767 -0.001446
C78   C     C_R   0.330741 0.895767 0.669259 -0.001446
C79   C     C_R   0.301117 0.066922 0.698883 0.555173
C80   C     C_R   0.669259 0.104233 0.330741 -0.001446
C81   C     C_R   0.669259 0.895767 0.669259 -0.001447
C82   C     C_R   0.330741 0.104233 0.330741 -0.001447
C83   C     C_R   0.669259 0.895767 0.330741 -0.001446
C84   C     C_R   0.330741 0.104233 0.669259 -0.001445
C85   C     C_R   0.330741 0.895767 0.330741 -0.001447
C86   C     C_R   0.669259 0.104233 0.669259 -0.001446
C87   C     C_R   0.104233 0.669259 0.669259 -0.001447
C88   C     C_R   0.895767 0.330741 0.330741 -0.001447
C89   C     C_R   0.104233 0.669259 0.330741 -0.001447
C90   C     C_R   0.698883 0.933078 0.301117 0.555173
C91   C     C_R   0.895767 0.330741 0.669259 -0.001447
C92   C     C_R   0.104234 0.330741 0.330741 -0.001440
C93   C     C_R   0.895767 0.669259 0.669259 -0.001447
C94   C     C_R   0.104233 0.330741 0.669259 -0.001446
C95   C     C_R   0.895766 0.669259 0.330740 -0.001434
C96   C     C_R   0.330741 0.669259 0.895767 -0.001447
C97   C     C_R   0.669259 0.330741 0.104233 -0.001447
C98   C     C_R   0.330741 0.330741 0.895767 -0.001445
C99   C     C_R   0.669259 0.669259 0.104233 -0.001445
C100  C     C_R   0.669259 0.330741 0.895767 -0.001447
C101  C     C_R   0.301117 0.933078 0.301117 0.555172
C102  C     C_R   0.330741 0.669259 0.104233 -0.001446
C103  C     C_R   0.669259 0.669259 0.895767 -0.001445
C104  C     C_R   0.330742 0.330742 0.104232 -0.001449
C105  C     C_R   0.811681 0.876624 0.123376 0.046321
C106  C     C_R   0.188319 0.123376 0.876624 0.046321
C107  C     C_R   0.123376 0.876624 0.188319 0.046321
C108  C     C_R   0.876624 0.123376 0.811680 0.046321
C109  C     C_R   0.188319 0.876624 0.876624 0.046322
C110  C     C_R   0.811681 0.123376 0.123376 0.046322
C111  C     C_R   0.876624 0.876624 0.811680 0.046322
C112  C     C_R   0.066922 0.301116 0.698883 0.555173
C113  C     C_R   0.698883 0.066922 0.698883 0.555173
C114  C     C_R   0.123375 0.123375 0.188319 0.046322
C115  C     C_R   0.811681 0.123376 0.876624 0.046322
C116  C     C_R   0.188319 0.876624 0.123376 0.046322
C117  C     C_R   0.123376 0.123376 0.811680 0.046322
C118  C     C_R   0.876624 0.876624 0.188319 0.046322
C119  C     C_R   0.188319 0.123376 0.123376 0.046321
C120  C     C_R   0.811681 0.876624 0.876624 0.046322
C121  C     C_R   0.876624 0.123376 0.188319 0.046322
C122  C     C_R   0.123376 0.876624 0.811680 0.046322
C123  C     C_R   0.123376 0.188319 0.876624 0.046321
C124  C     C_R   0.698883 0.933078 0.698883 0.555172
C125  C     C_R   0.876624 0.811681 0.123376 0.046321
C126  C     C_R   0.123376 0.811681 0.123376 0.046322
C127  C     C_R   0.876624 0.188319 0.876624 0.046322
C128  C     C_R   0.876624 0.811681 0.876624 0.046321
C129  C     C_R   0.123376 0.188319 0.123376 0.046321
C130  C     C_R   0.876624 0.188319 0.123376 0.046322
C131  C     C_R   0.123376 0.811681 0.876624 0.046322
C132  C     C_R   0.311681 0.376624 0.123375 0.046322
C133  C     C_R   0.688319 0.623376 0.876624 0.046321
C134  C     C_R   0.123376 0.376624 0.688319 0.046322
C135  C     C_R   0.301116 0.066922 0.301117 0.555172
C136  C     C_R   0.876624 0.623376 0.311680 0.046317
C137  C     C_R   0.688319 0.376624 0.876624 0.046322
C138  C     C_R   0.311681 0.623376 0.123376 0.046322
C139  C     C_R   0.876624 0.376624 0.311681 0.046321
C140  C     C_R   0.123376 0.623376 0.688319 0.046322
C141  C     C_R   0.311681 0.623376 0.876624 0.046322
C142  C     C_R   0.688319 0.376624 0.123376 0.046322
C143  C     C_R   0.123376 0.623376 0.311681 0.046321
C144  C     C_R   0.876624 0.376624 0.688319 0.046321
C145  C     C_R   0.688319 0.623376 0.123376 0.046322
C146  C     C_R   0.698883 0.066922 0.301117 0.555172
C147  C     C_R   0.311681 0.376624 0.876624 0.046321
C148  C     C_R   0.876624 0.623376 0.688319 0.046322
C149  C     C_R   0.123376 0.376624 0.311680 0.046321
C150  C     C_R   0.623376 0.123376 0.688319 0.046322
C151  C     C_R   0.376624 0.876624 0.311681 0.046321
C152  C     C_R   0.623376 0.688319 0.876624 0.046321
C153  C     C_R   0.376624 0.311681 0.123375 0.046322
C154  C     C_R   0.623376 0.876624 0.311681 0.046322
C155  C     C_R   0.376624 0.123376 0.688319 0.046321
C156  C     C_R   0.623376 0.311681 0.123376 0.046322
C157  C     C_R   0.301117 0.933078 0.698883 0.555173
C158  C     C_R   0.376624 0.688319 0.876624 0.046322
C159  C     C_R   0.376624 0.876624 0.688319 0.046322
C160  C     C_R   0.623376 0.123376 0.311681 0.046322
C161  C     C_R   0.376624 0.311681 0.876624 0.046322
C162  C     C_R   0.623376 0.688319 0.123376 0.046321
C163  C     C_R   0.376622 0.123377 0.311678 0.046305
C164  C     C_R   0.623376 0.876624 0.688319 0.046322
C165  C     C_R   0.376624 0.688319 0.123376 0.046322
C166  C     C_R   0.623376 0.311681 0.876624 0.046322
C167  C     C_R   0.876624 0.688320 0.376623 0.046321
C168  C     C_R   0.433076 0.198885 0.301114 0.555215
C169  C     C_R   0.123376 0.311680 0.623376 0.046322
C170  C     C_R   0.311681 0.876624 0.376624 0.046321
C171  C     C_R   0.688319 0.123376 0.623376 0.046321
C172  C     C_R   0.123376 0.311680 0.376624 0.046321
C173  C     C_R   0.876624 0.688319 0.623376 0.046323
C174  C     C_R   0.688319 0.123376 0.376624 0.046322
C175  C     C_R   0.311680 0.876624 0.623376 0.046322
C176  C     C_R   0.123376 0.688319 0.623376 0.046321
C177  C     C_R   0.876624 0.311680 0.376624 0.046321
C178  C     C_R   0.688319 0.876624 0.623376 0.046322
C179  C     C_R   0.566922 0.801117 0.698883 0.555172
C180  C     C_R   0.311683 0.123374 0.376627 0.046336
C181  C     C_R   0.876624 0.311680 0.623376 0.046321
C182  C     C_R   0.123376 0.688319 0.376624 0.046320
C183  C     C_R   0.311681 0.123376 0.623376 0.046321
C184  C     C_R   0.688319 0.876624 0.376624 0.046322
C185  C     C_R   0.811681 0.376624 0.623376 0.046321
C186  C     C_R   0.188319 0.623376 0.376624 0.046321
C187  C     C_R   0.623376 0.376624 0.188319 0.046321
C188  C     C_R   0.376624 0.623376 0.811680 0.046322
C189  C     C_R   0.188319 0.376624 0.376624 0.046324
C190  C     C_R   0.301117 0.198883 0.566922 0.555172
C191  C     C_R   0.811681 0.623376 0.623376 0.046321
C192  C     C_R   0.376624 0.376624 0.811680 0.046322
C193  C     C_R   0.623376 0.623376 0.188319 0.046322
C194  C     C_R   0.811681 0.623376 0.376624 0.046323
C195  C     C_R   0.188319 0.376624 0.623376 0.046322
C196  C     C_R   0.623376 0.623376 0.811680 0.046322
C197  C     C_R   0.376624 0.376624 0.188319 0.046322
C198  C     C_R   0.188319 0.623376 0.623376 0.046321
C199  C     C_R   0.811681 0.376624 0.376624 0.046322
C200  C     C_R   0.376624 0.623376 0.188319 0.046322
C201  C     C_R   0.698883 0.801117 0.433078 0.555174
C202  C     C_R   0.623376 0.376624 0.811680 0.046321
C203  C     C_R   0.623376 0.188319 0.376624 0.046319
C204  C     C_R   0.376624 0.811681 0.623376 0.046321
C205  C     C_R   0.623376 0.811681 0.623376 0.046322
C206  C     C_R   0.376625 0.188322 0.376619 0.046310
C207  C     C_R   0.376624 0.811681 0.376624 0.046321
C208  C     C_R   0.623376 0.188319 0.623376 0.046322
C209  C     C_R   0.376624 0.188319 0.623376 0.046326
C210  C     C_R   0.623376 0.811681 0.376624 0.046321
C211  C     C_R   0.566922 0.198883 0.698883 0.555172
C212  C     C_R   0.301117 0.698883 0.066922 0.555172
C213  C     C_R   0.433078 0.801117 0.301117 0.555172
C214  C     C_R   0.698883 0.198883 0.433078 0.555173
C215  C     C_R   0.301117 0.801117 0.566922 0.555173
C216  C     C_R   0.433078 0.801117 0.698883 0.555172
C217  C     C_R   0.566922 0.198883 0.301117 0.555171
C218  C     C_R   0.301117 0.801117 0.433078 0.555172
C219  C     C_R   0.698883 0.198883 0.566922 0.555173
C220  C     C_R   0.566922 0.801117 0.301117 0.555172
C221  C     C_R   0.433078 0.198883 0.698883 0.555172
C222  C     C_R   0.698883 0.801117 0.566922 0.555173
C223  C     C_R   0.698883 0.301117 0.933078 0.555172
C224  C     C_R   0.301118 0.198882 0.433080 0.555126
C225  C     C_R   0.801117 0.301117 0.566922 0.555173
C226  C     C_R   0.198883 0.698883 0.433078 0.555173
C227  C     C_R   0.801117 0.566922 0.698883 0.555173
C228  C     C_R   0.198883 0.433078 0.301117 0.555172
C229  C     C_R   0.801117 0.698883 0.433078 0.555163
C230  C     C_R   0.198883 0.301117 0.566922 0.555175
C231  C     C_R   0.801117 0.433078 0.301117 0.555172
C232  C     C_R   0.198883 0.566922 0.698883 0.555172
C233  C     C_R   0.198883 0.698883 0.566922 0.555173
C234  C     C_R   0.066922 0.698883 0.698883 0.555172
C235  C     C_R   0.801117 0.301117 0.433078 0.555172
C236  C     C_R   0.198883 0.433078 0.698883 0.555172
C237  C     C_R   0.801117 0.566922 0.301117 0.555172
C238  C     C_R   0.198883 0.301117 0.433078 0.555177
C239  C     C_R   0.801117 0.698883 0.566922 0.555172
C240  C     C_R   0.198883 0.566922 0.301117 0.555172
C241  C     C_R   0.801117 0.433078 0.698883 0.555172
C242  C     C_R   0.698883 0.566922 0.198883 0.555172
C243  C     C_R   0.301117 0.433078 0.801116 0.555174
C244  C     C_R   0.433078 0.698883 0.198883 0.555174
C245  C     C_R   0.933078 0.301117 0.301117 0.555172
C246  C     C_R   0.566922 0.301117 0.801117 0.555172
C247  C     C_R   0.301117 0.433078 0.198883 0.555173
C248  C     C_R   0.698883 0.566922 0.801117 0.555172
C249  C     C_R   0.566922 0.301117 0.198883 0.555169
C250  C     C_R   0.433078 0.698883 0.801117 0.555172
C251  C     C_R   0.301117 0.566922 0.801117 0.555173
C252  C     C_R   0.698883 0.433078 0.198883 0.555172
C253  C     C_R   0.566922 0.698883 0.801117 0.555172
C254  C     C_R   0.433078 0.301117 0.198883 0.555164
C255  C     C_R   0.698883 0.433078 0.801117 0.555172
C256  C     C_R   0.698883 0.698883 0.933078 0.555173
C257  C     C_R   0.301117 0.566922 0.198883 0.555172
C258  C     C_R   0.433078 0.301117 0.801117 0.555172
C259  C     C_R   0.566922 0.698883 0.198883 0.555172
C260  C     C_R   0.933078 0.198883 0.801117 0.555172
C261  C     C_R   0.066922 0.801117 0.198883 0.555171
C262  C     C_R   0.801117 0.198883 0.066922 0.555172
C263  C     C_R   0.198883 0.801117 0.933078 0.555172
C264  C     C_R   0.066922 0.198883 0.198883 0.555171
C265  C     C_R   0.933078 0.801117 0.801117 0.555172
C266  C     C_R   0.198883 0.198883 0.933078 0.555173
C267  C     C_R   0.301117 0.301117 0.066921 0.555172
C268  C     C_R   0.801117 0.801117 0.066922 0.555173
C269  C     C_R   0.933078 0.801117 0.198883 0.555170
C270  C     C_R   0.066922 0.198883 0.801117 0.555172
C271  C     C_R   0.801117 0.801116 0.933078 0.555173
C272  C     C_R   0.198883 0.198883 0.066922 0.555174
C273  C     C_R   0.066922 0.801117 0.801117 0.555172
C274  C     C_R   0.933078 0.198883 0.198883 0.555172
C275  C     C_R   0.198883 0.801117 0.066922 0.555172
C276  C     C_R   0.801117 0.198883 0.933078 0.555172
C277  C     C_R   0.801117 0.066922 0.198883 0.555172
C278  C     C_R   0.933078 0.301117 0.698883 0.555172
C279  C     C_R   0.198883 0.933078 0.801117 0.555172
C280  C     C_R   0.801117 0.933078 0.801117 0.555172
C281  C     C_R   0.198883 0.066922 0.198883 0.555172
C282  C     C_R   0.198883 0.933078 0.198883 0.555172
C283  C     C_R   0.801117 0.066922 0.801117 0.555172
C284  C     C_R   0.198883 0.066922 0.801117 0.555172
C285  C     C_R   0.801117 0.933078 0.198883 0.555172
C286  C     C_R   0.830741 0.895767 0.169259 -0.001447
C287  C     C_R   0.169259 0.104233 0.830741 -0.001447
C288  C     C_R   0.169259 0.895767 0.169259 -0.001446
Cu1   Cu    Cu3+1 1.000000 0.784800 0.284800 1.022638
Cu2   Cu    Cu3+1 0.784800 0.715200 0.000000 1.022629
Cu3   Cu    Cu3+1 0.215200 1.000000 0.715200 1.022628
Cu4   Cu    Cu3+1 0.784800 0.000000 0.284800 1.022628
Cu5   Cu    Cu3+1 0.215200 0.715200 0.000000 1.022628
Cu6   Cu    Cu3+1 0.784800 0.284800 0.000000 1.022628
Cu7   Cu    Cu3+1 0.215200 0.000000 0.284800 1.022628
Cu8   Cu    Cu3+1 0.784800 1.000000 0.715200 1.022628
Cu9   Cu    Cu3+1 0.715200 0.000000 0.784800 1.022628
Cu10  Cu    Cu3+1 0.284800 0.000000 0.215200 1.022627
Cu11  Cu    Cu3+1 0.000000 0.715200 0.784800 1.022628
Cu12  Cu    Cu3+1 0.000000 0.215200 0.715200 1.022627
Cu13  Cu    Cu3+1 1.000000 0.284800 0.215200 1.022628
Cu14  Cu    Cu3+1 0.284800 0.000000 0.784800 1.022629
Cu15  Cu    Cu3+1 0.715200 0.000000 0.215200 1.022628
Cu16  Cu    Cu3+1 1.000000 0.284800 0.784800 1.022629
Cu17  Cu    Cu3+1 1.000000 0.715200 0.215200 1.022627
Cu18  Cu    Cu3+1 0.500000 0.284800 0.284800 1.022674
Cu19  Cu    Cu3+1 0.500000 0.715200 0.715200 1.022628
Cu20  Cu    Cu3+1 0.284800 0.284800 0.500000 1.022577
Cu21  Cu    Cu3+1 0.715200 0.715200 0.500000 1.022630
Cu22  Cu    Cu3+1 0.500000 0.284800 0.715200 1.022625
Cu23  Cu    Cu3+1 0.284800 0.784800 0.000000 1.022628
Cu24  Cu    Cu3+1 0.500000 0.715200 0.284800 1.022628
Cu25  Cu    Cu3+1 0.715200 0.284800 0.500000 1.022630
Cu26  Cu    Cu3+1 0.284800 0.715200 0.500000 1.022629
Cu27  Cu    Cu3+1 0.715200 0.500000 0.715200 1.022628
Cu28  Cu    Cu3+1 0.284800 0.500000 0.284800 1.022628
Cu29  Cu    Cu3+1 0.715200 0.500000 0.284800 1.022628
Cu30  Cu    Cu3+1 0.284800 0.500000 0.715200 1.022628
Cu31  Cu    Cu3+1 0.500000 0.784800 0.784800 1.022628
Cu32  Cu    Cu3+1 0.500000 0.215200 0.215200 1.022623
Cu33  Cu    Cu3+1 0.784800 0.784800 0.500000 1.022618
Cu34  Cu    Cu3+1 0.715200 0.215200 0.000000 1.022628
Cu35  Cu    Cu3+1 0.215200 0.215200 0.500000 1.022630
Cu36  Cu    Cu3+1 0.500000 0.784800 0.215200 1.022628
Cu37  Cu    Cu3+1 0.500000 0.215200 0.784800 1.022627
Cu38  Cu    Cu3+1 0.215200 0.784800 0.500000 1.022628
Cu39  Cu    Cu3+1 0.784800 0.215200 0.500000 1.022628
Cu40  Cu    Cu3+1 0.215200 0.500000 0.215200 1.022628
Cu41  Cu    Cu3+1 0.784800 0.500000 0.784800 1.022628
Cu42  Cu    Cu3+1 0.215200 0.500000 0.784800 1.022627
Cu43  Cu    Cu3+1 0.784800 0.500000 0.215200 1.022628
Cu44  Cu    Cu3+1 0.000000 0.784800 0.715200 1.022627
Cu45  Cu    Cu3+1 1.000000 0.215200 0.284800 1.022633
Cu46  Cu    Cu3+1 0.715200 0.784800 0.000000 1.022629
Cu47  Cu    Cu3+1 0.284800 0.215200 0.000000 1.022629
Cu48  Cu    Cu3+1 0.215200 0.284800 0.000000 1.022628
H1    H     H_    0.785362 0.944145 0.098499 0.208586
H2    H     H_    0.214637 0.901501 0.944146 0.208585
H3    H     H_    0.598499 0.055854 0.285362 0.208585
H4    H     H_    0.444146 0.285362 0.901501 0.208587
H5    H     H_    0.401501 0.285363 0.944146 0.208584
H6    H     H_    0.555854 0.714638 0.098499 0.208587
H7    H     H_    0.598499 0.714637 0.055854 0.208585
H8    H     H_    0.401499 0.055855 0.285360 0.208590
H9    H     H_    0.444144 0.098499 0.285363 0.208582
H10   H     H_    0.555854 0.901501 0.714637 0.208585
H11   H     H_    0.598499 0.944146 0.714638 0.208586
H12   H     H_    0.401501 0.714637 0.055854 0.208586
H13   H     H_    0.785363 0.055854 0.098499 0.208586
H14   H     H_    0.444146 0.714637 0.098499 0.208586
H15   H     H_    0.555854 0.285363 0.901501 0.208585
H16   H     H_    0.598499 0.285362 0.944146 0.208586
H17   H     H_    0.901493 0.714652 0.444144 0.208617
H18   H     H_    0.944146 0.714624 0.401508 0.208557
H19   H     H_    0.098499 0.285362 0.555854 0.208584
H20   H     H_    0.055854 0.285362 0.598499 0.208586
H21   H     H_    0.285363 0.901501 0.444146 0.208585
H22   H     H_    0.285362 0.944146 0.401501 0.208586
H23   H     H_    0.714637 0.098499 0.555854 0.208585
H24   H     H_    0.785363 0.098499 0.055854 0.208585
H25   H     H_    0.714638 0.055854 0.598499 0.208586
H26   H     H_    0.098502 0.285356 0.444145 0.208599
H27   H     H_    0.055854 0.285370 0.401504 0.208571
H28   H     H_    0.901501 0.714637 0.555854 0.208582
H29   H     H_    0.944146 0.714638 0.598499 0.208587
H30   H     H_    0.714638 0.055854 0.401501 0.208585
H31   H     H_    0.714638 0.098499 0.444146 0.208586
H32   H     H_    0.285363 0.901501 0.555854 0.208585
H33   H     H_    0.285362 0.944145 0.598499 0.208586
H34   H     H_    0.098499 0.714637 0.555854 0.208585
H35   H     H_    0.901501 0.944146 0.785362 0.208586
H36   H     H_    0.055854 0.714638 0.598499 0.208586
H37   H     H_    0.901501 0.285362 0.444146 0.208586
H38   H     H_    0.944146 0.285363 0.401501 0.208587
H39   H     H_    0.714637 0.901501 0.555854 0.208585
H40   H     H_    0.714638 0.944146 0.598499 0.208587
H41   H     H_    0.285365 0.098498 0.444148 0.208586
H42   H     H_    0.285364 0.055853 0.401502 0.208585
H43   H     H_    0.901501 0.285363 0.555854 0.208585
H44   H     H_    0.944146 0.285362 0.598499 0.208586
H45   H     H_    0.055854 0.714637 0.401501 0.208588
H46   H     H_    0.944146 0.901501 0.785362 0.208586
H47   H     H_    0.098499 0.714637 0.444146 0.208585
H48   H     H_    0.285363 0.098499 0.555854 0.208585
H49   H     H_    0.285363 0.055854 0.598499 0.208585
H50   H     H_    0.714637 0.901501 0.444146 0.208586
H51   H     H_    0.714637 0.944146 0.401501 0.208586
H52   H     H_    0.785362 0.444146 0.598499 0.208586
H53   H     H_    0.785363 0.401501 0.555854 0.208585
H54   H     H_    0.214637 0.598499 0.444146 0.208584
H55   H     H_    0.214638 0.555854 0.401501 0.208586
H56   H     H_    0.598499 0.444146 0.214637 0.208586
H57   H     H_    0.098499 0.055854 0.214638 0.208586
H58   H     H_    0.555854 0.401501 0.214637 0.208585
H59   H     H_    0.444146 0.598499 0.785362 0.208585
H60   H     H_    0.401501 0.555854 0.785363 0.208585
H61   H     H_    0.214637 0.401501 0.444146 0.208585
H62   H     H_    0.214638 0.444146 0.401501 0.208587
H63   H     H_    0.785363 0.555854 0.598499 0.208585
H64   H     H_    0.785362 0.598499 0.555854 0.208586
H65   H     H_    0.444146 0.401501 0.785362 0.208586
H66   H     H_    0.401501 0.444146 0.785363 0.208585
H67   H     H_    0.598499 0.555854 0.214637 0.208586
H68   H     H_    0.055854 0.098498 0.214638 0.208585
H69   H     H_    0.555854 0.598499 0.214638 0.208586
H70   H     H_    0.785363 0.598499 0.444146 0.208585
H71   H     H_    0.785362 0.555854 0.401501 0.208587
H72   H     H_    0.214638 0.444146 0.598499 0.208587
H73   H     H_    0.214637 0.401501 0.555854 0.208585
H74   H     H_    0.598499 0.555854 0.785362 0.208586
H75   H     H_    0.555854 0.598499 0.785362 0.208586
H76   H     H_    0.444146 0.401501 0.214638 0.208586
H77   H     H_    0.401501 0.444146 0.214637 0.208584
H78   H     H_    0.214638 0.555854 0.598499 0.208586
H79   H     H_    0.785362 0.055854 0.901501 0.208585
H80   H     H_    0.214637 0.598499 0.555854 0.208585
H81   H     H_    0.785363 0.401501 0.444146 0.208585
H82   H     H_    0.785362 0.444146 0.401501 0.208586
H83   H     H_    0.444146 0.598498 0.214636 0.208583
H84   H     H_    0.401501 0.555854 0.214638 0.208587
H85   H     H_    0.598499 0.444146 0.785362 0.208586
H86   H     H_    0.555854 0.401501 0.785362 0.208585
H87   H     H_    0.598499 0.214636 0.444146 0.208583
H88   H     H_    0.555854 0.214638 0.401501 0.208598
H89   H     H_    0.444146 0.785362 0.598499 0.208587
H90   H     H_    0.785363 0.098499 0.944146 0.208586
H91   H     H_    0.401501 0.785363 0.555854 0.208585
H92   H     H_    0.555854 0.785363 0.598499 0.208586
H93   H     H_    0.598499 0.785362 0.555854 0.208586
H94   H     H_    0.401461 0.214714 0.444138 0.208728
H95   H     H_    0.444151 0.214574 0.401529 0.208422
H96   H     H_    0.401501 0.785362 0.444146 0.208586
H97   H     H_    0.444146 0.785362 0.401501 0.208585
H98   H     H_    0.555854 0.214638 0.598499 0.208586
H99   H     H_    0.598499 0.214637 0.555854 0.208585
H100  H     H_    0.444146 0.214638 0.598499 0.208589
H101  H     H_    0.214637 0.944146 0.098499 0.208585
H102  H     H_    0.401501 0.214637 0.555854 0.208567
H103  H     H_    0.598499 0.785363 0.444146 0.208584
H104  H     H_    0.555854 0.785362 0.401501 0.208587
H105  H     H_    0.785363 0.901501 0.055854 0.208584
H106  H     H_    0.214637 0.901501 0.055854 0.208586
H107  H     H_    0.098499 0.055854 0.785362 0.208586
H108  H     H_    0.055854 0.098499 0.785362 0.208586
H109  H     H_    0.901501 0.944146 0.214637 0.208586
H110  H     H_    0.944146 0.901501 0.214638 0.208586
H111  H     H_    0.214638 0.055854 0.098499 0.208587
H112  H     H_    0.214637 0.098499 0.055854 0.208584
H113  H     H_    0.785362 0.944146 0.901501 0.208587
H114  H     H_    0.785363 0.901501 0.944146 0.208585
H115  H     H_    0.901501 0.055854 0.214637 0.208586
H116  H     H_    0.214638 0.055854 0.901501 0.208586
H117  H     H_    0.944146 0.098499 0.214637 0.208585
H118  H     H_    0.098499 0.944146 0.785362 0.208586
H119  H     H_    0.055854 0.901501 0.785362 0.208586
H120  H     H_    0.055854 0.214638 0.901501 0.208586
H121  H     H_    0.098499 0.214637 0.944146 0.208584
H122  H     H_    0.944146 0.785362 0.098499 0.208586
H123  H     H_    0.901501 0.785363 0.055854 0.208584
H124  H     H_    0.055854 0.785363 0.098499 0.208586
H125  H     H_    0.098499 0.785362 0.055854 0.208586
H126  H     H_    0.944146 0.214637 0.901501 0.208585
H127  H     H_    0.214637 0.098499 0.944146 0.208585
H128  H     H_    0.901501 0.214638 0.944146 0.208586
H129  H     H_    0.944145 0.785362 0.901501 0.208587
H130  H     H_    0.901501 0.785363 0.944146 0.208584
H131  H     H_    0.055854 0.214638 0.098499 0.208587
H132  H     H_    0.098499 0.214637 0.055854 0.208585
H133  H     H_    0.944146 0.214637 0.098499 0.208585
H134  H     H_    0.901501 0.214638 0.055854 0.208586
H135  H     H_    0.055854 0.785363 0.901501 0.208585
H136  H     H_    0.098499 0.785362 0.944146 0.208586
H137  H     H_    0.285362 0.401501 0.055854 0.208586
H138  H     H_    0.098499 0.944146 0.214637 0.208585
H139  H     H_    0.285363 0.444146 0.098499 0.208585
H140  H     H_    0.714638 0.555854 0.901501 0.208586
H141  H     H_    0.714637 0.598499 0.944146 0.208585
H142  H     H_    0.055854 0.401502 0.714636 0.208584
H143  H     H_    0.098499 0.444146 0.714638 0.208587
H144  H     H_    0.901501 0.555854 0.285362 0.208586
H145  H     H_    0.944146 0.598499 0.285363 0.208585
H146  H     H_    0.714637 0.444146 0.901501 0.208586
H147  H     H_    0.714637 0.401501 0.944146 0.208585
H148  H     H_    0.285362 0.555854 0.098499 0.208587
H149  H     H_    0.055854 0.901501 0.214637 0.208585
H150  H     H_    0.285363 0.598499 0.055854 0.208584
H151  H     H_    0.901501 0.444146 0.285362 0.208585
H152  H     H_    0.944145 0.401501 0.285362 0.208586
H153  H     H_    0.098499 0.555854 0.714638 0.208585
H154  H     H_    0.055854 0.598499 0.714637 0.208585
H155  H     H_    0.285363 0.555854 0.901501 0.208584
H156  H     H_    0.285362 0.598499 0.944146 0.208586
H157  H     H_    0.714637 0.444146 0.098499 0.208585
H158  H     H_    0.714637 0.401501 0.055854 0.208586
H159  H     H_    0.098499 0.555854 0.285363 0.208586
H160  H     H_    0.901501 0.055854 0.785362 0.208586
H161  H     H_    0.055854 0.598499 0.285362 0.208585
H162  H     H_    0.901501 0.444146 0.714638 0.208586
H163  H     H_    0.944146 0.401501 0.714637 0.208586
H164  H     H_    0.714638 0.555854 0.098499 0.208587
H165  H     H_    0.714637 0.598499 0.055854 0.208585
H166  H     H_    0.285363 0.401501 0.944145 0.208585
H167  H     H_    0.285362 0.444146 0.901501 0.208586
H168  H     H_    0.901501 0.555854 0.714637 0.208585
H169  H     H_    0.944145 0.598499 0.714638 0.208587
H170  H     H_    0.098499 0.444145 0.285362 0.208586
H171  H     H_    0.944146 0.098499 0.785362 0.208585
H172  H     H_    0.055855 0.401501 0.285363 0.208584
H173  H     H_    0.555854 0.098499 0.714638 0.208586
H174  H     H_    0.598499 0.055854 0.714637 0.208585
H175  H     H_    0.401501 0.944146 0.285362 0.208585
H176  H     H_    0.444146 0.901501 0.285362 0.208586
H177  H     H_    0.555854 0.714638 0.901501 0.208586
H178  H     H_    0.598499 0.714637 0.944146 0.208584
H179  H     H_    0.444146 0.285362 0.098499 0.208586
H180  H     H_    0.401501 0.285363 0.055854 0.208585
H181  H     H_    0.555854 0.901501 0.285362 0.208586
H182  H     H_    0.214637 0.944146 0.901501 0.208586
H183  H     H_    0.598499 0.944146 0.285363 0.208585
H184  H     H_    0.401502 0.055854 0.714636 0.208584
H185  H     H_    0.444146 0.098499 0.714638 0.208587
H186  H     H_    0.555854 0.285363 0.098499 0.208586
H187  H     H_    0.598499 0.285362 0.055854 0.208586
H188  H     H_    0.444146 0.714637 0.901501 0.208585
H189  H     H_    0.401501 0.714637 0.944146 0.208585
H190  H     H_    0.444146 0.901501 0.714638 0.208586
H191  H     H_    0.401501 0.944146 0.714637 0.208585
H192  H     H_    0.555854 0.098499 0.285362 0.208586
N1    N     N_3   0.776626 0.906047 0.093953 -0.549929
N2    N     N_3   0.223374 0.906047 0.093953 -0.549930
N3    N     N_3   0.093953 0.093953 0.776626 -0.549930
N4    N     N_3   0.906047 0.906047 0.223374 -0.549930
N5    N     N_3   0.223374 0.093953 0.093953 -0.549929
N6    N     N_3   0.776626 0.906047 0.906047 -0.549930
N7    N     N_3   0.906047 0.093953 0.223374 -0.549930
N8    N     N_3   0.093953 0.906047 0.776626 -0.549930
N9    N     N_3   0.093953 0.223374 0.906047 -0.549929
N10   N     N_3   0.906047 0.776626 0.093953 -0.549929
N11   N     N_3   0.093953 0.776626 0.093953 -0.549930
N12   N     N_3   0.223374 0.093953 0.906047 -0.549929
N13   N     N_3   0.906047 0.223374 0.906047 -0.549930
N14   N     N_3   0.906047 0.776626 0.906047 -0.549929
N15   N     N_3   0.093953 0.223374 0.093953 -0.549930
N16   N     N_3   0.906047 0.223374 0.093953 -0.549930
N17   N     N_3   0.093953 0.776626 0.906047 -0.549930
N18   N     N_3   0.276626 0.406047 0.093953 -0.549929
N19   N     N_3   0.723374 0.593953 0.906047 -0.549929
N20   N     N_3   0.093952 0.406047 0.723373 -0.549930
N21   N     N_3   0.906047 0.593953 0.276626 -0.549930
N22   N     N_3   0.723374 0.406047 0.906047 -0.549930
N23   N     N_3   0.093953 0.906047 0.223374 -0.549929
N24   N     N_3   0.276626 0.593953 0.093953 -0.549930
N25   N     N_3   0.906047 0.406047 0.276626 -0.549929
N26   N     N_3   0.093953 0.593953 0.723374 -0.549929
N27   N     N_3   0.276626 0.593953 0.906047 -0.549929
N28   N     N_3   0.723374 0.406047 0.093953 -0.549930
N29   N     N_3   0.093953 0.593953 0.276626 -0.549929
N30   N     N_3   0.906047 0.406047 0.723374 -0.549929
N31   N     N_3   0.723374 0.593953 0.093953 -0.549930
N32   N     N_3   0.276626 0.406047 0.906047 -0.549930
N33   N     N_3   0.906047 0.593953 0.723374 -0.549931
N34   N     N_3   0.906047 0.093953 0.776626 -0.549929
N35   N     N_3   0.093953 0.406047 0.276626 -0.549929
N36   N     N_3   0.593953 0.093953 0.723374 -0.549929
N37   N     N_3   0.406047 0.906047 0.276626 -0.549929
N38   N     N_3   0.593953 0.723374 0.906047 -0.549929
N39   N     N_3   0.406047 0.276626 0.093952 -0.549929
N40   N     N_3   0.593953 0.906047 0.276626 -0.549930
N41   N     N_3   0.406047 0.093952 0.723373 -0.549931
N42   N     N_3   0.593953 0.276626 0.093953 -0.549930
N43   N     N_3   0.406047 0.723374 0.906047 -0.549929
N44   N     N_3   0.406047 0.906047 0.723374 -0.549929
N45   N     N_3   0.223374 0.906047 0.906047 -0.549930
N46   N     N_3   0.593953 0.093953 0.276626 -0.549929
N47   N     N_3   0.406047 0.276626 0.906047 -0.549930
N48   N     N_3   0.593953 0.723374 0.093953 -0.549930
N49   N     N_3   0.406046 0.093954 0.276624 -0.549930
N50   N     N_3   0.593953 0.906047 0.723374 -0.549929
N51   N     N_3   0.406047 0.723374 0.093953 -0.549930
N52   N     N_3   0.593953 0.276626 0.906047 -0.549930
N53   N     N_3   0.906050 0.723374 0.406044 -0.549932
N54   N     N_3   0.093953 0.276626 0.593953 -0.549931
N55   N     N_3   0.276626 0.906047 0.406047 -0.549929
N56   N     N_3   0.776626 0.093953 0.093953 -0.549930
N57   N     N_3   0.723374 0.093953 0.593953 -0.549930
N58   N     N_3   0.093951 0.276626 0.406046 -0.549932
N59   N     N_3   0.906047 0.723374 0.593953 -0.549931
N60   N     N_3   0.723374 0.093953 0.406047 -0.549930
N61   N     N_3   0.276626 0.906047 0.593953 -0.549930
N62   N     N_3   0.093953 0.723374 0.593953 -0.549929
N63   N     N_3   0.906047 0.276626 0.406047 -0.549929
N64   N     N_3   0.723374 0.906047 0.593953 -0.549930
N65   N     N_3   0.276628 0.093952 0.406049 -0.549929
N66   N     N_3   0.906047 0.276626 0.593953 -0.549929
N67   N     N_3   0.906047 0.906047 0.776626 -0.549930
N68   N     N_3   0.093953 0.723374 0.406047 -0.549929
N69   N     N_3   0.276626 0.093953 0.593953 -0.549929
N70   N     N_3   0.723374 0.906047 0.406047 -0.549931
N71   N     N_3   0.776626 0.406047 0.593953 -0.549929
N72   N     N_3   0.223374 0.593953 0.406047 -0.549929
N73   N     N_3   0.593953 0.406047 0.223374 -0.549930
N74   N     N_3   0.406047 0.593953 0.776626 -0.549929
N75   N     N_3   0.223373 0.406047 0.406048 -0.549930
N76   N     N_3   0.776626 0.593953 0.593953 -0.549930
N77   N     N_3   0.406047 0.406047 0.776626 -0.549929
N78   N     N_3   0.093952 0.093952 0.223374 -0.549931
N79   N     N_3   0.593953 0.593953 0.223374 -0.549930
N80   N     N_3   0.776627 0.593953 0.406048 -0.549930
N81   N     N_3   0.223374 0.406047 0.593953 -0.549930
N82   N     N_3   0.593953 0.593953 0.776626 -0.549930
N83   N     N_3   0.406047 0.406047 0.223374 -0.549929
N84   N     N_3   0.223374 0.593953 0.593953 -0.549929
N85   N     N_3   0.776626 0.406047 0.406047 -0.549929
N86   N     N_3   0.406048 0.593953 0.223374 -0.549930
N87   N     N_3   0.593953 0.406047 0.776626 -0.549930
N88   N     N_3   0.593953 0.223374 0.406047 -0.549928
N89   N     N_3   0.776626 0.093953 0.906047 -0.549930
N90   N     N_3   0.406047 0.776626 0.593953 -0.549930
N91   N     N_3   0.593953 0.776626 0.593953 -0.549930
N92   N     N_3   0.406057 0.223382 0.406026 -0.549864
N93   N     N_3   0.406047 0.776626 0.406047 -0.549929
N94   N     N_3   0.593953 0.223374 0.593953 -0.549930
N95   N     N_3   0.406047 0.223374 0.593953 -0.549934
N96   N     N_3   0.593953 0.776626 0.406047 -0.549929
O1    O     O_R   0.947350 0.816370 0.242430 -0.489303
O2    O     O_R   0.052650 0.816370 0.242430 -0.489302
O3    O     O_R   0.257570 0.183630 0.447350 -0.489266
O4    O     O_R   0.552650 0.816370 0.257570 -0.489301
O5    O     O_R   0.447350 0.183630 0.742430 -0.489302
O6    O     O_R   0.257570 0.816370 0.447350 -0.489301
O7    O     O_R   0.742430 0.183630 0.552650 -0.489302
O8    O     O_R   0.447350 0.183630 0.257570 -0.489331
O9    O     O_R   0.552650 0.816370 0.742430 -0.489301
O10   O     O_R   0.742430 0.183630 0.447350 -0.489302
O11   O     O_R   0.257570 0.816370 0.552650 -0.489302
O12   O     O_R   0.552650 0.183630 0.742430 -0.489302
O13   O     O_R   0.242430 0.183630 0.947350 -0.489301
O14   O     O_R   0.447350 0.816370 0.257570 -0.489301
O15   O     O_R   0.257570 0.183630 0.552650 -0.489298
O16   O     O_R   0.742430 0.816370 0.447350 -0.489299
O17   O     O_R   0.183630 0.742430 0.552650 -0.489302
O18   O     O_R   0.816370 0.257570 0.447350 -0.489301
O19   O     O_R   0.183630 0.552650 0.257570 -0.489301
O20   O     O_R   0.816370 0.447350 0.742430 -0.489301
O21   O     O_R   0.183630 0.257570 0.447350 -0.489307
O22   O     O_R   0.816370 0.742430 0.552650 -0.489303
O23   O     O_R   0.183630 0.447350 0.742430 -0.489302
O24   O     O_R   0.757570 0.816370 0.052650 -0.489301
O25   O     O_R   0.816370 0.552650 0.257570 -0.489302
O26   O     O_R   0.816370 0.257570 0.552650 -0.489302
O27   O     O_R   0.183630 0.742430 0.447350 -0.489302
O28   O     O_R   0.816370 0.447350 0.257570 -0.489301
O29   O     O_R   0.183630 0.552650 0.742430 -0.489302
O30   O     O_R   0.816370 0.742430 0.447350 -0.489324
O31   O     O_R   0.183630 0.257570 0.552650 -0.489301
O32   O     O_R   0.816370 0.552650 0.742430 -0.489301
O33   O     O_R   0.183630 0.447350 0.257570 -0.489302
O34   O     O_R   0.257570 0.552650 0.816370 -0.489301
O35   O     O_R   0.052650 0.183630 0.242430 -0.489301
O36   O     O_R   0.742430 0.447350 0.183630 -0.489301
O37   O     O_R   0.447350 0.257570 0.816370 -0.489302
O38   O     O_R   0.552650 0.742430 0.183630 -0.489302
O39   O     O_R   0.742430 0.447350 0.816370 -0.489301
O40   O     O_R   0.257570 0.552650 0.183630 -0.489302
O41   O     O_R   0.552650 0.742430 0.816370 -0.489302
O42   O     O_R   0.447350 0.257570 0.183630 -0.489306
O43   O     O_R   0.742430 0.552650 0.183630 -0.489302
O44   O     O_R   0.257570 0.447350 0.816370 -0.489302
O45   O     O_R   0.552650 0.257570 0.183630 -0.489302
O46   O     O_R   0.947350 0.816370 0.757570 -0.489301
O47   O     O_R   0.447350 0.742430 0.816370 -0.489301
O48   O     O_R   0.257570 0.447350 0.183630 -0.489301
O49   O     O_R   0.742430 0.552650 0.816370 -0.489302
O50   O     O_R   0.447350 0.742430 0.183630 -0.489302
O51   O     O_R   0.552650 0.257570 0.816370 -0.489301
O52   O     O_R   0.947350 0.316370 0.742430 -0.489301
O53   O     O_R   0.052650 0.683630 0.257570 -0.489302
O54   O     O_R   0.742430 0.316370 0.052650 -0.489301
O55   O     O_R   0.257570 0.683630 0.947350 -0.489302
O56   O     O_R   0.052650 0.316370 0.257570 -0.489305
O57   O     O_R   0.757570 0.183630 0.052650 -0.489301
O58   O     O_R   0.947350 0.683630 0.742430 -0.489302
O59   O     O_R   0.257570 0.316370 0.947350 -0.489302
O60   O     O_R   0.742430 0.683630 0.052650 -0.489302
O61   O     O_R   0.947350 0.683630 0.257570 -0.489307
O62   O     O_R   0.052650 0.316370 0.742430 -0.489300
O63   O     O_R   0.742430 0.683630 0.947350 -0.489301
O64   O     O_R   0.257570 0.316370 0.052650 -0.489302
O65   O     O_R   0.052650 0.683630 0.742430 -0.489301
O66   O     O_R   0.947350 0.316370 0.257570 -0.489302
O67   O     O_R   0.257570 0.683630 0.052650 -0.489300
O68   O     O_R   0.242430 0.816370 0.947350 -0.489301
O69   O     O_R   0.742430 0.316370 0.947350 -0.489301
O70   O     O_R   0.683630 0.742430 0.052650 -0.489302
O71   O     O_R   0.316370 0.257570 0.947350 -0.489301
O72   O     O_R   0.683630 0.052650 0.257570 -0.489301
O73   O     O_R   0.316370 0.947350 0.742430 -0.489301
O74   O     O_R   0.683630 0.257570 0.947350 -0.489302
O75   O     O_R   0.316370 0.742430 0.052650 -0.489302
O76   O     O_R   0.683630 0.947350 0.742430 -0.489301
O77   O     O_R   0.316370 0.052650 0.257570 -0.489303
O78   O     O_R   0.316370 0.257570 0.052650 -0.489301
O79   O     O_R   0.183630 0.242430 0.052650 -0.489301
O80   O     O_R   0.683630 0.742430 0.947350 -0.489302
O81   O     O_R   0.316370 0.947350 0.257570 -0.489302
O82   O     O_R   0.683630 0.052650 0.742430 -0.489301
O83   O     O_R   0.316370 0.742430 0.947350 -0.489301
O84   O     O_R   0.683630 0.257570 0.052650 -0.489302
O85   O     O_R   0.316370 0.052650 0.742430 -0.489300
O86   O     O_R   0.683630 0.947350 0.257570 -0.489302
O87   O     O_R   0.257570 0.052650 0.316370 -0.489302
O88   O     O_R   0.742430 0.947350 0.683630 -0.489302
O89   O     O_R   0.947350 0.257570 0.316370 -0.489300
O90   O     O_R   0.816370 0.757570 0.947350 -0.489302
O91   O     O_R   0.052650 0.742430 0.683630 -0.489302
O92   O     O_R   0.742430 0.947350 0.316370 -0.489302
O93   O     O_R   0.257570 0.052650 0.683630 -0.489302
O94   O     O_R   0.052650 0.742430 0.316370 -0.489300
O95   O     O_R   0.947350 0.257570 0.683630 -0.489302
O96   O     O_R   0.742430 0.052650 0.683630 -0.489302
O97   O     O_R   0.257570 0.947350 0.316370 -0.489301
O98   O     O_R   0.052650 0.257570 0.683630 -0.489302
O99   O     O_R   0.947350 0.742430 0.316370 -0.489280
O100  O     O_R   0.257570 0.947350 0.683630 -0.489302
O101  O     O_R   0.183630 0.052650 0.757570 -0.489301
O102  O     O_R   0.742430 0.052650 0.316370 -0.489301
O103  O     O_R   0.947350 0.742430 0.683630 -0.489302
O104  O     O_R   0.052650 0.257570 0.316370 -0.489291
O105  O     O_R   0.052650 0.183630 0.757570 -0.489302
O106  O     O_R   0.816370 0.947350 0.242430 -0.489301
O107  O     O_R   0.183630 0.757570 0.947350 -0.489302
O108  O     O_R   0.816370 0.242430 0.052650 -0.489302
O109  O     O_R   0.183630 0.947350 0.242430 -0.489301
O110  O     O_R   0.816370 0.052650 0.757570 -0.489301
O111  O     O_R   0.816370 0.757570 0.052650 -0.489302
O112  O     O_R   0.183630 0.242430 0.947350 -0.489301
O113  O     O_R   0.816370 0.947350 0.757570 -0.489301
O114  O     O_R   0.183630 0.052650 0.242430 -0.489302
O115  O     O_R   0.816370 0.242430 0.947350 -0.489302
O116  O     O_R   0.242430 0.816370 0.052650 -0.489301
O117  O     O_R   0.183630 0.757570 0.052650 -0.489302
O118  O     O_R   0.816370 0.052650 0.242430 -0.489301
O119  O     O_R   0.183630 0.947350 0.757570 -0.489301
O120  O     O_R   0.757570 0.052650 0.816370 -0.489302
O121  O     O_R   0.242430 0.947350 0.183630 -0.489301
O122  O     O_R   0.947350 0.757570 0.816370 -0.489302
O123  O     O_R   0.052650 0.242430 0.183630 -0.489302
O124  O     O_R   0.242430 0.947350 0.816370 -0.489302
O125  O     O_R   0.757570 0.052650 0.183630 -0.489301
O126  O     O_R   0.052650 0.242430 0.816370 -0.489302
O127  O     O_R   0.757570 0.183630 0.947350 -0.489301
O128  O     O_R   0.947350 0.757570 0.183630 -0.489302
O129  O     O_R   0.242430 0.052650 0.183630 -0.489301
O130  O     O_R   0.757570 0.947350 0.816370 -0.489302
O131  O     O_R   0.052650 0.757570 0.183630 -0.489301
O132  O     O_R   0.947350 0.242430 0.816370 -0.489301
O133  O     O_R   0.757570 0.947350 0.183630 -0.489302
O134  O     O_R   0.242430 0.052650 0.816370 -0.489302
O135  O     O_R   0.947350 0.242430 0.183630 -0.489301
O136  O     O_R   0.052650 0.757570 0.816370 -0.489301
O137  O     O_R   0.447350 0.316370 0.242430 -0.489309
O138  O     O_R   0.052650 0.816370 0.757570 -0.489301
O139  O     O_R   0.552650 0.683630 0.757570 -0.489302
O140  O     O_R   0.242430 0.316370 0.552650 -0.489296
O141  O     O_R   0.757570 0.683630 0.447350 -0.489294
O142  O     O_R   0.552650 0.316370 0.757570 -0.489301
O143  O     O_R   0.447350 0.683630 0.242430 -0.489300
O144  O     O_R   0.757570 0.316370 0.447350 -0.489301
O145  O     O_R   0.242430 0.683630 0.552650 -0.489302
O146  O     O_R   0.447350 0.683630 0.757570 -0.489301
O147  O     O_R   0.552650 0.316370 0.242430 -0.489306
O148  O     O_R   0.242430 0.683630 0.447350 -0.489301
O149  O     O_R   0.947350 0.183630 0.242430 -0.489302
O150  O     O_R   0.757570 0.316370 0.552650 -0.489302
O151  O     O_R   0.552650 0.683630 0.242430 -0.489301
O152  O     O_R   0.447350 0.316370 0.757570 -0.489302
O153  O     O_R   0.757570 0.683630 0.552650 -0.489301
O154  O     O_R   0.242430 0.316370 0.447350 -0.489287
O155  O     O_R   0.683630 0.242430 0.552650 -0.489301
O156  O     O_R   0.316370 0.757570 0.447350 -0.489302
O157  O     O_R   0.683630 0.552650 0.757570 -0.489301
O158  O     O_R   0.316370 0.447350 0.242430 -0.489301
O159  O     O_R   0.683630 0.757570 0.447350 -0.489300
O160  O     O_R   0.757570 0.816370 0.947350 -0.489301
O161  O     O_R   0.316370 0.242430 0.552650 -0.489310
O162  O     O_R   0.683630 0.447350 0.242430 -0.489301
O163  O     O_R   0.316370 0.552650 0.757570 -0.489301
O164  O     O_R   0.316370 0.757570 0.552650 -0.489301
O165  O     O_R   0.683630 0.242430 0.447350 -0.489300
O166  O     O_R   0.316370 0.447350 0.757570 -0.489301
O167  O     O_R   0.683630 0.552650 0.242430 -0.489301
O168  O     O_R   0.316370 0.242430 0.447350 -0.489415
O169  O     O_R   0.683630 0.757570 0.552650 -0.489301
O170  O     O_R   0.316370 0.552650 0.242430 -0.489303
O171  O     O_R   0.242430 0.183630 0.052650 -0.489301
O172  O     O_R   0.683630 0.447350 0.757570 -0.489301
O173  O     O_R   0.757570 0.552650 0.316370 -0.489303
O174  O     O_R   0.242430 0.447350 0.683630 -0.489302
O175  O     O_R   0.447350 0.757570 0.316370 -0.489302
O176  O     O_R   0.552650 0.242430 0.683630 -0.489302
O177  O     O_R   0.242430 0.447350 0.316370 -0.489302
O178  O     O_R   0.757570 0.552650 0.683630 -0.489302
O179  O     O_R   0.552650 0.242430 0.316370 -0.489295
O180  O     O_R   0.447350 0.757570 0.683630 -0.489302
O181  O     O_R   0.242430 0.552650 0.683630 -0.489302
O182  O     O_R   0.947350 0.183630 0.757570 -0.489301
O183  O     O_R   0.757570 0.447350 0.316370 -0.489302
O184  O     O_R   0.552650 0.757570 0.683630 -0.489301
O185  O     O_R   0.447350 0.242430 0.316370 -0.489201
O186  O     O_R   0.757570 0.447350 0.683630 -0.489302
O187  O     O_R   0.242430 0.552650 0.316370 -0.489302
O188  O     O_R   0.447350 0.242430 0.683630 -0.489303
O189  O     O_R   0.552650 0.757570 0.316370 -0.489302
O190  O     O_R   0.447350 0.816370 0.742430 -0.489302
O191  O     O_R   0.552650 0.183630 0.257570 -0.489304
O192  O     O_R   0.742430 0.816370 0.552650 -0.489300

loop_
_geom_bond_atom_site_label_1
_geom_bond_atom_site_label_2
_ccdc_geom_bond_type
Cu23  O116  S    
C112  O62   A    
C73   C206  A    
C224  O3    A    
C79   O85   A    
C272  O79   A    
Cu35  O15   S    
H167  N32   S    
C278  O52   A    
H181  N40   S    
H40   N64   S    
C193  N79   S    
Cu3   O100  S    
C6    C280  S    
C126  N11   S    
C25   C268  S    
C282  O109  A    
C25   C105  A    
C88   C177  A    
C83   C154  A    
C116  N2    S    
C87   C176  A    
Cu20  O140  S    
C221  O5    A    
Cu13  O66   S    
C262  O108  A    
C279  O124  A    
C282  O121  A    
C285  O106  A    
Cu42  O29   S    
C251  O163  A    
C81   C178  A    
C151  N37   S    
C74   C225  S    
C254  O137  A    
Cu28  O170  S    
C240  O187  A    
Cu1   Cu17  S    
C224  O168  A    
H16   N52   S    
C28   C195  A    
Cu2   O111  S    
C239  O153  A    
H27   N58   S    
H95   N92   S    
C6    C120  A    
C26   C197  A    
C36   C142  A    
C147  N32   S    
C135  O77   A    
H56   N73   S    
Cu43  O43   S    
H188  N43   S    
C21   C263  S    
H176  N37   S    
Cu6   Cu34  S    
C244  O143  A    
H20   N54   S    
C255  O172  A    
C119  N5    S    
Cu34  O84   S    
H23   N57   S    
C148  N33   S    
C2    O94   A    
C281  O129  A    
C8    C264  S    
C33   C232  S    
C43   C211  S    
C20   C129  A    
C106  N12   S    
H10   N50   S    
C8    C114  A    
Cu9   O130  S    
C39   C242  S    
Cu22  O152  S    
H165  N31   S    
C80   C146  S    
C167  N53   S    
C58   C164  A    
Cu19  O180  S    
C14   C121  A    
H143  N20   S    
C22   C130  A    
C103  C256  S    
H154  N26   S    
H183  N40   S    
Cu38  O6    S    
H81   N85   S    
C244  O50   A    
H101  N2    S    
Cu47  O71   S    
C30   C202  A    
Cu13  O56   S    
C219  O7    A    
C9    C128  A    
Cu36  O38   S    
C175  N61   S    
C24   O70   A    
C106  C287  A    
C7    C119  A    
C283  O120  A    
H98   N94   S    
Cu19  Cu31  S    
C32   C139  A    
H178  N38   S    
Cu26  O156  S    
C74   C181  A    
C247  O158  A    
C17   C127  A    
C19   C271  S    
C57   O84   A    
C58   C205  A    
Cu40  O40   S    
Cu18  O179  S    
C89   C143  A    
H134  N16   S    
C260  O132  A    
C46   O58   A    
C222  O192  A    
Cu6   O115  S    
C178  N64   S    
H31   N60   S    
C12   C273  S    
C91   C278  S    
C85   C151  A    
H41   N65   S    
H184  N41   S    
H5    N47   S    
C99   C162  A    
Cu23  O68   S    
Cu39  O10   S    
C31   C200  A    
C256  O80   A    
C40   C192  A    
C117  N3    S    
C228  O177  A    
Cu35  O31   S    
C39   C145  A    
C4    C122  A    
H24   N56   S    
Cu1   O2    S    
H15   N52   S    
C200  N86   S    
C103  C152  A    
C47   C254  S    
H140  N19   S    
C142  N28   S    
C137  N22   S    
H135  N17   S    
C65   C189  A    
C19   C120  A    
C180  N65   S    
H130  N14   S    
C72   C178  A    
H72   N81   S    
H17   N53   S    
C273  O138  A    
Cu7   O97   S    
C236  O23   A    
C269  O1    A    
Cu40  O48   S    
C14   C130  A    
C208  N94   S    
H113  N6    S    
Cu41  O49   S    
Cu2   O63   S    
C51   C158  A    
C40   C147  A    
C43   C208  A    
Cu15  O125  S    
C49   C155  A    
C284  C287  S    
H36   N62   S    
C211  O176  A    
H55   N72   S    
C157  O73   A    
C202  N87   S    
H116  N12   S    
H33   N61   S    
Cu32  O45   S    
Cu29  O162  S    
H139  N18   S    
C280  O130  A    
C90   O86   A    
H133  N16   S    
C42   C228  S    
C266  O13   A    
C246  O142  A    
Cu33  O22   S    
C100  C223  S    
Cu12  O98   S    
C266  O112  A    
H148  N24   S    
H147  N22   S    
C45   C152  A    
C64   C171  A    
C182  N68   S    
C234  O91   A    
H103  N96   S    
Cu38  O27   S    
C89   C182  A    
Cu32  O191  S    
Cu21  O141  S    
H123  N10   S    
H128  N13   S    
C248  O49   A    
C22   C262  S    
C93   C173  A    
C36   C252  S    
H99   N94   S    
C232  O181  A    
Cu7   O109  S    
C97   C142  A    
C67   C203  A    
C100  C137  A    
Cu26  O145  S    
C152  N38   S    
Cu47  Cu48  S    
Cu33  O16   S    
C242  O43   A    
H118  N8    S    
C245  O66   A    
C157  O100  A    
C138  N24   S    
C123  N9    S    
Cu4   O106  S    
C8    C129  A    
H141  N19   S    
H117  N7    S    
C140  N26   S    
C27   C196  A    
Cu8   O88   S    
C273  O136  A    
C221  O188  A    
Cu3   Cu14  S    
C70   C176  A    
H8    N49   S    
Cu41  O32   S    
H136  N17   S    
C154  N40   S    
H158  N28   S    
C214  O10   A    
C4    C109  A    
Cu30  O174  S    
C34   C141  A    
Cu17  O53   S    
Cu22  O188  S    
Cu27  O186  S    
Cu18  Cu32  S    
C6    C111  A    
C120  N6    S    
C52   C216  S    
C87   C140  A    
Cu27  O172  S    
Cu42  O23   S    
H38   N63   S    
C261  O2    A    
C231  O28   A    
Cu29  Cu43  S    
C39   C193  A    
H146  N22   S    
C54   C192  A    
Cu4   Cu15  S    
H182  N45   S    
C46   C93   S    
H186  N42   S    
C92   C172  A    
C235  O144  A    
C32   C199  A    
C259  O151  A    
C227  O178  A    
Cu34  O74   S    
C135  O87   A    
C79   C84   S    
H175  N37   S    
H90   N89   S    
C111  N67   S    
C264  O35   A    
C98   C147  A    
C67   C174  A    
C254  O42   A    
Cu23  O83   S    
C284  O101  A    
Cu2   O60   S    
Cu40  O19   S    
C97   C156  A    
C144  N30   S    
C51   C250  S    
C232  O29   A    
Cu11  O65   S    
C212  O75   A    
Cu7   O87   S    
C51   C188  A    
H164  N31   S    
C265  O122  A    
H159  N29   S    
H179  N39   S    
Cu42  O34   S    
C21   C131  A    
C248  O157  A    
C121  N7    S    
C181  N66   S    
C62   C230  S    
C210  N96   S    
H75   N82   S    
Cu16  O52   S    
H35   N67   S    
C243  O44   A    
C35   O104  A    
C184  N70   S    
Cu32  O8    S    
H157  N28   S    
Cu39  O7    S    
H112  N5    S    
C74   C185  A    
Cu25  O144  S    
C99   C145  A    
H87   N88   S    
C70   C198  A    
Cu39  O18   S    
C172  N58   S    
C252  O36   A    
Cu44  O103  S    
H192  N46   S    
C242  O167  A    
C24   O60   A    
C277  O118  A    
H60   N74   S    
C230  O140  A    
H132  N15   S    
C166  N52   S    
C278  O95   A    
Cu24  O175  S    
C90   O92   A    
H2    N45   S    
C53   C217  S    
C203  N88   S    
C179  O9    A    
C41   C191  A    
C65   C172  A    
C160  N46   S    
C264  O123  A    
H93   N91   S    
C141  N27   S    
H131  N15   S    
C125  N10   S    
H4    N47   S    
H30   N60   S    
C230  O31   A    
H156  N27   S    
H151  N25   S    
C163  N49   S    
C63   C170  A    
C23   C123  A    
H18   N53   S    
H63   N76   S    
C7    C281  S    
C44   C207  A    
C279  O119  A    
H58   N73   S    
Cu45  O89   S    
C59   C244  S    
C70   C233  S    
C186  N72   S    
C91   C144  A    
C277  O125  A    
C3    C115  A    
C15   C261  S    
C156  N42   S    
H138  N23   S    
C14   C274  S    
Cu16  O126  S    
H119  N8    S    
C76   C190  S    
C115  N89   S    
C59   C200  A    
C1    C95   S    
C110  N56   S    
Cu13  O135  S    
C220  O4    A    
C12   C122  A    
C249  O45   A    
Cu25  Cu39  S    
Cu5   O117  S    
Cu20  Cu35  S    
C146  O102  A    
C43   C150  A    
Cu45  O149  S    
C77   C210  A    
C28   C236  S    
C207  N93   S    
C245  O89   A    
C206  N92   S    
H114  N6    S    
H163  N30   S    
H49   N69   S    
C78   C175  A    
C96   C141  A    
C81   C164  A    
C65   C238  S    
C75   C186  A    
C236  O174  A    
C217  O191  A    
Cu47  O171  S    
C276  O127  A    
H137  N18   S    
C92   C149  A    
C17   C115  A    
C257  O40   A    
H160  N34   S    
Cu8   O113  S    
C38   C241  S    
C48   C154  A    
Cu7   O114  S    
C233  O17   A    
H120  N9    S    
H69   N79   S    
H100  N95   S    
C49   C221  S    
Cu38  O11   S    
H80   N84   S    
C253  O41   A    
C169  N54   S    
Cu21  O159  S    
Cu47  O78   S    
C95   C167  A    
C21   C109  A    
C241  O186  A    
H189  N43   S    
C3    C108  A    
H88   N88   S    
C69   C175  A    
C228  O33   A    
H9    N49   S    
H12   N51   S    
C258  O37   A    
Cu28  O177  S    
Cu41  O20   S    
C10   C117  A    
Cu12  O182  S    
C18   C126  A    
Cu26  O164  S    
Cu29  O167  S    
Cu6   O54   S    
C41   C148  A    
C33   C198  A    
H74   N82   S    
Cu17  O128  S    
H145  N21   S    
H76   N83   S    
C162  N48   S    
C95   C136  A    
Cu31  O9    S    
Cu16  O62   S    
C250  O146  A    
C192  N77   S    
C269  O128  A    
H185  N41   S    
C20   C119  A    
C54   C161  A    
C16   C127  A    
Cu26  O148  S    
H43   N66   S    
Cu6   O108  S    
C129  N15   S    
C56   C206  A    
Cu14  O134  S    
C274  O149  A    
H97   N93   S    
H92   N91   S    
Cu8   O110  S    
C30   C137  A    
C47   C197  A    
C67   C214  S    
H110  N4    S    
C113  O96   A    
C75   C182  A    
C217  O179  A    
Cu12  O95   S    
Cu37  O51   S    
C209  N95   S    
Cu14  O124  S    
Cu46  O70   S    
H107  N3    S    
C191  N76   S    
Cu10  O81   S    
H168  N33   S    
C55   C193  A    
C211  O12   A    
Cu1   O99   S    
C113  O82   A    
C227  O32   A    
C104  C267  S    
C253  O139  A    
Cu11  O136  S    
H13   N56   S    
H21   N55   S    
C26   C132  A    
C268  O111  A    
C284  O134  A    
C282  C288  S    
H59   N74   S    
C1    O61   A    
C213  O14   A    
C68   C96   S    
Cu18  O137  S    
Cu37  O5    S    
C86   C113  S    
C28   C134  A    
C225  O150  A    
C7    C114  A    
C11   C125  A    
C198  N84   S    
H50   N70   S    
H94   N92   S    
C132  N18   S    
H62   N75   S    
C80   C160  A    
C1    O99   A    
Cu28  Cu40  S    
C280  O113  A    
H53   N71   S    
H142  N20   S    
C19   C128  A    
C205  N91   S    
C271  O90   A    
C216  O190  A    
C93   C148  A    
H191  N44   S    
C15   C107  A    
C82   C135  S    
H149  N23   S    
H66   N77   S    
C25   C125  A    
H111  N5    S    
C283  O110  A    
H150  N24   S    
H127  N12   S    
C73   C180  A    
H57   N78   S    
H104  N96   S    
Cu24  O189  S    
C5    C110  A    
C223  O74   A    
H7    N48   S    
C22   C110  A    
H84   N86   S    
H32   N61   S    
C61   C229  S    
C11   C118  A    
C226  O27   A    
C34   C251  S    
H39   N64   S    
C241  O20   A    
Cu36  O50   S    
C117  C287  A    
C76   C183  A    
Cu27  Cu41  S    
Cu1   O1    S    
C185  N71   S    
C238  O21   A    
C161  N47   S    
C105  N1    S    
C158  N43   S    
C272  O171  A    
H166  N32   S    
H52   N71   S    
C63   C207  A    
C114  N78   S    
Cu33  O30   S    
C11   C269  S    
C62   C195  A    
C249  O147  A    
Cu21  O153  S    
C243  O166  A    
C263  O68   A    
Cu2   O90   S    
H46   N67   S    
C84   C183  A    
C258  O152  A    
C271  O160  A    
H115  N7    S    
C44   C213  S    
C27   C133  A    
C149  N35   S    
Cu4   O118  S    
C10   C123  A    
C268  O24   A    
Cu24  O143  S    
C226  O148  A    
C124  O76   A    
C143  N29   S    
C71   C177  A    
Cu26  Cu38  S    
C37   C240  S    
C204  N90   S    
Cu4   O92   S    
C255  O39   A    
Cu24  Cu36  S    
H91   N90   S    
C60   C166  A    
C145  N31   S    
C77   C201  S    
C247  O48   A    
C52   C204  A    
C262  O57   A    
Cu25  O165  S    
C2    C89   S    
Cu20  O154  S    
C250  O47   A    
Cu8   O96   S    
C231  O183  A    
C285  C286  S    
C275  O117  A    
C127  N13   S    
Cu34  O57   S    
H6    N48   S    
C37   C186  A    
C238  O154  A    
Cu16  O132  S    
C118  N4    S    
C35   O56   A    
Cu44  O91   S    
Cu5   O55   S    
Cu27  O178  S    
C53   C203  A    
H22   N55   S    
H61   N75   S    
H51   N70   S    
C216  O180  A    
C276  O115  A    
C165  N51   S    
C150  N36   S    
H109  N4    S    
C134  N20   S    
H78   N84   S    
Cu18  O185  S    
Cu23  O75   S    
Cu43  O28   S    
C91   C181  A    
H180  N39   S    
Cu10  O121  S    
C107  N23   S    
C246  O51   A    
H82   N85   S    
Cu18  O147  S    
H77   N83   S    
C18   C116  A    
C176  N62   S    
H29   N59   S    
Cu30  O181  S    
Cu19  O139  S    
C26   C247  S    
H122  N10   S    
H161  N29   S    
C48   C220  S    
H85   N87   S    
C62   C169  A    
C223  O69   A    
C53   C160  A    
C37   C143  A    
C281  O114  A    
C38   C144  A    
H124  N11   S    
C189  N75   S    
Cu29  O183  S    
C112  O98   A    
H14   N51   S    
H102  N95   S    
C212  O67   A    
C229  O141  A    
H106  N2    S    
Cu15  O86   S    
C71   C199  A    
C72   C205  A    
Cu11  Cu44  S    
H108  N3    S    
Cu29  O173  S    
H26   N58   S    
C47   C153  A    
Cu45  O35   S    
H3    N46   S    
H25   N57   S    
C85   C170  A    
C146  O72   A    
Cu20  O168  S    
C36   C187  A    
Cu28  O158  S    
C215  O164  A    
C42   C149  A    
C86   C150  A    
H42   N65   S    
C80   C174  A    
C94   C169  A    
C79   O93   A    
C27   C248  S    
C42   C189  A    
C102  C212  S    
Cu46  O24   S    
C16   C260  S    
C218  O6    A    
C168  O185  A    
Cu48  O79   S    
Cu11  O58   S    
C83   C184  A    
H64   N76   S    
Cu39  O26   S    
H1    N1    S    
Cu47  O13   S    
C190  O15   A    
Cu5   O67   S    
C164  N50   S    
C118  C286  A    
C40   C243  S    
Cu17  O61   S    
C131  N17   S    
Cu5   Cu23  S    
C68   O55   A    
C78   C159  A    
C13   O59   A    
C29   C136  A    
Cu46  O80   S    
H162  N30   S    
Cu31  O41   S    
C10   C270  S    
C214  O165  A    
C49   C209  A    
Cu30  O163  S    
C270  O126  A    
C4    C279  S    
H68   N78   S    
H144  N21   S    
Cu14  O85   S    
Cu37  O12   S    
C61   C167  A    
H70   N80   S    
Cu38  O17   S    
Cu2   Cu46  S    
Cu12  Cu16  S    
Cu9   O76   S    
C109  N45   S    
H152  N25   S    
C194  N80   S    
C76   C209  A    
C9    C111  A    
C96   C158  A    
C41   C227  S    
C239  O22   A    
C60   C246  S    
Cu9   O82   S    
C98   C161  A    
C12   C131  A    
C66   C239  S    
Cu48  O112  S    
C24   C99   S    
H126  N13   S    
C69   C215  S    
Cu9   O120  S    
H48   N69   S    
C237  O173  A    
C199  N85   S    
Cu42  O44   S    
C261  O131  A    
C155  N41   S    
C64   C208  A    
C56   C163  A    
Cu19  O184  S    
C188  N74   S    
C87   C234  S    
Cu43  O25   S    
Cu36  O4    S    
C219  O155  A    
C63   C218  S    
Cu19  O146  S    
C240  O19   A    
C102  C138  A    
C84   C155  A    
C82   C163  A    
Cu5   O107  S    
C33   C140  A    
C104  C132  A    
C29   C194  A    
C5    C121  A    
Cu15  O133  S    
C77   C184  A    
C136  N21   S    
C100  C166  A    
C201  O159  A    
C94   C112  S    
C13   C98   S    
H11   N50   S    
C259  O38   A    
C234  O65   A    
C94   C134  A    
C88   C245  S    
Cu12  O105  S    
C177  N63   S    
Cu3   O101  S    
C50   C156  A    
C13   O71   A    
Cu11  O122  S    
C122  N8    S    
C159  N44   S    
C183  N69   S    
C218  O156  A    
C66   C173  A    
Cu21  O169  S    
Cu20  O161  S    
Cu43  O36   S    
H28   N59   S    
H187  N42   S    
Cu21  Cu33  S    
C20   C272  S    
Cu10  O129  S    
C55   C259  S    
C173  N59   S    
C267  O78   A    
Cu37  O37   S    
C52   C159  A    
C3    C283  S    
C32   C231  S    
C57   C97   S    
Cu33  O192  S    
H125  N11   S    
Cu10  O77   S    
C179  O184  A    
C35   C92   S    
C285  O133  A    
C265  O46   A    
C222  O169  A    
C50   C187  A    
C197  N83   S    
C29   C237  S    
C168  O8    A    
C275  O116  A    
C101  O81   A    
Cu7   Cu10  S    
Cu3   O119  S    
C133  N19   S    
Cu14  O73   S    
H170  N35   S    
Cu25  O150  S    
H73   N81   S    
C44   C151  A    
H153  N26   S    
C81   C124  S    
C86   C171  A    
Cu13  O123  S    
H54   N72   S    
H71   N80   S    
Cu25  O155  S    
Cu31  O190  S    
C237  O25   A    
H121  N9    S    
Cu6   O69   S    
Cu15  O72   S    
C57   O54   A    
Cu30  O166  S    
Cu48  O59   S    
C23   C106  A    
C190  O161  A    
C153  N39   S    
Cu45  O104  S    
C31   C138  A    
C215  O11   A    
H177  N38   S    
C64   C219  S    
C88   C139  A    
H105  N1    S    
Cu34  O127  S    
C201  O16   A    
C78   C157  S    
C213  O175  A    
Cu31  O47   S    
Cu36  O14   S    
C72   C222  S    
C66   C191  A    
C56   C168  S    
H173  N36   S    
H96   N93   S    
H67   N79   S    
C31   C257  S    
H155  N27   S    
H174  N36   S    
H79   N89   S    
C2    O53   A    
Cu44  O46   S    
C267  O64   A    
C58   C179  S    
C50   C249  S    
H44   N66   S    
C69   C204  A    
C235  O18   A    
H19   N54   S    
C170  N55   S    
Cu35  O21   S    
H45   N68   S    
C48   C210  A    
Cu24  O151  S    
C102  C165  A    
C71   C235  S    
C9    C265  S    
C104  C153  A    
C233  O145  A    
C195  N81   S    
Cu22  O176  S    
Cu40  O33   S    
Cu32  O42   S    
H47   N68   S    
C17   C276  S    
C85   C101  S    
Cu27  O157  S    
C108  N34   S    
C18   C275  S    
C60   C202  A    
C83   C90   S    
Cu35  O3    S    
Cu8   Cu9   S    
H172  N35   S    
H129  N14   S    
C73   C224  S    
Cu4   O102  S    
C274  O135  A    
Cu3   O93   S    
C75   C226  S    
H169  N33   S    
C55   C162  A    
C260  O182  A    
C59   C165  A    
C171  N57   S    
Cu44  O138  S    
C270  O105  A    
C139  N25   S    
H86   N87   S    
C34   C188  A    
C196  N82   S    
Cu46  O160  S    
C220  O189  A    
C38   C185  A    
H190  N44   S    
C229  O30   A    
C124  O88   A    
C23   C266  S    
C105  C286  A    
C251  O34   A    
C263  O107  A    
H83   N86   S    
C174  N60   S    
C107  C288  A    
C103  C133  A    
C187  N73   S    
Cu41  O39   S    
Cu22  O142  S    
C101  O97   A    
C257  O170  A    
Cu22  Cu37  S    
C45   C196  A    
H171  N34   S    
C54   C258  S    
Cu17  O131  S    
H34   N62   S    
C116  C288  A    
C68   O83   A    
Cu1   O94   S    
H65   N77   S    
C16   C108  A    
C128  N14   S    
C225  O26   A    
Cu48  O64   S    
C130  N16   S    
C46   O103  A    
H89   N90   S    
C82   C180  A    
C5    C277  S    
C30   C255  S    
Cu30  Cu42  S    
C256  O63   A    
Cu13  Cu45  S    
Cu28  O187  S    
C252  O162  A    
C61   C194  A    
C45   C253  S    
H37   N63   S    
C15   C126  A    
