data_mof_unit_6528.cif
_audit_creation_date              2012-12-11T15:55:42-0500
_audit_creation_method            fapswitch 2.2
_symmetry_space_group_name_H-M    P1
_symmetry_Int_Tables_number       1
_space_group_crystal_system       triclinic
_cell_length_a                    11.021437
_cell_length_b                    11.015085
_cell_length_c                    18.780829
_cell_angle_alpha                 90.006895
_cell_angle_beta                  90.081416
_cell_angle_gamma                 59.592237
_cell_volume                      1966.39947269

loop_
_atom_site_label
_atom_site_type_symbol
_atom_type_description
_atom_site_fract_x
_atom_site_fract_y
_atom_site_fract_z
_atom_type_partial_charge
C1    C     C_R   0.356694 0.775708 0.398891 0.599996
C2    C     C_R   0.563815 0.038722 0.188238 0.044581
C3    C     C_R   0.340427 0.288051 0.173538 0.038895
C4    C     C_R   0.440242 0.197309 0.288539 -0.121995
C5    C     C_R   0.445838 0.176983 0.215725 -0.027267
C6    C     C_R   0.104027 0.702440 0.274659 -0.092968
C7    C     C_R   0.012618 0.831139 0.306652 -0.154853
C8    C     C_R   0.653030 0.032123 0.132722 -0.038176
C9    C     C_R   0.759622 0.903546 0.106650 -0.149036
C10   C     C_R   0.247299 0.418076 0.204148 -0.040443
C11   C     C_R   0.242355 0.437934 0.277300 -0.014052
C12   C     C_R   0.381991 0.351493 0.390234 0.545743
C13   C     C_R   0.940937 0.836074 0.368922 -0.055060
C14   C     C_R   0.959544 0.711844 0.398644 0.380180
C15   C     C_R   0.054080 0.582622 0.367736 -0.012523
C16   C     C_R   0.131333 0.576008 0.306707 0.039457
C17   C     C_R   0.344828 0.326803 0.319580 0.011914
C18   C     C_R   0.941721 0.300462 0.194221 0.058921
C19   C     C_R   0.910735 0.206066 0.227477 -0.026051
C20   C     C_R   0.869219 0.222271 0.298323 -0.032826
C21   C     C_R   0.897716 0.424102 0.305658 -0.108248
C22   C     C_R   0.941956 0.405639 0.235461 0.298123
C23   C     C_R   0.777888 0.378820 0.403157 0.543341
C24   C     C_3   0.799690 0.175871 0.205439 0.235504
C25   C     C_3   0.752825 0.194310 0.281832 -0.197483
C26   C     C_R   0.858691 0.334149 0.337780 -0.000315
C27   C     C_R   0.309878 0.916690 0.184992 -0.063618
C28   C     C_R   0.355701 0.777722 0.202771 0.044234
C29   C     C_R   0.374870 0.735636 0.272130 -0.124968
C30   C     C_R   0.277540 0.974089 0.311976 0.339251
C31   C     C_R   0.261423 0.017285 0.240226 -0.166195
C32   C     C_3   0.474445 0.639859 0.178012 0.320421
C33   C     C_3   0.495787 0.593351 0.255844 -0.201732
C34   C     C_R   0.342095 0.772126 0.603365 0.550999
C35   C     C_R   0.343942 0.829697 0.327856 0.030168
C36   C     C_R   0.298402 0.304289 0.807626 0.017243
C37   C     C_R   0.404737 0.191451 0.770100 0.008837
C38   C     C_R   0.415479 0.194565 0.697821 0.009793
C39   C     C_R   0.197420 0.416303 0.694147 -0.174808
C40   C     C_R   0.187321 0.412237 0.768640 -0.178561
C41   C     C_3   0.559871 0.114830 0.782063 -0.241248
C42   C     C_3   0.573537 0.116073 0.702272 -0.249585
C43   C     C_R   0.320811 0.314992 0.659699 0.024133
C44   C     C_R   0.811114 0.331179 0.836515 0.016510
C45   C     C_R   0.368842 0.348144 0.594616 0.551384
C46   C     C_R   0.752518 0.462632 0.802732 -0.086780
C47   C     C_R   0.747766 0.470574 0.729700 0.064707
C48   C     C_R   0.828655 0.224133 0.719882 -0.151233
C49   C     C_R   0.837230 0.213327 0.794516 0.324959
C50   C     C_3   0.784024 0.580424 0.807833 -0.212998
C51   C     C_3   0.789045 0.580005 0.727574 0.263655
C52   C     C_R   0.792510 0.352268 0.686778 -0.075713
C53   C     C_R   0.290058 0.869224 0.820549 0.003142
C54   C     C_R   0.186927 0.857648 0.783971 0.095674
C55   C     C_R   0.193817 0.842959 0.711011 0.025974
C56   C     C_R   0.761520 0.377550 0.611093 0.549529
C57   C     C_R   0.387994 0.883898 0.706400 -0.104599
C58   C     C_R   0.385071 0.892598 0.780641 -0.134555
C59   C     C_3   0.141617 0.752489 0.794457 -0.259690
C60   C     C_3   0.150446 0.734769 0.714478 -0.265137
C61   C     C_R   0.302619 0.842650 0.671961 0.004735
C62   C     C_R   0.970880 0.290131 0.118035 0.569330
C63   C     C_R   0.309013 0.262728 0.101866 0.537637
C64   C     C_R   0.272841 0.960692 0.112018 0.523253
C65   C     C_R   0.880484 0.310230 0.905439 0.594573
C66   C     C_R   0.292993 0.285524 0.883778 0.563362
C67   C     C_R   0.783421 0.778847 0.137621 -0.061359
C68   C     C_R   0.272608 0.900012 0.896218 0.567369
C69   C     C_R   0.703998 0.783156 0.196434 -0.085331
C70   C     C_R   0.596725 0.911669 0.222121 -0.132217
Cr1   Cr    Cr6+3 0.601740 0.606840 0.505840 1.133413
Cr2   Cr    Cr6+3 0.291500 0.601560 0.495070 1.060877
Cr3   Cr    Cr6+3 0.606780 0.291630 0.499130 1.036277
Cr4   Cr    Cr6+3 0.062440 0.063060 0.008240 1.074232
Cr5   Cr    Cr6+3 0.062950 0.375000 0.998920 1.026811
Cr6   Cr    Cr6+3 0.374550 0.061770 0.992470 1.022730
H1    H     H_    0.519574 0.113217 0.321062 0.153611
H2    H     H_    0.872206 0.935495 0.394735 0.134347
H3    H     H_    0.071720 0.486673 0.393133 0.137992
H4    H     H_    0.875300 0.520350 0.331388 0.156622
H5    H     H_    0.846997 0.067355 0.184447 0.112507
H6    H     H_    0.647173 0.287394 0.290776 0.167190
H7    H     H_    0.766273 0.096968 0.306049 0.088883
H8    H     H_    0.213663 0.127907 0.227982 0.103691
H9    H     H_    0.469713 0.510301 0.267051 0.172300
H10   H     H_    0.596041 0.576191 0.278905 0.087268
H11   H     H_    0.594849 0.180566 0.810270 0.179976
H12   H     H_    0.001332 0.926016 0.283822 0.116716
H13   H     H_    0.621862 0.009532 0.678039 0.183495
H14   H     H_    0.855005 0.131799 0.688248 0.152051
H15   H     H_    0.886760 0.552359 0.831363 0.121663
H16   H     H_    0.693904 0.677670 0.830321 0.163134
H17   H     H_    0.895336 0.541076 0.704938 0.119423
H18   H     H_    0.463097 0.898986 0.676602 0.203568
H19   H     H_    0.458772 0.914927 0.806762 0.151884
H20   H     H_    0.032394 0.800964 0.815077 0.199218
H21   H     H_    0.046848 0.770754 0.688670 0.164385
H22   H     H_    0.723579 0.687430 0.222180 0.156137
H23   H     H_    0.157623 0.701614 0.226402 0.155242
O1    O     O_R   0.748670 0.497520 0.427970 -0.498694
O2    O     O_R   0.300170 0.471020 0.567120 -0.500861
O3    O     O_R   0.491630 0.259030 0.574940 -0.515461
O4    O     O_R   0.718640 0.304340 0.577850 -0.514687
O5    O     O_3   0.500010 0.500010 0.500020 -0.282116
O6    O     O_R   0.186620 0.923750 0.087000 -0.489285
O7    O     O_R   0.957350 0.194160 0.084660 -0.492583
O8    O     O_R   0.935120 0.407280 0.085350 -0.459177
O9    O     O_R   0.203800 0.365060 0.067090 -0.492069
O10   O     O_R   0.417470 0.174910 0.067830 -0.512540
O11   O     O_R   0.375160 0.946380 0.070880 -0.491581
O12   O     O_R   0.476470 0.723930 0.429450 -0.496794
O13   O     O_R   0.160500 0.919670 0.926690 -0.467208
O14   O     O_R   0.933140 0.190380 0.936050 -0.424701
O15   O     O_R   0.909010 0.403210 0.925030 -0.541182
O16   O     O_R   0.179590 0.361290 0.918480 -0.503045
O17   O     O_R   0.391360 0.170840 0.907510 -0.513273
O18   O     O_R   0.350950 0.942600 0.922260 -0.513642
O19   O     O_3   0.166650 0.166610 0.999880 -0.331177
O20   O     O_R   0.264730 0.744140 0.416740 -0.506276
O21   O     O_R   0.309440 0.472410 0.418220 -0.511985
O22   O     O_R   0.501630 0.260530 0.414310 -0.524427
O23   O     O_R   0.727920 0.305730 0.428950 -0.504606
O24   O     O_R   0.738670 0.496020 0.588600 -0.443033
O25   O     O_R   0.467190 0.722540 0.578350 -0.459117
O26   O     O_R   0.254720 0.742640 0.577370 -0.517867
F1    F     F_    0.889332 0.716133 0.458694 -0.636281
F2    F     F_    0.967361 0.501715 0.205921 -0.708721
F3    F     F_    0.700142 0.281495 0.162192 -0.605690
F4    F     F_    0.232249 0.071341 0.364800 -0.641025
H24   H     H_    0.823790 0.900895 0.062417 0.115151
H25   H     H_    0.562687 0.646122 0.153588 0.142369
F5    F     F_    0.426594 0.568076 0.137056 -0.578140
H26   H     H_    0.117889 0.506644 0.665153 0.139478
H27   H     H_    0.098899 0.497285 0.795601 0.116356
H28   H     H_    0.602054 0.007426 0.804177 0.160970
H29   H     H_    0.620078 0.179868 0.685374 0.168592
F6    F     F_    0.883683 0.085180 0.824500 -0.646180
F7    F     F_    0.687189 0.704394 0.697938 -0.650417
H30   H     H_    0.864388 0.679833 0.116074 0.204256
H31   H     H_    0.220928 0.657115 0.823650 0.130943
H32   H     H_    0.237582 0.630370 0.697503 0.159312
H33   H     H_    0.539249 0.910833 0.268347 0.117032
H34   H     H_    0.638745 0.126797 0.107872 0.222963
H35   H     H_    0.172748 0.503658 0.170754 0.204873

loop_
_geom_bond_atom_site_label_1
_geom_bond_atom_site_label_2
_ccdc_geom_bond_type
C44   C49   A    
C7    C13   A    
Cr1   O5    S    
Cr5   O8    S    
C49   F6    S    
C41   C42   S    
C19   C20   A    
C32   F5    S    
C68   O13   A    
C21   C26   A    
C57   C58   A    
C64   O6    A    
C53   C54   A    
C66   O17   A    
C30   C35   A    
Cr1   O24   S    
C36   C37   A    
C38   C42   S    
C1    O20   A    
C30   C31   A    
C60   H32   S    
C36   C66   S    
Cr2   O2    S    
C15   C16   A    
C29   C33   S    
C21   H4    S    
C42   H29   S    
C18   C19   A    
C65   O15   A    
C23   C26   S    
C4    H1    S    
C53   C68   S    
C33   H9    S    
C21   C22   A    
C12   O21   A    
Cr3   O5    S    
C15   H3    S    
C12   O22   A    
C8    C9    A    
Cr1   O12   S    
C12   C17   S    
Cr3   O4    S    
C67   H30   S    
C69   H22   S    
C23   O1    A    
C59   C60   S    
C48   H14   S    
C55   C60   S    
C44   C65   S    
Cr5   O19   S    
Cr4   O19   S    
C44   C46   A    
C23   O23   A    
C54   C59   S    
C41   H11   S    
C70   H33   S    
C66   O16   A    
C27   C31   A    
C56   O24   A    
Cr1   O25   S    
C28   C32   S    
C24   C25   S    
C60   H21   S    
C45   O3    A    
C39   C40   A    
Cr6   O10   S    
C47   C51   S    
C62   O8    A    
Cr2   O5    S    
C9    H24   S    
Cr4   O14   S    
C40   H27   S    
C34   C61   S    
Cr6   O19   S    
C31   H8    S    
C67   C69   A    
C63   O10   A    
C58   H19   S    
C9    C67   A    
C37   C38   A    
C68   O18   A    
Cr4   O7    S    
C11   C16   S    
C64   O11   A    
C7    H12   S    
C24   H5    S    
C36   C40   A    
Cr2   O21   S    
C50   C51   S    
Cr5   O15   S    
C10   H35   S    
C43   C45   S    
C47   C52   A    
C45   O2    A    
C51   H17   S    
C4    C17   A    
C50   H16   S    
Cr3   O3    S    
Cr3   O22   S    
C57   H18   S    
C25   H6    S    
C2    C5    S    
Cr5   O16   S    
C59   H20   S    
C41   H28   S    
C1    C35   S    
C24   F3    S    
C39   H26   S    
Cr5   O9    S    
C46   C50   S    
C54   C55   A    
C28   C29   A    
C34   O25   A    
C18   C22   A    
C65   O14   A    
C2    C8    A    
C56   O4    A    
C4    C5    A    
C3    C5    A    
C11   C17   A    
C39   C43   A    
C53   C58   A    
C57   C61   A    
C6    C7    A    
C62   O7    A    
C3    C63   S    
C30   F4    S    
Cr1   O1    S    
C29   C35   A    
Cr6   O18   S    
C14   F1    S    
Cr2   O26   S    
C42   H13   S    
C10   C11   A    
C6    H23   S    
C19   C24   S    
C38   C43   A    
C3    C10   A    
C2    C70   A    
C32   C33   S    
Cr4   O6    S    
Cr4   O13   S    
C22   F2    S    
C20   C26   A    
C59   H31   S    
C34   O26   A    
C48   C49   A    
C55   C61   A    
Cr2   O20   S    
Cr6   O17   S    
C8    H34   S    
C32   H25   S    
C37   C41   S    
C69   C70   A    
C46   C47   A    
C27   C64   S    
C13   H2    S    
C6    C16   A    
C51   F7    S    
C50   H15   S    
C48   C52   A    
Cr6   O11   S    
Cr3   O23   S    
C20   C25   S    
C27   C28   A    
C25   H7    S    
C14   C15   A    
C18   C62   S    
C63   O9    A    
C13   C14   A    
C33   H10   S    
C1    O12   A    
C52   C56   S    
