data_mof_unit_52491.cif
_audit_creation_date              2012-12-10T19:14:18-0500
_audit_creation_method            fapswitch 2.2
_symmetry_space_group_name_H-M    P1
_symmetry_Int_Tables_number       1
_space_group_crystal_system       triclinic
_cell_length_a                    10.688369
_cell_length_b                    9.804247
_cell_length_c                    19.251074
_cell_angle_alpha                 90.869163
_cell_angle_beta                  87.82922
_cell_angle_gamma                 90.446409
_cell_volume                      2015.61493851

loop_
_atom_site_label
_atom_site_type_symbol
_atom_type_description
_atom_site_fract_x
_atom_site_fract_y
_atom_site_fract_z
_atom_type_partial_charge
C1    C     C_R   0.258918 0.499142 0.492430 0.814652
C2    C     C_3   0.068268 0.441331 0.559523 -0.089076
C3    C     C_3   0.928703 0.647230 0.481712 -0.385678
C4    C     C_3   0.925097 0.454086 0.565450 -0.487731
C5    C     C_3   0.069847 0.409112 0.423285 0.432512
C6    C     C_3   0.121120 0.497181 0.487462 0.023910
C7    C     C_3   0.878046 0.501821 0.495576 0.047416
C8    C     C_R   0.501050 0.499726 0.365478 0.920587
C9    C     C_3   0.924043 0.402819 0.436447 -0.370680
C10   C     C_3   0.397713 0.077969 0.456880 -0.266448
C11   C     C_3   0.397907 0.917678 0.456738 -0.253888
C12   C     C_R   0.542035 0.519505 0.068851 0.356739
C13   C     C_3   0.622564 0.080299 0.471857 0.029650
C14   C     C_3   0.622364 0.918683 0.471406 0.044396
C15   C     C_3   0.480144 0.083149 0.570666 0.041084
C16   C     C_3   0.480028 0.920376 0.570643 0.044439
C17   C     C_R   0.741985 0.500753 0.499137 0.875215
C18   C     C_R   0.501580 0.501067 0.634279 0.869760
C19   C     C_R   0.436865 0.597234 0.253795 -0.015223
C20   C     C_R   0.597899 0.421452 0.252374 -0.012647
C21   C     C_R   0.448288 0.604728 0.180919 0.157148
C22   C     C_R   0.612668 0.431948 0.179892 0.161590
C23   C     C_R   0.527900 0.633123 0.816781 -0.166901
C24   C     C_R   0.535351 0.520604 0.144513 -0.045547
C25   C     C_R   0.508880 0.502344 0.289217 -0.105545
C26   C     C_R   0.541930 0.514295 0.928916 0.264307
C27   C     C_3   0.262420 0.636231 0.114573 -0.768275
C28   C     C_3   0.820524 0.433986 0.125380 -0.782170
C29   C     C_3   0.032620 0.474538 0.297471 -0.805034
C30   C     C_3   0.073632 0.171237 0.370791 -0.860207
C31   C     C_R   0.530697 0.385564 0.817476 -0.164831
C32   C     C_R   0.516035 0.629681 0.745328 -0.212495
C33   C     C_R   0.518925 0.382194 0.746006 -0.213354
C34   C     C_R   0.510724 0.504199 0.709569 -0.028286
C35   C     C_R   0.534728 0.511069 0.853382 0.099236
C36   C     C_3   0.071536 0.649085 0.481474 -0.087534
H1    H     H_    0.870652 0.420480 0.389407 0.150197
H2    H     H_    0.696495 0.887220 0.506959 0.101156
H3    H     H_    0.530903 0.731326 0.843216 0.147674
H4    H     H_    0.536258 0.289792 0.844449 0.147910
H5    H     H_    0.511722 0.725342 0.718241 0.142205
H6    H     H_    0.517106 0.284176 0.719436 0.141144
H7    H     H_    0.100500 0.709096 0.528006 0.143721
H8    H     H_    0.107279 0.506716 0.601601 0.138249
H9    H     H_    0.892643 0.720562 0.522344 0.157695
H10   H     H_    0.898456 0.529379 0.607247 0.164422
H11   H     H_    0.894591 0.681754 0.430938 0.195679
H12   H     H_    0.896420 0.298702 0.453574 0.173998
H13   H     H_    0.879895 0.355629 0.580614 0.180498
H14   H     H_    0.262137 0.672725 0.272803 0.203020
H15   H     H_    0.380464 0.785642 0.285491 0.168648
H16   H     H_    0.667656 0.235587 0.271449 0.180101
H17   H     H_    0.771460 0.366069 0.278588 0.183674
H18   H     H_    0.591608 0.118640 0.367566 0.197222
H19   H     H_    0.685700 0.233792 0.406656 0.248893
H20   H     H_    0.591712 0.874139 0.365832 0.193513
H21   H     H_    0.685193 0.761668 0.404361 0.228215
H22   H     H_    0.372230 0.135801 0.658208 0.156309
H23   H     H_    0.401160 0.116473 0.403062 0.141136
H24   H     H_    0.340458 0.229548 0.589128 0.272397
H25   H     H_    0.370367 0.874902 0.658021 0.157027
H26   H     H_    0.341715 0.771119 0.590619 0.250683
H27   H     H_    0.355361 0.788883 0.168434 0.223323
H28   H     H_    0.194644 0.605457 0.156509 0.219813
H29   H     H_    0.286915 0.545732 0.081608 0.250860
H30   H     H_    0.217177 0.712093 0.081623 0.242610
H31   H     H_    0.725680 0.261002 0.160465 0.225787
H32   H     H_    0.867104 0.466083 0.173609 0.229618
H33   H     H_    0.798651 0.525758 0.095120 0.252097
H34   H     H_    0.402230 0.876880 0.402900 0.147202
H35   H     H_    0.886159 0.369684 0.093327 0.242238
H36   H     H_    0.098320 0.825141 0.425685 0.169049
H37   H     H_    0.212867 0.712130 0.409780 0.221538
H38   H     H_    0.091160 0.280058 0.624758 0.177579
H39   H     H_    0.050910 0.231210 0.544765 0.219081
H40   H     H_    0.203528 0.472111 0.346683 0.208489
H41   H     H_    0.090216 0.505351 0.251231 0.224827
H42   H     H_    0.955457 0.549229 0.304295 0.243892
H43   H     H_    0.994677 0.371288 0.286955 0.239640
H44   H     H_    0.216794 0.270466 0.414238 0.237232
H45   H     H_    0.305619 0.111999 0.478878 0.188653
H46   H     H_    0.101728 0.067628 0.386244 0.235804
H47   H     H_    0.115669 0.189815 0.318098 0.248793
H48   H     H_    0.970319 0.171688 0.368416 0.255773
H49   H     H_    0.305737 0.882047 0.478072 0.168637
H50   H     H_    0.558607 0.119850 0.602860 0.086660
H51   H     H_    0.558264 0.886456 0.602866 0.084264
H52   H     H_    0.696642 0.114144 0.507724 0.103877
N1    N     N_R   0.538229 0.399045 0.033684 -0.155419
N2    N     N_3   0.660596 0.863738 0.402196 -0.444146
N3    N     N_3   0.362551 0.132368 0.604353 -0.433889
N4    N     N_3   0.362112 0.871085 0.604062 -0.442122
N5    N     N_2   0.372974 0.696523 0.143910 -0.293190
N6    N     N_2   0.707724 0.356772 0.142183 -0.292469
N7    N     N_3   0.116801 0.721135 0.418702 -0.438715
N8    N     N_3   0.106505 0.300342 0.571913 -0.442065
N9    N     N_2   0.108625 0.476958 0.358316 -0.277437
N10   N     N_2   0.121131 0.270324 0.420400 -0.316073
N11   N     N_R   0.547202 0.637525 0.033203 -0.150926
N12   N     N_R   0.538261 0.396493 0.964835 -0.184268
N13   N     N_R   0.547077 0.634876 0.964249 -0.183258
N14   N     N_3   0.499750 0.138610 0.498490 -0.087266
N15   N     N_3   0.499750 0.861390 0.498490 -0.085443
N16   N     N_3   0.351450 0.684558 0.292335 -0.475318
N17   N     N_3   0.679074 0.335786 0.289398 -0.484575
N18   N     N_3   0.661690 0.131424 0.403232 -0.451976
O1    O     O_R   0.314910 0.616040 0.499990 -0.654798
O2    O     O_R   0.314910 0.383960 0.499990 -0.627484
O3    O     O_R   0.500100 0.616080 0.398110 -0.622249
O4    O     O_R   0.500100 0.383920 0.398110 -0.628468
O5    O     O_R   0.685320 0.616040 0.499960 -0.648306
O6    O     O_R   0.685320 0.383960 0.499960 -0.648053
O7    O     O_R   0.500130 0.616000 0.601840 -0.640773
O8    O     O_R   0.500130 0.384000 0.601840 -0.641113
Zn1   Zn    Zn3+2 0.500150 0.654960 0.499970 0.885733
Zn2   Zn    Zn3+2 0.500150 0.345040 0.499970 0.890255

loop_
_geom_bond_atom_site_label_1
_geom_bond_atom_site_label_2
_ccdc_geom_bond_type
H14   N16   S    
C2    C4    S    
C28   H33   S    
C18   O8    A    
C11   H34   S    
C4    H10   S    
C33   H6    S    
C19   C21   A    
C3    C7    S    
C26   N13   A    
C5    C6    S    
C20   C25   A    
C15   C16   S    
C31   H4    S    
C28   N6    S    
C30   H47   S    
C14   N2    S    
C12   N11   A    
H36   N7    S    
C29   H42   S    
C2    H8    S    
C7    C17   S    
H26   N4    S    
C16   H51   S    
C32   H5    S    
C31   C33   A    
H22   N3    S    
H25   N4    S    
H20   N2    S    
C13   C14   S    
C30   H48   S    
C8    C25   S    
C22   N6    S    
C2    C6    S    
C4    C7    S    
C17   O5    A    
C18   O7    A    
H39   N8    S    
H21   N2    S    
H18   N18   S    
H19   N18   S    
C1    C6    S    
H38   N8    S    
C12   N1    A    
C10   N14   S    
C27   H28   S    
N1    N12   A    
H15   N16   S    
C3    H9    S    
C32   C34   A    
C30   H46   S    
N15   Zn1   S    
C5    C9    S    
C27   H29   S    
C8    O4    A    
C14   H2    S    
C19   N16   S    
C16   N15   S    
C29   H43   S    
C9    H1    S    
C33   C34   A    
C18   C34   S    
O1    Zn1   S    
C1    O1    A    
C15   H50   S    
N11   N13   A    
C20   C22   A    
H16   N17   S    
C16   N4    S    
C23   C35   A    
C31   C35   A    
C27   N5    S    
C28   H35   S    
H37   N7    S    
C17   O6    A    
O4    Zn2   S    
O6    Zn2   S    
C20   N17   S    
H24   N3    S    
C7    C9    S    
C30   N10   S    
H44   N10   S    
C5    N9    S    
C13   N18   S    
C28   H32   S    
O8    Zn2   S    
C13   N14   S    
C11   N15   S    
C12   C24   S    
C10   H45   S    
C29   N9    S    
C4    H13   S    
C23   C32   A    
O2    Zn2   S    
C2    N8    S    
C10   H23   S    
H40   N9    S    
C27   H30   S    
C8    O3    A    
C36   N7    S    
C14   N15   S    
C21   N5    S    
C3    C36   S    
C11   H49   S    
C23   H3    S    
C13   H52   S    
C3    H11   S    
C6    C36   S    
C22   C24   A    
C15   N14   S    
H31   N6    S    
C19   C25   A    
N14   Zn2   S    
C10   C11   S    
O3    Zn1   S    
C1    O2    A    
C15   N3    S    
H17   N17   S    
C26   C35   S    
C29   H41   S    
C5    N10   S    
C9    H12   S    
C21   C24   A    
C36   H7    S    
O5    Zn1   S    
H27   N5    S    
C26   N12   A    
O7    Zn1   S    
