data_mof_unit_5726.cif
_audit_creation_date              2013-03-05T15:42:24-0500
_audit_creation_method            fapswitch 2.2
_symmetry_space_group_name_H-M    P1
_symmetry_Int_Tables_number       1
_space_group_crystal_system       triclinic
_cell_length_a                    10.974947
_cell_length_b                    11.059893
_cell_length_c                    18.858385
_cell_angle_alpha                 90.08404
_cell_angle_beta                  89.912743
_cell_angle_gamma                 60.421533
_cell_volume                      1990.74517402

loop_
_atom_site_label
_atom_site_type_symbol
_atom_site_description
_atom_site_fract_x
_atom_site_fract_y
_atom_site_fract_z
_atom_type_partial_charge
O1    O     O_R   0.507340 0.255690 0.581430 -0.507838
O2    O     O_R   0.280360 0.527380 0.578910 -0.515217
C1    C     C_R   0.231414 0.646167 0.607794 0.528786
O3    O     O_R   0.260600 0.739610 0.584580 -0.469920
O4    O     O_R   0.532370 0.695050 0.573830 -0.436886
C2    C     C_R   0.654326 0.623318 0.600232 0.540203
O5    O     O_R   0.744850 0.503430 0.576380 -0.535931
O6    O     O_R   0.699080 0.276500 0.571950 -0.520032
C3    C     C_R   0.630662 0.226109 0.602013 0.540137
O7    O     O_R   0.498860 0.256520 0.419860 -0.526622
O8    O     O_R   0.272490 0.528150 0.429140 -0.521634
C4    C     C_R   0.223334 0.647564 0.401593 0.521482
O9    O     O_R   0.252110 0.740440 0.423010 -0.523551
O10   O     O_R   0.524510 0.695820 0.424050 -0.506365
C5    C     C_R   0.644258 0.625310 0.394161 0.526240
O11   O     O_R   0.736370 0.504260 0.414810 -0.531468
O12   O     O_R   0.691220 0.277270 0.422180 -0.515536
C6    C     C_R   0.616955 0.230277 0.394688 0.528780
Cr1   Cr    Cr6+3 0.392940 0.397950 0.502230 1.002249
Cr2   Cr    Cr6+3 0.398400 0.708500 0.501260 1.074927
Cr3   Cr    Cr6+3 0.708640 0.393530 0.496460 0.993588
O13   O     O_3   0.499990 0.499990 0.499980 -0.255746
C7    C     C_3   0.586558 0.820423 0.780222 0.127775
H1    H     H_    0.627301 0.891563 0.791774 0.074637
C8    C     C_3   0.583338 0.809459 0.697674 0.102346
H2    H     H_    0.641082 0.860143 0.675330 0.069589
H3    H     H_    0.871201 0.707919 0.776184 0.114335
H4    H     H_    0.863419 0.657112 0.659536 0.110714
C9    C     C_3   0.838318 0.627728 0.771486 -0.285106
C10   C     C_3   0.649281 0.569433 0.799630 -0.243191
C11   C     C_3   0.697161 0.676681 0.812100 0.011731
H5    H     H_    0.734126 0.468967 0.816848 0.131313
H6    H     H_    0.557682 0.586562 0.831790 0.178230
C12   C     C_3   0.668105 0.651924 0.675650 0.011891
C13   C     C_3   0.823376 0.601518 0.693013 -0.291788
C14   C     C_3   0.619227 0.564929 0.720546 -0.221945
H7    H     H_    0.505657 0.603257 0.712989 0.180302
H8    H     H_    0.673969 0.454972 0.702803 0.145248
H9    H     H_    0.924089 0.529935 0.794247 0.171143
H10   H     H_    0.888021 0.488515 0.682030 0.191886
H11   H     H_    0.502727 0.130133 0.683331 0.190793
C15   C     C_R   0.685311 0.153139 0.822066 -0.009591
C16   C     C_R   0.780149 0.182361 0.785951 0.007112
C17   C     C_R   0.785349 0.174768 0.710504 0.014416
C18   C     C_R   0.583691 0.141206 0.710015 -0.163609
C19   C     C_R   0.585478 0.138710 0.782211 -0.156566
C20   C     C_R   0.869746 0.218484 0.822204 -0.133031
C21   C     C_R   0.970971 0.234397 0.785056 -0.097202
C22   C     C_R   0.987099 0.209224 0.712291 -0.075520
C23   C     C_R   0.897200 0.177618 0.675529 -0.089139
C24   C     C_R   0.677356 0.166255 0.672857 -0.014941
H12   H     H_    0.861872 0.235132 0.878957 0.135013
H13   H     H_    0.510414 0.116570 0.806524 0.184799
H14   H     H_    0.039434 0.261519 0.813430 0.138889
H15   H     H_    0.067615 0.215288 0.682828 0.154208
H16   H     H_    0.918894 0.152583 0.619915 0.137924
H17   H     H_    0.100340 0.880005 0.678930 0.190951
C25   C     C_R   0.158473 0.685719 0.827671 0.004599
C26   C     C_R   0.197495 0.556573 0.795644 -0.020607
C27   C     C_R   0.185920 0.547009 0.720684 0.030354
C28   C     C_R   0.124890 0.789043 0.710604 -0.068026
C29   C     C_R   0.127181 0.800280 0.783050 0.094266
C30   C     C_R   0.244304 0.437357 0.837714 -0.108325
C31   C     C_R   0.259270 0.316420 0.809479 -0.165515
C32   C     C_R   0.238600 0.307374 0.737666 -0.094135
C33   C     C_R   0.194901 0.422092 0.693188 0.134082
C34   C     C_R   0.166316 0.662495 0.678234 -0.057753
H18   H     H_    0.270027 0.436175 0.893154 0.140325
H19   H     H_    0.286720 0.229891 0.844559 0.173720
H20   H     H_    0.255150 0.210082 0.716384 0.196009
H21   H     H_    0.449553 0.777685 0.298153 0.143792
C35   C     C_R   0.712539 0.693699 0.181138 0.001285
C36   C     C_R   0.828099 0.604364 0.225969 0.019343
C37   C     C_R   0.806899 0.612440 0.299985 0.023419
C38   C     C_R   0.555792 0.741377 0.280068 -0.149193
C39   C     C_R   0.577299 0.759527 0.209319 -0.140639
C40   C     C_R   0.960915 0.498744 0.201205 -0.105771
C41   C     C_R   0.062609 0.408201 0.248001 -0.156914
C42   C     C_R   0.046665 0.432667 0.320234 -0.111294
C43   C     C_R   0.923341 0.542571 0.345635 -0.081101
C44   C     C_R   0.669309 0.672339 0.326245 -0.004920
H22   H     H_    0.991228 0.474798 0.146872 0.174903
H23   H     H_    0.487190 0.816970 0.175465 0.143590
H24   H     H_    0.159472 0.326916 0.227206 0.116313
H25   H     H_    0.131186 0.369180 0.356141 0.127276
H26   H     H_    0.915096 0.563383 0.402086 0.124737
H27   H     H_    0.751745 0.301080 0.301018 0.146499
C45   C     C_R   0.632561 0.171221 0.174141 0.024751
C46   C     C_R   0.544043 0.140754 0.217524 0.003576
C47   C     C_R   0.569499 0.124634 0.290648 0.013428
C48   C     C_R   0.705525 0.243378 0.277906 -0.123913
C49   C     C_R   0.705976 0.231430 0.204479 0.071889
C50   C     C_R   0.429924 0.127665 0.191281 -0.099459
C51   C     C_R   0.358872 0.080956 0.234477 -0.153490
C52   C     C_R   0.396441 0.049508 0.304944 -0.120564
C53   C     C_R   0.505853 0.064252 0.332104 -0.073977
C54   C     C_R   0.644754 0.183768 0.321360 -0.022600
H28   H     H_    0.386720 0.161938 0.139036 0.141258
H29   H     H_    0.273840 0.070099 0.212846 0.099572
H30   H     H_    0.341255 0.012978 0.338505 0.124590
H31   H     H_    0.535714 0.034301 0.386696 0.135957
H32   H     H_    0.305751 0.443161 0.306381 0.154898
C55   C     C_R   0.143714 0.693798 0.185583 0.009614
C56   C     C_R   0.104943 0.812612 0.231048 0.036395
C57   C     C_R   0.091393 0.796497 0.303442 0.017737
C58   C     C_R   0.237107 0.546413 0.285827 -0.135132
C59   C     C_R   0.216799 0.561385 0.213430 -0.164605
C60   C     C_R   0.089114 0.943085 0.209254 -0.066706
C61   C     C_R   0.041625 0.054848 0.256341 -0.128625
C62   C     C_R   0.004687 0.041888 0.325070 -0.118299
C63   C     C_R   0.023935 0.914623 0.347967 -0.087377
C64   C     C_R   0.168328 0.662620 0.331149 0.007406
H33   H     H_    0.124006 0.959230 0.158460 0.148964
H34   H     H_    0.258825 0.470601 0.179341 0.113778
H35   H     H_    0.033059 0.152068 0.239405 0.118589
H36   H     H_    0.965677 0.129074 0.361360 0.127741
H37   H     H_    0.999333 0.905529 0.402682 0.116156
O14   O     O_R   0.089570 0.825450 0.930590 -0.519844
O15   O     O_R   0.818700 0.054260 0.929860 -0.523368
C65   C     C_R   0.701348 0.103172 0.896066 0.518604
O16   O     O_R   0.606310 0.077010 0.915520 -0.525549
O17   O     O_R   0.646730 0.806540 0.917560 -0.450473
C66   C     C_R   0.723412 0.688488 0.888287 0.576020
O18   O     O_R   0.837290 0.593240 0.915240 -0.533178
O19   O     O_R   0.065320 0.635310 0.931580 -0.513215
C67   C     C_R   0.111248 0.711555 0.903017 0.537875
O20   O     O_R   0.068470 0.828620 0.091850 -0.529359
O21   O     O_R   0.799150 0.057200 0.079350 -0.463390
C68   C     C_R   0.672078 0.108991 0.103407 0.559088
O22   O     O_R   0.585220 0.080180 0.076770 -0.553885
O23   O     O_R   0.627170 0.809480 0.067050 -0.491563
C69   C     C_R   0.732129 0.713465 0.105680 0.559374
O24   O     O_R   0.816200 0.596410 0.076500 -0.538656
O25   O     O_R   0.045770 0.638240 0.081070 -0.530435
C70   C     C_R   0.092492 0.713133 0.112994 0.542215
Cr4   Cr    Cr6+3 0.937880 0.938320 0.007620 1.021792
Cr5   Cr    Cr6+3 0.625560 0.937220 0.994510 1.048586
Cr6   Cr    Cr6+3 0.938080 0.625010 0.001190 0.989096
O26   O     O_3   0.833840 0.833520 0.001110 -0.282266
N1    N     N_R   0.446379 0.879392 0.813486 0.115440
O27   O     O_R   0.419906 0.816818 0.864601 -0.373057
O28   O     O_R   0.351049 0.005311 0.798199 -0.387832
N2    N     N_3   0.091136 0.933798 0.809270 -0.565806
H38   H     H_    0.998016 0.967609 0.836525 0.261193
H39   H     H_    0.168723 0.927376 0.843268 0.328590
N3    N     N_3   0.136570 0.414195 0.626266 -0.654250
H40   H     H_    0.076449 0.511644 0.603042 0.231920
H41   H     H_    0.217185 0.347196 0.592277 0.276010
N4    N     N_R   0.440695 0.884897 0.668931 0.117934
O29   O     O_R   0.347423 0.850632 0.686404 -0.295286
O30   O     O_R   0.407601 0.984471 0.623325 -0.389883
N5    N     N_3   0.775638 0.284695 0.160308 -0.608359
H42   H     H_    0.699155 0.363892 0.129193 0.234493
H43   H     H_    0.819478 0.331828 0.191267 0.226292

loop_
_geom_bond_atom_site_label_1
_geom_bond_atom_site_label_2
_geom_bond_distance
_ccdc_geom_bond_type
C25   C29   1.416262 A    
C10   H5    1.089806 S    
C38   C39   1.386620 A    
C50   C51   1.391237 A    
H27   C48   1.083509 S    
H3    C9    1.113798 S    
C36   C37   1.410158 A    
C52   C53   1.387733 A    
C3    C24   1.468158 S    
C42   H25   1.082748 S    
C29   N2    1.414988 S    
C35   C39   1.394690 A    
O21   C68   1.299046 A    
N4    O29   1.297068 A    
C66   O18   1.278211 A    
C5    C44   1.458977 S    
O4    Cr2   1.961553 S    
C58   C64   1.410385 A    
C40   C41   1.389050 A    
C32   C33   1.395328 A    
C21   H14   1.078955 S    
Cr5   O26   1.992272 S    
O8    Cr1   1.962925 S    
O11   Cr3   2.082165 S    
C40   H22   1.068589 S    
O18   Cr6   2.088494 S    
C14   H7    1.110256 S    
O20   C70   1.236653 A    
N3    H40   1.043542 S    
N4    O30   1.301267 A    
C10   C11   1.534041 S    
N2    H38   1.033935 S    
C58   C59   1.380672 A    
C18   C24   1.379872 A    
C5    O11   1.277722 A    
C60   C61   1.395497 A    
C8    N4    1.468040 S    
C12   C13   1.544756 S    
C15   C19   1.401992 A    
O16   Cr5   2.083070 S    
C55   C70   1.456075 S    
C62   C63   1.385911 A    
C43   H26   1.083005 S    
C45   C49   1.396398 A    
C27   C34   1.432054 A    
C69   O24   1.283471 A    
C49   N5    1.438603 S    
C7    H1    1.101630 S    
H32   C58   1.083850 S    
C6    C54   1.453143 S    
C47   C54   1.406751 A    
C10   H6    1.106410 S    
C8    C12   1.571677 S    
C45   C46   1.431151 A    
C56   C60   1.426832 A    
C57   C63   1.414216 A    
C27   C33   1.432002 A    
C26   C27   1.427941 A    
C37   C43   1.414850 A    
C53   H31   1.082526 S    
C28   C29   1.373074 A    
C45   C68   1.463576 S    
Cr4   O26   1.992207 S    
C39   H23   1.082615 S    
C56   C57   1.394277 A    
C48   C54   1.408909 A    
C35   C69   1.471509 S    
N3    H41   1.045165 S    
O1    Cr1   2.084486 S    
O10   Cr2   1.963924 S    
C7    N1    1.480211 S    
Cr1   O13   1.991155 S    
O1    C3    1.286222 A    
O20   Cr4   2.084515 S    
H4    C13   1.112124 S    
C48   C49   1.390587 A    
C41   C42   1.382331 A    
C38   C44   1.399864 A    
C8    H2    1.115340 S    
O5    Cr3   2.092888 S    
O12   Cr3   1.972398 S    
C2    C12   1.480672 S    
C7    C11   1.569124 S    
C60   H33   1.078424 S    
C16   C17   1.424558 A    
C59   H34   1.083584 S    
O23   Cr5   1.961828 S    
C41   H24   1.070664 S    
C28   C34   1.380829 A    
C20   C21   1.395330 A    
O7    Cr1   2.098396 S    
O15   C65   1.293538 A    
C9    H9    1.112494 S    
O12   C6    1.273544 A    
O6    C3    1.268312 A    
C31   H19   1.077997 S    
N1    O27   1.300843 A    
H17   C28   1.084499 S    
C2    O5    1.282142 A    
C17   C24   1.424851 A    
C21   C22   1.393311 A    
C57   C64   1.395593 A    
Cr2   O13   2.005788 S    
C25   C67   1.489838 S    
O19   C67   1.294384 A    
C42   C43   1.382393 A    
C15   C16   1.407925 A    
C37   C44   1.404824 A    
C1    O3    1.300006 A    
C62   H36   1.082159 S    
C4    C64   1.435558 S    
O14   Cr4   2.091824 S    
C65   O16   1.266225 A    
C68   O22   1.250377 A    
C17   C23   1.406663 A    
N2    H39   1.040797 S    
C30   H18   1.081771 S    
H11   C18   1.080001 S    
O9    Cr2   2.080606 S    
O2    Cr1   1.977176 S    
C52   H30   1.082499 S    
C1    C34   1.475364 S    
O17   Cr5   1.977384 S    
N5    H43   1.044845 S    
C35   C36   1.438095 A    
O6    Cr3   1.962662 S    
O25   Cr6   1.965464 S    
O8    C4    1.266743 A    
C47   C53   1.416151 A    
C20   H12   1.081805 S    
N1    O28   1.296480 A    
O19   Cr6   1.959138 S    
C9    C13   1.532104 S    
O25   C70   1.315400 A    
C26   C30   1.402664 A    
O15   Cr4   1.964960 S    
C10   C14   1.533966 S    
C63   H37   1.083509 S    
C31   C32   1.385095 A    
O21   Cr4   1.972034 S    
C13   H10   1.109806 S    
C25   C26   1.407528 A    
C11   C66   1.483982 S    
C9    C11   1.564249 S    
C22   H15   1.072940 S    
O23   C69   1.335108 A    
H21   C38   1.083155 S    
C15   C65   1.480162 S    
O4    C2    1.274225 A    
C51   H29   1.078592 S    
O7    C6    1.271137 A    
C19   H13   1.071073 S    
C14   H8    1.108484 S    
O2    C1    1.269469 A    
C12   C14   1.562338 S    
C7    C8    1.563070 S    
C46   C50   1.419568 A    
C51   C52   1.385044 A    
C23   H16   1.080094 S    
C33   N3    1.437897 S    
Cr6   O26   2.005581 S    
C61   H35   1.080876 S    
C30   C31   1.371245 A    
O3    Cr2   2.086137 S    
C18   C19   1.361806 A    
O24   Cr6   2.078359 S    
C4    O9    1.279623 A    
C22   C23   1.384976 A    
C61   C62   1.386055 A    
C55   C56   1.444492 A    
O17   C66   1.276476 A    
C36   C40   1.422222 A    
O10   C5    1.279725 A    
C55   C59   1.381207 A    
N5    H42   1.045599 S    
O14   C67   1.271055 A    
C46   C47   1.401507 A    
Cr3   O13   1.992990 S    
O22   Cr5   2.098118 S    
C16   C20   1.408196 A    
C50   H28   1.079050 S    
C32   H20   1.075867 S    
