data_mof_unit_62128.cif
_audit_creation_date              2012-12-10T17:57:05-0500
_audit_creation_method            fapswitch 2.2
_symmetry_space_group_name_H-M    P1
_symmetry_Int_Tables_number       1
_space_group_crystal_system       triclinic
_cell_length_a                    18.537371
_cell_length_b                    18.73606
_cell_length_c                    18.920045
_cell_angle_alpha                 110.112738
_cell_angle_beta                  109.257393
_cell_angle_gamma                 109.154057
_cell_volume                      5051.32538282

loop_
_atom_site_label
_atom_site_type_symbol
_atom_type_description
_atom_site_fract_x
_atom_site_fract_y
_atom_site_fract_z
_atom_type_partial_charge
C1    C     C_R   0.379769 0.379511 0.500102 0.869263
C2    C     C_3   0.803341 0.493671 0.806525 -0.067449
C3    C     C_3   0.845365 0.561519 0.779124 -0.229426
C4    C     C_3   0.746368 0.526830 0.840932 -0.061552
C5    C     C_R   0.255568 0.329670 0.524590 -0.167190
C6    C     C_R   0.191482 0.264649 0.523064 -0.222604
C7    C     C_R   0.187307 0.183522 0.499150 -0.034618
C8    C     C_R   0.246624 0.165640 0.475412 0.166231
C9    C     C_R   0.310005 0.231357 0.476067 -0.214790
C10   C     C_R   0.314336 0.312727 0.500614 -0.050760
C11   C     C_R   0.338405 0.573025 0.298988 0.144246
C12   C     C_R   0.615658 0.494851 0.619436 0.861106
C13   C     C_R   0.272947 0.571199 0.233623 -0.166555
C14   C     C_R   0.186463 0.500905 0.185073 -0.104504
C15   C     C_R   0.164033 0.431231 0.200642 -0.213084
C16   C     C_R   0.227546 0.431157 0.264576 -0.019027
C17   C     C_R   0.314252 0.501960 0.313756 -0.113617
C18   C     C_R   0.750701 0.765517 0.574463 -0.007537
C19   C     C_R   0.814674 0.826612 0.572479 -0.271809
C20   C     C_R   0.812696 0.810719 0.494344 -0.075193
C21   C     C_R   0.746754 0.732924 0.415083 0.112344
C22   C     C_R   0.680990 0.670570 0.416412 -0.035620
C23   C     C_R   0.619199 0.620363 0.498856 0.858524
C24   C     C_R   0.683986 0.686653 0.496528 -0.160070
C25   C     C_R   0.998237 0.379474 0.877847 0.868688
C26   C     C_R   0.875388 0.499685 0.877035 0.876492
C27   C     C_R   0.996826 0.620306 0.117042 0.856116
C28   C     C_R   0.118884 0.500292 0.118324 0.890675
C29   C     C_R   0.001230 0.880220 0.380723 0.826499
C30   C     C_R   0.120376 0.119072 0.499671 0.850999
C31   C     C_R   0.999113 0.119875 0.618950 0.853985
C32   C     C_R   0.879758 0.878571 0.497773 0.876337
C33   C     C_R   0.076225 0.329730 0.808506 -0.178545
C34   C     C_R   0.379797 0.500694 0.379623 0.864854
C35   C     C_R   0.076584 0.265423 0.745136 -0.189245
C36   C     C_R   0.998561 0.185989 0.684078 0.004954
C37   C     C_R   0.920442 0.169240 0.686090 -0.186085
C38   C     C_R   0.920672 0.232409 0.751125 -0.187907
C39   C     C_R   0.998381 0.312900 0.811668 -0.017747
C40   C     C_R   0.005128 0.762035 0.181624 -0.184371
C41   C     C_R   0.006047 0.825960 0.246600 -0.187707
C42   C     C_R   0.002473 0.814998 0.314989 -0.001154
C43   C     C_R   0.997295 0.740547 0.318860 -0.193441
C44   C     C_R   0.993933 0.675459 0.252612 -0.178944
C45   C     C_3   0.675813 0.395184 0.643447 0.142534
C46   C     C_R   0.998261 0.686707 0.184507 -0.014180
C47   C     C_3   0.741151 0.392556 0.723715 0.246658
C48   C     C_3   0.773231 0.569172 0.718237 -0.099968
C49   C     C_3   0.664011 0.503771 0.761546 -0.494468
C50   C     C_3   0.681195 0.489471 0.683189 -0.081825
H1    H     H_    0.785517 0.599705 0.878920 0.176476
H2    H     H_    0.771101 0.628227 0.756868 0.191132
H3    H     H_    0.258371 0.392462 0.543072 0.158566
H4    H     H_    0.145518 0.277668 0.541241 0.145324
H5    H     H_    0.355972 0.219018 0.457493 0.158709
H6    H     H_    0.288027 0.624508 0.220607 0.170855
H7    H     H_    0.097081 0.376614 0.162743 0.168093
H8    H     H_    0.866243 0.887705 0.632185 0.158755
H9    H     H_    0.136632 0.391743 0.855645 0.151573
H10   H     H_    0.136926 0.277687 0.742906 0.135993
H11   H     H_    0.860313 0.107033 0.638591 0.136341
H12   H     H_    0.860291 0.218971 0.753436 0.142077
H13   H     H_    0.008232 0.770446 0.128617 0.153932
H14   H     H_    0.010243 0.884048 0.244112 0.143431
H15   H     H_    0.993882 0.732185 0.371789 0.141047
H16   H     H_    0.989231 0.617197 0.254947 0.148121
H17   H     H_    0.879248 0.540378 0.745910 0.182672
H18   H     H_    0.650528 0.559015 0.781321 0.208377
H19   H     H_    0.604439 0.445262 0.742953 0.180223
O1    O     O_R   0.408680 0.356690 0.448540 -0.624721
O2    O     O_R   0.049540 0.460010 0.906120 -0.627761
O3    O     O_R   0.853500 0.448290 0.905220 -0.659772
O4    O     O_R   0.956960 0.551660 0.905160 -0.618141
O5    O     O_R   0.945110 0.539900 0.088450 -0.630570
O6    O     O_R   0.048570 0.643270 0.088390 -0.615367
O7    O     O_R   0.037700 0.448250 0.089410 -0.621782
O8    O     O_R   0.141150 0.551620 0.089350 -0.628637
O9    O     O_R   0.948590 0.908340 0.356800 -0.621170
O10   O     O_R   0.052580 0.908350 0.460820 -0.620330
O11   O     O_R   0.039640 0.091520 0.447910 -0.617194
O12   O     O_R   0.408060 0.460070 0.551440 -0.630277
O13   O     O_R   0.143620 0.091540 0.551930 -0.617275
O14   O     O_R   0.947420 0.091470 0.539000 -0.619951
O15   O     O_R   0.051410 0.091490 0.643030 -0.616982
O16   O     O_R   0.856380 0.908290 0.447890 -0.619376
O17   O     O_R   0.960370 0.908300 0.551910 -0.622467
O18   O     O_R   0.592410 0.448290 0.540650 -0.624487
O19   O     O_R   0.591790 0.551670 0.643550 -0.626222
O20   O     O_R   0.591940 0.539930 0.448560 -0.615259
O21   O     O_R   0.591320 0.643310 0.551460 -0.612382
O22   O     O_R   0.408210 0.448330 0.356450 -0.602860
O23   O     O_R   0.407590 0.551710 0.459350 -0.628859
O24   O     O_R   0.946090 0.356640 0.906180 -0.626692
Zn1   Zn    Zn3+2 0.500420 0.430970 0.431290 0.974335
Zn2   Zn    Zn3+2 0.499580 0.569030 0.568710 0.956929
Zn3   Zn    Zn3+2 0.928250 0.430930 0.997320 0.931316
Zn4   Zn    Zn3+2 0.066410 0.568980 0.997240 0.957007
Zn5   Zn    Zn3+2 0.930570 0.999900 0.430450 0.953111
Zn6   Zn    Zn3+2 0.069430 0.999920 0.569370 0.955067
C51   C     C_1   0.706491 0.387295 0.579041 0.245730
N1    N     N_1   0.726976 0.378054 0.526331 -0.242731
C52   C     C_1   0.913244 0.651683 0.853803 0.190353
N2    N     N_1   0.965810 0.721709 0.911740 -0.209500
C53   C     C_3   0.242689 0.077681 0.446715 -0.418499
C54   C     C_3   0.314399 0.081430 0.519369 -0.831114
H20   H     H_    0.380711 0.130772 0.538027 0.245563
H21   H     H_    0.305738 0.098855 0.577185 0.271817
H22   H     H_    0.310146 0.016328 0.496851 0.249733
H23   H     H_    0.177572 0.024760 0.426152 0.203971
H24   H     H_    0.251564 0.058777 0.388985 0.203050
C55   C     C_3   0.433435 0.648558 0.353636 -0.386751
C56   C     C_3   0.456456 0.715479 0.324469 -0.891042
H25   H     H_    0.441186 0.682458 0.255972 0.263302
H26   H     H_    0.420102 0.751766 0.331854 0.258017
H27   H     H_    0.528135 0.763674 0.365787 0.259131
H28   H     H_    0.448877 0.683811 0.421976 0.219436
H29   H     H_    0.477783 0.620831 0.352720 0.202494
C57   C     C_3   0.573813 0.317209 0.588212 -0.390485
C58   C     C_3   0.543743 0.240782 0.499552 -0.851007
H30   H     H_    0.536778 0.262275 0.450976 0.273666
H31   H     H_    0.591071 0.216284 0.503933 0.249540
H32   H     H_    0.478470 0.185575 0.475516 0.232552
H33   H     H_    0.549729 0.287186 0.621964 0.209397
H34   H     H_    0.527217 0.341562 0.573927 0.191514
C59   C     C_1   0.202182 0.358488 0.279730 0.159567
N3    N     N_1   0.182005 0.300448 0.291974 -0.197947
C60   C     C_1   0.756584 0.785482 0.657857 0.199433
N4    N     N_1   0.761216 0.801621 0.724537 -0.210820
C61   C     C_3   0.748444 0.714482 0.330660 -0.396286
C62   C     C_3   0.684760 0.732971 0.274527 -0.801534
H35   H     H_    0.615785 0.689286 0.254715 0.252172
H36   H     H_    0.701098 0.802063 0.310418 0.269885
H37   H     H_    0.689597 0.721262 0.215034 0.242043
H38   H     H_    0.815542 0.753594 0.343019 0.201065
H39   H     H_    0.731140 0.645178 0.293280 0.202065
C63   C     C_1   0.610070 0.591175 0.335286 0.179503
N5    N     N_1   0.553600 0.528005 0.270609 -0.198564
C64   C     C_3   0.684176 0.329523 0.747983 -0.384802
C65   C     C_3   0.645128 0.229533 0.692653 -0.950184
H40   H     H_    0.618892 0.205394 0.622778 0.281734
H41   H     H_    0.695670 0.210591 0.713997 0.252028
H42   H     H_    0.590689 0.194509 0.701665 0.258284
H43   H     H_    0.720632 0.341193 0.812977 0.243199
H44   H     H_    0.631081 0.341885 0.751408 0.182779
C66   C     C_3   0.797823 0.349498 0.700616 -0.375182
C67   C     C_3   0.880480 0.399181 0.698075 -0.939010
H45   H     H_    0.904419 0.353429 0.675797 0.265370
H46   H     H_    0.868467 0.423135 0.652075 0.265415
H47   H     H_    0.934992 0.453634 0.763246 0.276835
H48   H     H_    0.821637 0.329745 0.748625 0.223669
H49   H     H_    0.753696 0.287862 0.636632 0.224678
C68   C     C_3   0.795099 0.587909 0.650975 -0.396334
C69   C     C_3   0.875479 0.677981 0.693252 -0.865423
H50   H     H_    0.871459 0.729947 0.739760 0.272905
H51   H     H_    0.937075 0.678260 0.727696 0.263497
H52   H     H_    0.878793 0.693330 0.642297 0.254997
H53   H     H_    0.809307 0.539552 0.614416 0.230008
H54   H     H_    0.739252 0.586358 0.603670 0.227478
C70   C     C_3   0.727189 0.507224 0.908497 -0.377274
C71   C     C_3   0.680704 0.553388 0.941127 -0.895828
H55   H     H_    0.719036 0.625026 0.967645 0.259605
H56   H     H_    0.613401 0.526325 0.887922 0.264494
H57   H     H_    0.674705 0.542919 0.993710 0.257719
H58   H     H_    0.686791 0.437078 0.884113 0.213231
H59   H     H_    0.790511 0.532737 0.966509 0.226953

loop_
_geom_bond_atom_site_label_1
_geom_bond_atom_site_label_2
_ccdc_geom_bond_type
C45   C57   S    
C47   C66   S    
C25   O24   A    
C49   H18   S    
C29   C42   S    
C26   O3    A    
C41   C42   A    
C44   H16   S    
C55   C56   S    
C56   H26   S    
C66   C67   S    
C7    C8    A    
C40   C46   A    
C54   H21   S    
C33   C39   A    
C40   H13   S    
C11   C13   A    
C18   C24   A    
C5    C6    A    
C5    H3    S    
C36   C37   A    
O1    Zn1   S    
C61   C62   S    
C64   H43   S    
C31   C36   S    
C20   C32   S    
C53   H23   S    
O12   Zn2   S    
C65   H42   S    
C4    C70   S    
C32   O16   A    
C1    O12   A    
C15   C16   A    
O18   Zn1   S    
C3    C48   S    
O6    Zn4   S    
C26   O4    A    
C31   O14   A    
C18   C19   A    
O13   Zn6   S    
O20   Zn1   S    
C49   C50   S    
C57   C58   S    
C53   C54   S    
O16   Zn5   S    
C61   H39   S    
C29   O9    A    
C35   C36   A    
C8    C9    A    
O14   Zn5   S    
O9    Zn5   S    
C23   C24   S    
C23   O20   A    
O8    Zn4   S    
C55   H28   S    
C9    H5    S    
C69   H51   S    
C27   O5    A    
C16   C59   S    
C66   H48   S    
C13   H6    S    
C30   O11   A    
C48   C50   S    
O19   Zn2   S    
C33   H9    S    
C7    C30   S    
C49   H19   S    
C21   C22   A    
C15   H7    S    
C6    H4    S    
C27   O6    A    
C56   H25   S    
C44   C46   A    
C67   H46   S    
C45   C47   S    
C19   H8    S    
C54   H22   S    
C68   H54   S    
C12   O19   A    
C4    H1    S    
C11   C55   S    
C71   H57   S    
O5    Zn3   S    
O21   Zn2   S    
C16   C17   A    
O23   Zn2   S    
C31   O15   A    
C70   H59   S    
C22   C63   S    
C35   H10   S    
C71   H56   S    
C34   O22   A    
C30   O13   A    
C62   H36   S    
C43   C44   A    
C37   C38   A    
C28   O8    A    
C18   C60   S    
C67   H47   S    
O2    Zn4   S    
C12   C50   S    
C70   C71   S    
C29   O10   A    
C43   H15   S    
C32   O17   A    
C23   O21   A    
C2    C26   S    
C57   H34   S    
C68   C69   S    
C69   H52   S    
O17   Zn6   S    
C8    C53   S    
C21   C61   S    
C66   H49   S    
C58   H31   S    
C25   O2    A    
C3    C52   S    
C40   C41   A    
O4    Zn4   S    
O24   Zn3   S    
C48   C68   S    
C59   N3    T    
C22   C24   A    
C62   H37   S    
C42   C43   A    
C60   N4    T    
C28   O7    A    
C27   C46   S    
C67   H45   S    
C9    C10   A    
C58   H32   S    
O10   Zn6   S    
C68   H53   S    
C11   C17   A    
C12   O18   A    
O11   Zn5   S    
C14   C15   A    
O15   Zn6   S    
C3    H17   S    
C1    C10   S    
C63   N5    T    
C45   C51   S    
C37   H11   S    
C65   H40   S    
C6    C7    A    
C2    C47   S    
C54   H20   S    
C1    O1    A    
C4    C49   S    
C55   H29   S    
C71   H55   S    
C19   C20   A    
C62   H35   S    
C5    C10   A    
C64   H44   S    
C25   C39   S    
O22   Zn1   S    
C53   H24   S    
C65   H41   S    
C38   C39   A    
C45   C50   S    
C2    C4    S    
C47   C64   S    
C51   N1    T    
C33   C35   A    
C2    C3    S    
C57   H33   S    
C52   N2    T    
C34   O23   A    
C64   C65   S    
C61   H38   S    
O3    Zn3   S    
C48   H2    S    
C20   C21   A    
C58   H30   S    
C17   C34   S    
C70   H58   S    
C41   H14   S    
C14   C28   S    
C69   H50   S    
C13   C14   A    
C56   H27   S    
O7    Zn3   S    
C38   H12   S    
