data_mof_unit_58281.cif
_audit_creation_date              2012-12-11T14:25:58-0500
_audit_creation_method            fapswitch 2.2
_symmetry_space_group_name_H-M    P1
_symmetry_Int_Tables_number       1
_space_group_crystal_system       triclinic
_cell_length_a                    6.965416
_cell_length_b                    14.750441
_cell_length_c                    16.247995
_cell_angle_alpha                 90.732923
_cell_angle_beta                  89.881351
_cell_angle_gamma                 89.68409
_cell_volume                      1669.20128331

loop_
_atom_site_label
_atom_site_type_symbol
_atom_type_description
_atom_site_fract_x
_atom_site_fract_y
_atom_site_fract_z
_atom_type_partial_charge
O1    O     O_R   0.494490 0.416160 0.413410 -0.548168
O2    O     O_R   0.823830 0.407240 0.585990 -0.541052
O3    O     O_R   0.994160 0.583840 0.586590 -0.517581
C1    C     C_R   0.655396 0.387749 0.615319 0.784460
O4    O     O_R   0.824200 0.405280 0.414020 -0.534827
O5    O     O_R   0.994530 0.581860 0.413390 -0.551525
C2    C     C_R   0.656471 0.385455 0.383777 0.782162
O6    O     O_R   0.494110 0.418140 0.586610 -0.543581
O7    O     O_3   0.660810 0.557940 0.500000 -0.370606
V1    V     V_3+5 0.935650 0.489250 0.500000 1.569965
O8    O     O_R   0.324250 0.592760 0.414010 -0.515383
C3    C     C_R   0.155114 0.613634 0.385490 0.726983
O9    O     O_R   0.323880 0.594720 0.585980 -0.548239
C4    C     C_R   0.154935 0.614509 0.616065 0.855731
V2    V     V_3+5 0.435660 0.510750 0.500000 1.581620
O10   O     O_3   0.160630 0.442060 0.500000 -0.389622
C5    C     C_3   0.961347 0.671748 0.741246 0.306174
H1    H     H_    0.832560 0.693687 0.706220 0.185028
C6    C     C_3   0.976453 0.732229 0.819268 -0.339445
H2    H     H_    0.016459 0.690140 0.873082 0.205497
H3    H     H_    0.835915 0.759209 0.836143 0.254712
C7    C     C_3   0.134039 0.782089 0.649899 0.126253
C8    C     C_3   0.329421 0.680687 0.740274 0.180988
C9    C     C_3   0.143614 0.684161 0.685847 -0.264885
H4    H     H_    0.455614 0.692952 0.699895 0.158701
C10   C     C_3   0.127614 0.808559 0.807882 -0.266845
C11   C     C_3   0.101946 0.855687 0.720616 0.257262
C12   C     C_3   0.322384 0.754934 0.809323 0.098786
H5    H     H_    0.339322 0.722943 0.870585 0.197579
H6    H     H_    0.275231 0.793717 0.619625 0.142000
C13   C     C_2   0.997100 0.722271 0.288312 -0.190113
C14   C     C_2   0.148392 0.668268 0.309559 0.179776
C15   C     C_2   0.987440 0.764140 0.205561 0.500033
C16   C     C_2   0.121186 0.824559 0.182538 -0.323603
H7    H     H_    0.242787 0.836957 0.222915 0.163952
C17   C     C_2   0.770551 0.211074 0.782734 -0.141358
C18   C     C_2   0.611185 0.163730 0.803116 -0.153283
H8    H     H_    0.898590 0.204111 0.820185 0.189577
C19   C     C_2   0.787143 0.273166 0.711269 -0.106316
C20   C     C_2   0.642190 0.327025 0.686427 -0.260211
H9    H     H_    0.926350 0.277543 0.681407 0.172634
H10   H     H_    0.506894 0.327564 0.719640 0.165460
C21   C     C_2   0.776957 0.219291 0.201595 -0.190558
C22   C     C_2   0.612283 0.183779 0.172421 -0.266107
H11   H     H_    0.912125 0.194065 0.176531 0.130235
H12   H     H_    0.475048 0.211101 0.192815 0.130941
C23   C     C_2   0.787655 0.297864 0.260602 0.001677
C24   C     C_2   0.646224 0.316019 0.316699 -0.285026
H13   H     H_    0.517113 0.275260 0.316185 0.113091
O11   O     O_R   0.770850 0.076180 0.907410 -0.542475
O12   O     O_R   0.440600 0.088970 0.079950 -0.556863
O13   O     O_R   0.270430 0.912340 0.080550 -0.535811
C25   C     C_R   0.608631 0.111791 0.107789 0.727814
O14   O     O_R   0.441120 0.087010 0.907980 -0.523127
O15   O     O_R   0.270950 0.910370 0.907350 -0.522474
C26   C     C_R   0.608765 0.106191 0.877895 0.774334
O16   O     O_R   0.770320 0.078150 0.080620 -0.550872
O17   O     O_3   0.604200 0.936340 0.994000 -0.337633
V3    V     V_3+5 0.329300 0.004970 0.993950 1.560428
O18   O     O_R   0.941240 0.899420 0.907920 -0.506633
C27   C     C_R   0.111577 0.876912 0.879553 0.764263
O19   O     O_R   0.940720 0.901380 0.079890 -0.520878
C28   C     C_R   0.109603 0.880694 0.108262 0.763684
V4    V     V_3+5 0.829310 0.983370 0.993880 1.611236
O20   O     O_3   0.104280 0.052120 0.993920 -0.392245
Cl1   Cl    Cl    0.523343 0.826708 0.800034 -0.653003
C29   C     C_2   0.236212 0.935137 0.708235 0.563105
H14   H     H_    0.291475 0.972719 0.760577 0.082343
O21   O     O_2   0.273181 0.962446 0.639336 -0.480304
C30   C     C_2   0.837405 0.744727 0.346460 0.499075
H15   H     H_    0.843372 0.725936 0.410430 0.097524
O22   O     O_2   0.697330 0.787634 0.323579 -0.475502
Cl2   Cl    Cl    0.339878 0.647897 0.239674 -0.492020
Cl3   Cl    Cl    0.792438 0.733894 0.141550 -0.473635
C31   C     C_2   0.441971 0.160243 0.747128 0.398159
H16   H     H_    0.461289 0.166500 0.681165 0.091089
O23   O     O_2   0.279476 0.151103 0.773925 -0.534925
Cl4   Cl    Cl    0.914611 0.556526 0.769333 -0.521112
C32   C     C_2   0.962581 0.354459 0.252963 0.470954
H17   H     H_    0.096112 0.323541 0.232050 0.013066
O24   O     O_2   0.956927 0.436417 0.264334 -0.496003
Cl5   Cl    Cl    0.965047 0.791739 0.566519 -0.586387
Cl6   Cl    Cl    0.871113 0.909330 0.714895 -0.507343
Cl7   Cl    Cl    0.374654 0.571071 0.783188 -0.520776

loop_
_geom_bond_atom_site_label_1
_geom_bond_atom_site_label_2
_ccdc_geom_bond_type
O15   V3    S    
O11   V4    S    
O2    C1    A    
C6    H2    S    
C23   C32   S    
C1    O6    A    
C19   H9    S    
C10   C11   S    
C7    Cl5   S    
C17   C18   D    
C6    H3    S    
C10   C27   S    
O5    C3    A    
V2    O10   S    
C16   H7    S    
C4    C9    S    
C6    C10   S    
C5    Cl4   S    
O19   V4    S    
C18   C26   S    
O8    V2    S    
C22   C25   S    
C13   C30   S    
C23   C24   D    
C8    C9    S    
C13   C15   S    
C30   H15   S    
O1    V2    S    
O7    V1    S    
C20   H10   S    
C18   C31   S    
O9    C4    A    
C3    C14   S    
C22   H12   S    
C5    H1    S    
O14   V3    S    
O17   V4    S    
O14   C26   A    
C5    C9    S    
C8    Cl7   S    
C29   H14   S    
C1    C20   S    
C19   C20   D    
O4    C2    A    
C25   O16   A    
O17   V3    S    
O11   C26   A    
O18   C27   A    
O12   C25   A    
C12   Cl1   S    
C31   H16   S    
O19   C28   A    
O13   V3    S    
C31   O23   D    
C13   C14   D    
C15   C16   D    
C8    C12   S    
C21   H11   S    
O3    C4    A    
C24   H13   S    
O6    V2    S    
C7    C11   S    
O9    V2    S    
C21   C22   D    
C7    C9    S    
O12   V3    S    
O2    V1    S    
C14   Cl2   S    
O16   V4    S    
C32   O24   D    
C12   H5    S    
C7    H6    S    
O1    C2    A    
C17   C19   S    
O13   C28   A    
O5    V1    S    
O8    C3    A    
C10   C12   S    
O18   V4    S    
C2    C24   S    
C17   H8    S    
O7    V2    S    
O4    V1    S    
O3    V1    S    
V1    O10   S    
V4    O20   S    
O15   C27   A    
C11   Cl6   S    
C16   C28   S    
C5    C6    S    
C8    H4    S    
C11   C29   S    
C32   H17   S    
C15   Cl3   S    
C30   O22   D    
C29   O21   D    
C21   C23   S    
V3    O20   S    
