data_mof_unit_35359.cif
_audit_creation_date              2013-03-05T16:10:20-0500
_audit_creation_method            fapswitch 2.2
_symmetry_space_group_name_H-M    P1
_symmetry_Int_Tables_number       1
_space_group_crystal_system       triclinic
_cell_length_a                    8.213826
_cell_length_b                    15.137773
_cell_length_c                    18.781599
_cell_angle_alpha                 101.19217
_cell_angle_beta                  91.285731
_cell_angle_gamma                 98.670774
_cell_volume                      2261.46950619

loop_
_atom_site_label
_atom_site_type_symbol
_atom_site_description
_atom_site_fract_x
_atom_site_fract_y
_atom_site_fract_z
_atom_type_partial_charge
P1    P     P_3+3 0.039430 0.410940 0.333230 0.466648
O1    O     O_2   0.871960 0.437280 0.322960 -0.395807
O2    O     O_3   0.121410 0.444460 0.412450 -0.339426
O3    O     O_3   0.661450 0.607570 0.372550 -0.324592
O4    O     O_2   0.788258 0.542188 0.248201 -0.384191
O5    O     O_3   0.008586 0.293220 0.333535 -0.606974
O6    O     O_3   0.705589 0.701479 0.256123 -0.576521
C1    C     C_3   0.547037 0.791329 0.193365 -0.836430
H1    H     H_    0.478176 0.736709 0.151179 0.159156
P2    P     P_3+3 0.676770 0.715000 0.563590 0.476560
P3    P     P_3+3 0.124362 0.771875 0.410588 0.453555
O7    O     O_2   0.852310 0.726980 0.542430 -0.370279
O8    O     O_3   0.084010 0.657370 0.410280 -0.346271
O9    O     O_2   0.005458 0.814811 0.464146 -0.414170
O10   O     O_3   0.697677 0.747534 0.658388 -0.541485
O11   O     O_3   0.041891 0.781938 0.326585 -0.479597
C2    C     C_3   0.144596 0.752128 0.271556 0.329416
H2    H     H_    0.165831 0.681276 0.272011 0.063136
H3    H     H_    0.261939 0.800425 0.278900 0.084414
C3    C     C_3   0.059015 0.753897 0.198982 -0.606178
H4    H     H_    0.947954 0.701094 0.189138 0.205271
H5    H     H_    0.023669 0.822337 0.201336 0.252326
C4    C     C_3   0.248695 0.742852 0.625415 0.270323
H6    H     H_    0.355909 0.710668 0.606302 0.069821
H7    H     H_    0.152696 0.727868 0.580367 0.126158
C5    C     C_3   0.301824 0.847156 0.647730 -0.573429
H8    H     H_    0.343274 0.873143 0.598916 0.101362
Ba1   Ba    Ba6+2 0.853520 0.540910 0.466490 1.595557
C6    C     C_3   0.891886 0.239192 0.280500 1.090280
H9    H     H_    0.800555 0.278841 0.264389 0.001076
C7    C     C_3   0.977000 0.199167 0.212317 -1.097965
H10   H     H_    0.883140 0.158568 0.170447 0.277028
H11   H     H_    0.064966 0.154932 0.225110 0.271890
H12   H     H_    0.048841 0.253939 0.189504 0.222801
C8    C     C_3   0.731849 0.674525 0.688553 0.408428
H13   H     H_    0.836198 0.645564 0.662035 0.098732
H14   H     H_    0.621510 0.621002 0.682227 0.106034
C9    C     C_3   0.778022 0.709163 0.769310 -0.914079
H15   H     H_    0.907208 0.744870 0.777015 0.323416
H16   H     H_    0.766040 0.651660 0.798428 0.186607
H17   H     H_    0.696089 0.757502 0.793803 0.259108
P4    P     P_3+3 0.150290 0.589140 0.666780 0.475616
O12   O     O_2   0.317750 0.562750 0.677090 -0.389473
O13   O     O_3   0.068300 0.555620 0.587560 -0.397971
O14   O     O_3   0.528270 0.392500 0.627460 -0.387188
O15   O     O_3   0.187163 0.708738 0.685137 -0.546105
P5    P     P_3+3 0.064874 0.223552 0.585056 0.465691
O16   O     O_3   0.609290 0.386840 0.459690 -0.386236
O17   O     O_3   0.105700 0.342700 0.589730 -0.320828
O18   O     O_2   0.195844 0.181458 0.537864 -0.415787
O19   O     O_3   0.112276 0.199160 0.670283 -0.583086
Ba2   Ba    Ba6+2 0.336320 0.459170 0.533520 1.587970
P6    P     P_3+3 0.648097 0.593773 0.277911 0.485305
C10   C     C_3   0.572984 0.751295 0.262227 1.032129
H18   H     H_    0.454525 0.707001 0.265523 -0.130053
H19   H     H_    0.471563 0.846911 0.205909 0.244209
O20   O     O_3   0.580430 0.613240 0.540320 -0.411253
C11   C     C_3   0.453469 0.310904 0.306981 0.407138
H20   H     H_    0.333437 0.326001 0.327609 0.109637
H21   H     H_    0.547917 0.373289 0.320189 0.106796
C12   C     C_3   0.433576 0.280001 0.224619 -0.983729
H22   H     H_    0.349142 0.214036 0.210046 0.286309
H23   H     H_    0.382228 0.331154 0.199749 0.219658
H24   H     H_    0.554331 0.271121 0.201439 0.249781
P7    P     P_3+3 0.519100 0.273058 0.431682 0.476569
O21   O     O_2   0.337390 0.273050 0.457610 -0.360635
O22   O     O_3   0.502219 0.240564 0.336784 -0.528782
C13   C     C_3   0.973126 0.196967 0.713244 1.040571
H25   H     H_    0.856476 0.180248 0.679872 -0.034441
C14   C     C_3   0.965938 0.119329 0.755834 -1.009820
H26   H     H_    0.087727 0.118299 0.782182 0.251876
H27   H     H_    0.874004 0.127254 0.798139 0.259414
H28   H     H_    0.927827 0.052380 0.718805 0.254105
P8    P     P_3+3 0.545384 0.403301 0.720791 0.440755
C15   C     C_3   0.520356 0.229448 0.678267 0.495265
H29   H     H_    0.647499 0.246911 0.661157 0.013176
O23   O     O_2   0.405017 0.455566 0.749292 -0.419912
O24   O     O_3   0.486646 0.293833 0.738471 -0.510065
H30   H     H_    0.432833 0.226648 0.631900 0.158712
H31   H     H_    0.527221 0.084506 0.650331 0.231663
C16   C     C_3   0.499859 0.135556 0.697638 -0.932360
H32   H     H_    0.371316 0.115620 0.712434 0.266984
H33   H     H_    0.585612 0.136076 0.744286 0.275625
C17   C     C_R   0.002503 0.446508 0.045974 0.047959
C18   C     C_R   0.906359 0.401741 0.093563 -0.176218
C19   C     C_R   0.772046 0.423908 0.955348 -0.197898
C20   C     C_R   0.938418 0.453780 0.976614 0.013858
C21   C     C_R   0.704821 0.430266 0.888473 -0.049883
C22   C     C_R   0.806414 0.465355 0.836569 -0.057898
C23   C     C_R   0.973170 0.505094 0.859703 0.035961
C24   C     C_R   0.038457 0.498687 0.929985 0.024928
C25   C     C_R   0.752949 0.460225 0.762655 0.164236
C26   C     C_R   0.865479 0.492570 0.714752 -0.434535
C27   C     C_R   0.022472 0.541605 0.738095 0.243119
C28   C     C_R   0.075009 0.551900 0.813352 -0.058706
C29   C     C_R   0.167290 0.485096 0.069141 0.033021
C30   C     C_R   0.227055 0.484900 0.141347 0.019922
C31   C     C_R   0.119986 0.448414 0.190539 -0.029433
C32   C     C_R   0.961897 0.405520 0.164082 -0.105778
H34   H     H_    0.826657 0.483030 0.657980 0.157728
H35   H     H_    0.876092 0.374091 0.196987 0.130609
C33   C     C_R   0.225011 0.605768 0.845365 -0.024217
C34   C     C_R   0.289104 0.595614 0.912294 -0.259091
C35   C     C_R   0.202906 0.538140 0.953761 0.042052
C36   C     C_R   0.270714 0.526798 0.021660 0.070197
C37   C     C_R   0.438789 0.556341 0.044257 -0.203518
C38   C     C_R   0.391809 0.523569 0.164791 -0.022081
C39   C     C_R   0.497865 0.554384 0.114113 -0.205617
C40   C     C_R   0.443854 0.531958 0.238555 0.129779
C41   C     C_R   0.332957 0.500748 0.287284 -0.478173
C42   C     C_R   0.173627 0.456106 0.264369 0.176806
H36   H     H_    0.627075 0.579625 0.128318 0.161561
H37   H     H_    0.372677 0.509459 0.343872 0.172586
H38   H     H_    0.685807 0.400477 0.992505 0.156524
H39   H     H_    0.785579 0.362718 0.078837 0.133016
H40   H     H_    0.403352 0.638971 0.933762 0.126481
H41   H     H_    0.528164 0.580984 0.008530 0.119234
C43   C     C_R   0.859863 0.170162 0.540882 0.122488
C44   C     C_R   0.790987 0.076802 0.535057 -0.024569
C45   C     C_R   0.647334 0.890219 0.523966 0.010431
C46   C     C_R   0.799204 0.927040 0.562433 0.001139
C47   C     C_R   0.872225 0.017025 0.565286 -0.271951
C48   C     C_R   0.580362 0.796218 0.516017 0.247585
H42   H     H_    0.865699 0.886739 0.590291 0.168130
H43   H     H_    0.992742 0.039611 0.592242 0.161568
C49   C     C_R   0.430937 0.763901 0.474564 -0.416032
C50   C     C_R   0.619800 0.194527 0.474532 0.245137
C51   C     C_R   0.551957 0.102073 0.466889 -0.065328
C52   C     C_R   0.634340 0.042818 0.498505 -0.011031
C53   C     C_R   0.403442 0.068147 0.427607 -0.080013
C54   C     C_R   0.327454 0.979182 0.421827 -0.086280
C55   C     C_R   0.405396 0.916258 0.453101 -0.035956
C56   C     C_R   0.561962 0.949392 0.491793 0.029715
C57   C     C_R   0.339430 0.822145 0.445694 0.143918
C58   C     C_R   0.771546 0.227591 0.511629 -0.422626
H44   H     H_    0.340340 0.111437 0.401032 0.176478
H45   H     H_    0.379056 0.692705 0.469011 0.155855
H46   H     H_    0.823600 0.298628 0.515982 0.184237
O25   O     O_3   0.591988 0.816929 0.328003 -0.657003
C59   C     C_3   0.720906 0.889505 0.327365 -0.091457
H47   H     H_    0.671429 0.943971 0.305905 0.159950
H48   H     H_    0.826338 0.868964 0.296061 0.190809
H49   H     H_    0.769530 0.917822 0.383785 0.142416
C60   C     C_2   0.441778 0.871799 0.704573 0.668058
H50   H     H_    0.430425 0.847727 0.755145 0.090216
O26   O     O_2   0.568877 0.920121 0.694792 -0.600281
C61   C     C_2   0.162095 0.896043 0.674616 0.656141
H51   H     H_    0.136874 0.952704 0.651092 -0.049523
O27   O     O_2   0.081916 0.876178 0.724776 -0.521006
O28   O     O_3   0.798596 0.169350 0.310043 -0.606748
C62   C     C_3   0.898414 0.113310 0.336908 -0.140124
H52   H     H_    0.017004 0.150600 0.364733 0.163086
H53   H     H_    0.921730 0.057796 0.292153 0.189886
H54   H     H_    0.830177 0.081300 0.377798 0.118528
C63   C     C_2   0.701098 0.824315 0.158811 0.691546
H55   H     H_    0.770168 0.775251 0.128631 0.014858
O29   O     O_2   0.744631 0.905586 0.160974 -0.556570
C64   C     C_2   0.163389 0.732747 0.136090 0.498049
H56   H     H_    0.207817 0.668262 0.125298 0.025298
O30   O     O_2   0.196515 0.786856 0.096090 -0.511052
O31   O     O_3   0.973316 0.283037 0.759325 -0.667310
C65   C     C_3   0.109954 0.306652 0.810308 -0.002547
H57   H     H_    0.212025 0.266887 0.796872 0.196563
H58   H     H_    0.067738 0.298621 0.864738 0.133794
H59   H     H_    0.162922 0.378737 0.813116 0.163874
C66   C     C_2   0.523742 0.409504 0.882466 0.592720
H60   H     H_    0.453784 0.460134 0.871335 0.015149
O32   O     O_2   0.451956 0.338486 0.896120 -0.589627
C67   C     C_2   0.302941 0.687003 0.820452 0.640934
H61   H     H_    0.421555 0.687967 0.796448 -0.028669
O33   O     O_2   0.238595 0.755673 0.831215 -0.550391
C68   C     C_2   0.165513 0.961427 0.382712 0.518063
H62   H     H_    0.054513 0.951895 0.411962 0.044516
O34   O     O_2   0.155377 0.965428 0.318480 -0.610506

loop_
_geom_bond_atom_site_label_1
_geom_bond_atom_site_label_2
_geom_bond_distance
_ccdc_geom_bond_type
C1    H1    1.102671 S    
C58   H46   1.082370 S    
C64   O30   1.220736 D    
C29   C36   1.416428 A    
C49   H45   1.081618 S    
C26   C27   1.402047 A    
C44   C52   1.419557 A    
C20   C24   1.413965 A    
O3    P6    1.747947 S    
C63   O29   1.220810 D    
C67   O33   1.220524 D    
C67   H61   1.081973 S    
C61   H51   1.081853 S    
C59   H49   1.104183 S    
C24   C35   1.416621 A    
C51   C52   1.409545 A    
C1    H19   1.111143 S    
C16   H32   1.110284 S    
C23   C28   1.432839 A    
P5    O17   1.768643 S    
C13   O31   1.417109 S    
C45   C46   1.407950 A    
C5    H8    1.106734 S    
O7    Ba1   2.901312 S    
P7    C50   1.839317 S    
O4    P6    1.541835 D    
O2    Ba1   2.915001 S    
C61   O27   1.220558 D    
C59   H48   1.106976 S    
P1    O1    1.507217 D    
P2    O10   1.749982 S    
C17   C29   1.413901 A    
C9    H15   1.108546 S    
P3    O9    1.539418 D    
C19   C21   1.386928 A    
O12   Ba2   2.863919 S    
C4    C5    1.544747 S    
C11   H21   1.111186 S    
C2    C3    1.526307 S    
C45   C56   1.428185 A    
P4    O15   1.753853 S    
C62   H54   1.104831 S    
P8    C25   1.871184 S    
C5    C61   1.502303 S    
C12   H23   1.107112 S    
C1    C63   1.497988 S    
C43   C44   1.423190 A    
C46   H42   1.075071 S    
C16   H33   1.109836 S    
C6    O28   1.419639 S    
C41   C42   1.396345 A    
P5    C43   1.855750 S    
C8    H13   1.105703 S    
C55   C56   1.433717 A    
P7    O22   1.750966 S    
P8    O23   1.542764 D    
P1    Ba1   3.410672 S    
C4    H6    1.103356 S    
C17   C20   1.424269 A    
O8    Ba1   2.759093 S    
C14   H26   1.109649 S    
O16   P7    1.743055 S    
C28   C33   1.420564 A    
C21   C22   1.425708 A    
O13   Ba2   2.915899 S    
C11   C12   1.524173 S    
C4    H7    1.109362 S    
C4    O15   1.397108 S    
C3    C64   1.487997 S    
C66   O32   1.221426 D    
C38   C40   1.416679 A    
C33   C34   1.396644 A    
P4    O13   1.575977 S    
C5    C60   1.503808 S    
O10   C8    1.396658 S    
C35   C36   1.431046 A    
O3    Ba1   2.768808 S    
C68   O34   1.221215 D    
C30   C31   1.421339 A    
P5    O18   1.542441 D    
C65   H58   1.109747 S    
C53   H44   1.079337 S    
C54   C68   1.467297 S    
P1    O5    1.762878 S    
C18   H39   1.075733 S    
P2    O20   1.595521 S    
C59   H47   1.109075 S    
C9    H17   1.109813 S    
C60   O26   1.220334 D    
P2    C48   1.904000 S    
P3    C57   1.866039 S    
C1    C10   1.554425 S    
C19   C20   1.396622 A    
O11   C2    1.398702 S    
C48   C49   1.407151 A    
P5    O19   1.759256 S    
O14   Ba2   2.768295 S    
C11   H20   1.106835 S    
Ba1   O20   2.905841 S    
Ba1   O13   2.799537 S    
C39   H36   1.081197 S    
O14   P8    1.729136 S    
P1    O2    1.575951 S    
C12   H24   1.108266 S    
C15   H29   1.108417 S    
C6    H9    1.100294 S    
C18   C32   1.378826 A    
C65   H59   1.102855 S    
P3    O11   1.745758 S    
C10   O25   1.416263 S    
C26   H34   1.081914 S    
C62   H52   1.112404 S    
O17   Ba2   2.759825 S    
C29   C30   1.432550 A    
C8    C9    1.524724 S    
C14   H28   1.108932 S    
C7    H11   1.108477 S    
C2    H2    1.113880 S    
C7    H12   1.104968 S    
C27   C28   1.440539 A    
C60   H50   1.082454 S    
C17   C18   1.409691 A    
C22   C25   1.430584 A    
C41   H37   1.081876 S    
C46   C47   1.393567 A    
P2    O7    1.498208 D    
C52   C56   1.429470 A    
C13   C14   1.539711 S    
C32   H35   1.066572 S    
C3    H5    1.110447 S    
C31   C32   1.395081 A    
C21   C66   1.470197 S    
C37   H41   1.079376 S    
C66   H60   1.072803 S    
P2    Ba1   3.432965 S    
P4    O12   1.507582 D    
O6    P6    1.756214 S    
C38   C39   1.403367 A    
C50   C51   1.404683 A    
C63   H55   1.082973 S    
Ba2   O21   2.901617 S    
C68   H62   1.080481 S    
C65   H57   1.109784 S    
C44   C47   1.396756 A    
P6    C40   1.854421 S    
C10   H18   1.105558 S    
Ba1   O16   2.818208 S    
C31   C42   1.422990 A    
C8    H14   1.108314 S    
P4    C27   1.903559 S    
C13   H25   1.101497 S    
C7    H10   1.110309 S    
C15   C16   1.520587 S    
C50   C58   1.388187 A    
H31   C16   1.109908 S    
C51   C53   1.385557 A    
C14   H27   1.110490 S    
O25   C59   1.408314 S    
C45   C48   1.423929 A    
Ba1   Ba2   4.549990 S    
C36   C37   1.414166 A    
C19   H38   1.075703 S    
C47   H43   1.077673 S    
C53   C54   1.379072 A    
C6    C7    1.537024 S    
O31   C65   1.414994 S    
C40   C41   1.402169 A    
O2    Ba2   2.800175 S    
C9    H16   1.108088 S    
P3    O8    1.713827 S    
C23   C24   1.439784 A    
C64   H56   1.077518 S    
C37   C39   1.395911 A    
C33   C67   1.462991 S    
C25   C26   1.405485 A    
C2    H3    1.106772 S    
C34   H40   1.080983 S    
O19   C13   1.413800 S    
C62   H53   1.109487 S    
C12   H22   1.108872 S    
C15   O24   1.404549 S    
Ba2   O20   2.817631 S    
C30   C38   1.414993 A    
C11   O22   1.399039 S    
O16   Ba2   2.905010 S    
O5    C6    1.408698 S    
C3    H4    1.104748 S    
C49   C57   1.415432 A    
C55   C57   1.424612 A    
P7    O21   1.580308 D    
P8    O24   1.751790 S    
C34   C35   1.402450 A    
O28   C62   1.415537 S    
O1    Ba1   2.863404 S    
O6    C10   1.409921 S    
C22   C23   1.431832 A    
C15   H30   1.106970 S    
P1    C42   1.880198 S    
C43   C58   1.393386 A    
C54   C55   1.430499 A    
P4    Ba2   3.411216 S    
