data_mof_unit_65567.cif
_audit_creation_date              2012-12-10T18:25:46-0500
_audit_creation_method            fapswitch 2.2
_symmetry_space_group_name_H-M    P1
_symmetry_Int_Tables_number       1
_space_group_crystal_system       triclinic
_cell_length_a                    23.530627
_cell_length_b                    15.872611
_cell_length_c                    14.621942
_cell_angle_alpha                 90.012342
_cell_angle_beta                  90.003975
_cell_angle_gamma                 90.012022
_cell_volume                      5461.18525089

loop_
_atom_site_label
_atom_site_type_symbol
_atom_type_description
_atom_site_fract_x
_atom_site_fract_y
_atom_site_fract_z
_atom_type_partial_charge
Br1   Br    Br    0.475910 0.690825 0.926258 -0.429937
Br2   Br    Br    0.524092 0.309310 0.073814 -0.439549
Br3   Br    Br    0.205230 0.411419 0.683956 -0.393115
Br4   Br    Br    0.794760 0.411375 0.683850 -0.392715
C1    C     C_R   0.500007 0.339393 0.499975 0.816828
C2    C     C_R   0.704563 0.536137 0.428489 0.310767
C3    C     C_R   0.235795 0.533080 0.432642 0.350175
C4    C     C_R   0.764206 0.533129 0.432589 0.350471
C5    C     C_R   0.208668 0.495998 0.508194 0.139966
C6    C     C_R   0.791330 0.496023 0.508126 0.139991
C7    C     C_3   0.548545 0.971995 0.537542 -0.140685
C8    C     C_3   0.451454 0.027990 0.462365 -0.140569
C9    C     C_3   0.544496 0.028010 0.451085 -0.137339
C10   C     C_3   0.455504 0.971975 0.548822 -0.138366
C11   C     C_1   0.500007 0.249694 0.499950 -0.129125
C12   C     C_R   0.499993 0.660606 0.500019 0.840122
C13   C     C_1   0.499993 0.750299 0.500020 -0.110631
C14   C     C_3   0.504051 0.028047 0.586395 -0.143153
C15   C     C_3   0.495948 0.971937 0.413511 -0.131699
C16   C     C_R   0.390622 0.501282 0.499951 0.880006
C17   C     C_R   0.609378 0.501331 0.499911 0.879934
C18   C     C_3   0.500002 0.082526 0.499939 0.150151
C19   C     C_3   0.499998 0.917460 0.499969 0.150423
C20   C     C_1   0.500005 0.174158 0.499938 -0.026261
C21   C     C_1   0.499995 0.825831 0.499998 -0.016199
C22   C     C_3   0.490216 0.577543 0.969487 0.329869
C23   C     C_R   0.240935 0.462068 0.579781 0.290917
C24   C     C_3   0.509785 0.422580 0.030548 0.331494
C25   C     C_3   0.449130 0.526550 0.030902 -0.184319
C26   C     C_3   0.550871 0.473572 0.969137 -0.194701
C27   C     C_3   0.540952 0.552065 0.030933 -0.185698
C28   C     C_3   0.459049 0.448056 0.969106 -0.203514
C29   C     C_3   0.499969 0.500262 0.091533 -0.059334
C30   C     C_3   0.500032 0.499857 0.908495 -0.050775
C31   C     C_1   0.499973 0.500135 0.194172 0.292035
C32   C     C_1   0.500028 0.499925 0.805837 0.239326
C33   C     C_R   0.880537 0.559903 0.551696 0.641325
C34   C     C_R   0.759061 0.462066 0.579700 0.290587
C35   C     C_R   0.119485 0.426589 0.475591 0.639871
C36   C     C_R   0.880491 0.426617 0.475524 0.640467
C37   C     C_R   0.119482 0.559889 0.551736 0.641945
C38   C     C_R   0.940084 0.424457 0.476235 -0.031699
C39   C     C_R   0.059901 0.560563 0.554032 -0.032274
C40   C     C_R   0.970013 0.492348 0.515458 -0.004089
C41   C     C_R   0.029983 0.492342 0.515473 -0.004089
C42   C     C_R   0.940117 0.560572 0.554010 -0.031834
C43   C     C_R   0.059891 0.424442 0.476270 -0.031283
C44   C     C_R   0.970327 0.356716 0.438104 -0.119715
C45   C     C_R   0.300002 0.464777 0.575808 -0.285464
C46   C     C_R   0.029664 0.627882 0.593034 -0.118640
C47   C     C_R   0.029626 0.356708 0.438124 -0.119967
C48   C     C_R   0.970375 0.627884 0.593025 -0.118881
C49   C     C_R   0.699995 0.464783 0.575733 -0.287106
C50   C     C_R   0.327924 0.500987 0.500595 -0.235381
C51   C     C_R   0.672075 0.501022 0.500537 -0.235254
C52   C     C_R   0.295438 0.536088 0.428540 0.309362
Cl1   Cl    Cl    0.328030 0.587848 0.335110 -0.484382
Cl2   Cl    Cl    0.671972 0.587911 0.335075 -0.483895
Cl3   Cl    Cl    0.194294 0.576393 0.343685 -0.446008
Cl4   Cl    Cl    0.805711 0.576475 0.343651 -0.445921
Cu1   Cu    Cu3+1 0.500010 0.500000 0.590220 1.019903
Cu2   Cu    Cu3+1 0.499990 0.500000 0.409780 1.084811
H1    H     H_    0.948304 0.303732 0.407698 0.199871
H2    H     H_    0.675818 0.437580 0.631448 0.211500
H3    H     H_    0.581021 0.052372 0.410966 0.167566
H4    H     H_    0.418978 0.947611 0.588940 0.167175
H5    H     H_    0.588396 0.947649 0.568398 0.165956
H6    H     H_    0.411603 0.052334 0.431507 0.165682
H7    H     H_    0.492624 0.947545 0.342551 0.169479
H8    H     H_    0.507376 0.052434 0.657358 0.164505
H9    H     H_    0.051684 0.680972 0.623227 0.200126
H10   H     H_    0.407232 0.549015 0.055842 0.203455
H11   H     H_    0.592775 0.451105 0.944230 0.190095
H12   H     H_    0.425474 0.404610 0.944177 0.186966
H13   H     H_    0.574527 0.595500 0.055892 0.199492
H14   H     H_    0.051632 0.303717 0.407732 0.199699
H15   H     H_    0.948372 0.680976 0.623215 0.199946
H16   H     H_    0.324177 0.437590 0.631530 0.211502
N1    N     N_R   0.852181 0.493829 0.512456 -0.435147
N2    N     N_R   0.147816 0.493803 0.512521 -0.435132
N3    N     N_1   0.499980 0.500000 0.274190 -0.127286
N4    N     N_1   0.500020 0.500000 0.725810 -0.149163
O1    O     O_R   0.500010 0.379080 0.576170 -0.578889
O2    O     O_2   0.148966 0.362439 0.437967 -0.492806
O3    O     O_2   0.850989 0.362480 0.437873 -0.491196
O4    O     O_2   0.148959 0.624812 0.587828 -0.488885
O5    O     O_R   0.499990 0.620920 0.423830 -0.551744
O6    O     O_R   0.500000 0.379080 0.423800 -0.563945
O7    O     O_R   0.500000 0.620920 0.576200 -0.565390
O8    O     O_R   0.417890 0.499980 0.576200 -0.583412
O9    O     O_R   0.582110 0.500020 0.423800 -0.528934
O10   O     O_R   0.417870 0.499970 0.423830 -0.531703
O11   O     O_R   0.582130 0.500030 0.576170 -0.586014
O12   O     O_2   0.851080 0.624820 0.587798 -0.490549

loop_
_geom_bond_atom_site_label_1
_geom_bond_atom_site_label_2
_ccdc_geom_bond_type
C14   H8    S    
C7    C14   S    
C42   C48   A    
C2    Cl2   S    
C2    C51   A    
C37   N2    A    
C31   N3    T    
C9    H3    S    
C52   Cl1   S    
C37   O4    S    
C33   N1    A    
C17   O11   A    
C35   O2    S    
C25   C28   S    
Cu1   N4    S    
C28   H12   S    
C26   C27   S    
C1    O1    A    
C49   H2    S    
Cu1   O11   S    
C45   C50   A    
C8    C18   S    
C45   H16   S    
C7    H5    S    
C7    C19   S    
C10   C14   S    
C1    O6    A    
C22   C30   S    
C44   C47   A    
C25   C29   S    
C32   N4    T    
C12   C13   S    
Cu2   O10   S    
C9    C18   S    
C12   O5    A    
C46   C48   A    
C27   C29   S    
C25   H10   S    
C41   C43   A    
C22   C27   S    
C37   C39   A    
C38   C40   A    
C3    C52   A    
C3    Cl3   S    
Cu1   O7    S    
C49   C51   A    
C50   C52   A    
C26   C30   S    
C24   C28   S    
C47   H14   S    
C16   C50   S    
Cu1   O1    S    
C17   C51   S    
C26   H11   S    
C9    C15   S    
C44   H1    S    
C43   C47   A    
C40   C42   A    
Cu2   O6    S    
C5    N2    S    
C28   C30   S    
C10   C19   S    
C15   C19   S    
C46   H9    S    
C8    H6    S    
C27   H13   S    
Cu2   O9    S    
C10   H4    S    
C36   N1    A    
C38   C44   A    
C39   C41   A    
C11   C20   T    
Cu2   N3    S    
C8    C10   S    
C24   C29   S    
Br1   C22   S    
C18   C20   S    
C16   O10   A    
C48   H15   S    
Cu1   O8    S    
C5    C23   A    
C35   C43   A    
C17   O9    A    
C3    C5    A    
C36   O3    S    
C14   C18   S    
C40   C41   A    
Br4   C34   S    
C2    C4    A    
C6    N1    S    
C39   C46   A    
Cu2   O5    S    
C6    C34   A    
C13   C21   T    
C35   N2    A    
Br3   C23   S    
C24   C26   S    
C4    Cl4   S    
C7    C9    S    
C34   C49   A    
C16   O8    A    
C8    C15   S    
C36   C38   A    
C29   C31   S    
C33   O12   S    
C30   C32   S    
C19   C21   S    
Cu1   Cu2   S    
C1    C11   S    
C15   H7    S    
C12   O7    A    
C22   C25   S    
C4    C6    A    
Br2   C24   S    
C33   C42   A    
C23   C45   A    
