data_mof_unit_66635.cif
_audit_creation_date              2012-10-26T18:48:14-0400
_audit_creation_method            fapswitch 2.2
_symmetry_space_group_name_H-M    P1
_symmetry_Int_Tables_number       1
_space_group_crystal_system       triclinic
_cell_length_a                    10.611256
_cell_length_b                    8.732485
_cell_length_c                    7.530367
_cell_angle_alpha                 103.219081
_cell_angle_beta                  95.072356
_cell_angle_gamma                 95.691501
_cell_volume                      671.485966285

loop_
_atom_site_label
_atom_site_type_symbol
_atom_type_description
_atom_site_fract_x
_atom_site_fract_y
_atom_site_fract_z
_atom_type_partial_charge
Br1   Br    Br    0.954392 0.757221 0.873658 -0.483772
Br2   Br    Br    0.041104 0.248013 0.121976 -0.469724
Br3   Br    Br    0.338108 0.298107 0.899056 -0.361835
Br4   Br    Br    0.661717 0.702054 0.100996 -0.356144
C1    C     C_R   0.496617 0.199802 0.452943 0.525551
C2    C     C_3   0.121756 0.488263 0.499596 0.015400
C3    C     C_3   0.981884 0.604348 0.654522 0.160357
C4    C     C_3   0.017520 0.398474 0.345641 0.169045
C5    C     C_2   0.496209 0.031716 0.427322 -0.156193
C6    C     C_2   0.508619 0.968909 0.572769 -0.142393
C7    C     C_3   0.852650 0.205574 0.484883 -0.248736
C8    C     C_3   0.931794 0.076988 0.513826 -0.404754
C9    C     C_3   0.144279 0.801552 0.525744 -0.270369
C10   C     C_3   0.171753 0.830486 0.339986 -0.413221
C11   C     C_R   0.505239 0.800416 0.547071 0.530601
C12   C     C_R   0.258950 0.487475 0.498606 0.556959
C13   C     C_R   0.740907 0.513991 0.501572 0.554338
C14   C     C_3   0.041907 0.449689 0.649184 -0.107573
C15   C     C_3   0.957474 0.553639 0.351676 -0.110433
C16   C     C_3   0.936755 0.360680 0.493848 -0.019047
C17   C     C_3   0.062974 0.642395 0.506825 -0.020897
C18   C     C_3   0.878037 0.514596 0.500762 0.010097
Cu1   Cu    Cu3+1 0.514140 0.517380 0.684380 1.127365
Cu2   Cu    Cu3+1 0.485860 0.482620 0.315620 1.118239
H1    H     H_    0.077562 0.406953 0.769857 0.198535
H2    H     H_    0.227570 0.739437 0.268091 0.205498
H3    H     H_    0.081367 0.827584 0.252955 0.208390
H4    H     H_    0.226860 0.949155 0.360257 0.160726
H5    H     H_    0.094872 0.897331 0.599593 0.187708
H6    H     H_    0.235488 0.805908 0.612122 0.175347
H7    H     H_    0.920894 0.595939 0.231155 0.196460
H8    H     H_    0.484174 0.959082 0.287546 0.169321
H9    H     H_    0.520585 0.041530 0.712549 0.173315
H10   H     H_    0.002189 0.061482 0.412995 0.194897
H11   H     H_    0.982125 0.110469 0.655420 0.198435
H12   H     H_    0.869115 0.963473 0.495323 0.177955
H13   H     H_    0.787653 0.225031 0.593559 0.171764
H14   H     H_    0.794037 0.166863 0.349085 0.191837
N1    N     N_2   0.464560 0.456420 0.038510 0.019554
N2    N     N_2   0.535440 0.543580 0.961490 0.022141
O1    O     O_R   0.509190 0.286130 0.619780 -0.490716
O2    O     O_R   0.490810 0.713870 0.380220 -0.497443
O3    O     O_R   0.485310 0.256770 0.308360 -0.476365
O4    O     O_R   0.514690 0.743230 0.691640 -0.477072
O5    O     O_R   0.328790 0.514640 0.655680 -0.490035
O6    O     O_R   0.671210 0.485360 0.344320 -0.486982
O7    O     O_R   0.304910 0.485280 0.344260 -0.472015
O8    O     O_R   0.695090 0.514720 0.655740 -0.464115

loop_
_geom_bond_atom_site_label_1
_geom_bond_atom_site_label_2
_ccdc_geom_bond_type
C12   O5    A    
C7    H14   S    
C7    C8    S    
C1    C5    S    
Cu1   O5    S    
C10   H3    S    
C8    H12   S    
C3    C18   S    
Cu2   O2    S    
C5    C6    D    
C13   C18   S    
Cu1   O1    S    
C13   O8    A    
Cu1   Cu2   S    
C3    C14   S    
C15   H7    S    
Cu2   N1    S    
C1    O3    A    
Br3   N1    S    
Br1   C3    S    
C9    C10   S    
C10   H2    S    
C8    H11   S    
Cu2   O7    S    
C4    C16   S    
C14   H1    S    
C8    H10   S    
C12   O7    A    
C9    H5    S    
C15   C17   S    
C16   C18   S    
C11   O4    A    
C6    H9    S    
C14   C16   S    
C6    C11   S    
C2    C14   S    
C7    C16   S    
C4    C15   S    
C9    C17   S    
Cu1   N2    S    
C9    H6    S    
C15   C18   S    
C13   O6    A    
N1    N2    D    
C7    H13   S    
Cu2   O3    S    
C1    O1    A    
C2    C4    S    
Cu1   O8    S    
C5    H8    S    
C10   H4    S    
C3    C17   S    
C2    C17   S    
C2    C12   S    
Br2   C4    S    
Cu1   O4    S    
Br4   N2    S    
C11   O2    A    
Cu2   O6    S    
