data_mof_unit_27659.cif
_audit_creation_date              2012-12-10T20:29:25-0500
_audit_creation_method            fapswitch 2.2
_symmetry_space_group_name_H-M    P1
_symmetry_Int_Tables_number       1
_space_group_crystal_system       triclinic
_cell_length_a                    18.581922
_cell_length_b                    18.760656
_cell_length_c                    18.832279
_cell_angle_alpha                 109.661355
_cell_angle_beta                  109.345439
_cell_angle_gamma                 109.197896
_cell_volume                      5066.74537121

loop_
_atom_site_label
_atom_site_type_symbol
_atom_type_description
_atom_site_fract_x
_atom_site_fract_y
_atom_site_fract_z
_atom_type_partial_charge
C1    C     C_R   0.382188 0.502498 0.380200 0.875850
C2    C     C_R   0.784586 0.188263 0.762747 0.552415
C3    C     C_R   0.002315 0.741157 0.320797 -0.017833
C4    C     C_R   0.074120 0.843454 0.118639 -0.148490
C5    C     C_R   0.780319 0.750711 0.781882 -0.077600
C6    C     C_R   0.076024 0.854143 0.049151 -0.278872
C7    C     C_R   0.005980 0.793450 0.963649 0.602164
C8    C     C_R   0.936287 0.721054 0.949133 -0.192016
C9    C     C_R   0.933664 0.710869 0.018479 -0.261292
C10   C     C_R   0.002813 0.771767 0.103769 0.171600
C11   C     C_R   0.291771 0.268016 0.784446 -0.164665
C12   C     C_R   0.213281 0.251123 0.785865 -0.065975
C13   C     C_R   0.706881 0.188210 0.756367 -0.246063
C14   C     C_R   0.161107 0.282795 0.749525 0.100686
C15   C     C_R   0.189594 0.333198 0.713584 -0.208912
C16   C     C_R   0.268773 0.350861 0.713340 -0.119698
C17   C     C_2   0.295218 0.682792 0.456748 0.453334
C18   C     C_3   0.627403 0.873430 0.434915 -0.290299
C19   C     C_2   0.909820 0.062634 0.940013 0.305187
C20   C     C_2   0.024140 0.159977 0.884220 0.456254
C21   C     C_3   0.034899 0.522683 0.429944 -0.296061
C22   C     C_3   0.348545 0.935525 0.638660 -0.336329
C23   C     C_2   0.589594 0.463121 0.750749 0.373334
C24   C     C_R   0.673215 0.228712 0.715629 -0.253452
C25   C     C_3   0.973961 0.745681 0.644668 -0.294001
C26   C     C_3   0.779694 0.537381 0.364297 -0.355237
C27   C     C_3   0.925487 0.883419 0.183891 -0.262233
C28   C     C_3   0.013923 0.879427 0.901020 -0.279874
C29   C     C_2   0.833610 0.086910 0.616738 0.395883
C30   C     C_3   0.759583 0.060565 0.762829 -0.387423
C31   C     C_3   0.783994 0.283226 0.566247 -0.330297
C32   C     C_R   0.820594 0.823314 0.576296 -0.177940
C33   C     C_R   0.716120 0.269351 0.680497 -0.225444
C34   C     C_R   0.794078 0.270287 0.686154 0.462932
C35   C     C_R   0.830133 0.232844 0.730897 -0.125467
C36   C     C_R   0.812404 0.811192 0.496084 -0.045477
C37   C     C_R   0.738879 0.738449 0.417181 0.025119
C38   C     C_R   0.679401 0.674676 0.421696 -0.190818
C39   C     C_R   0.751839 0.807460 0.815437 -0.097586
C40   C     C_R   0.688299 0.686327 0.501798 -0.031480
C41   C     C_R   0.757340 0.762498 0.579806 -0.012580
C42   C     C_R   0.637017 0.705434 0.269327 -0.151646
C43   C     C_R   0.617350 0.688554 0.185034 -0.145088
C44   C     C_R   0.680290 0.691108 0.159563 -0.131238
C45   C     C_R   0.621462 0.620129 0.501263 0.842589
C46   C     C_R   0.763152 0.711385 0.218653 -0.131509
C47   C     C_R   0.783406 0.729942 0.303415 -0.126334
C48   C     C_R   0.720506 0.726291 0.329514 0.103512
C49   C     C_R   0.451667 0.799156 0.530797 -0.164149
C50   C     C_R   0.319451 0.317780 0.748126 -0.088862
C51   C     C_R   0.381538 0.717300 0.460759 0.017519
C52   C     C_R   0.394976 0.668927 0.395251 -0.036774
C53   C     C_R   0.477235 0.703633 0.400619 -0.244446
C54   C     C_R   0.545403 0.786633 0.468994 0.594835
C55   C     C_R   0.532792 0.833377 0.534817 -0.274171
C56   C     C_R   0.258738 0.578849 0.253007 -0.260030
C57   C     C_R   0.620537 0.500077 0.619588 0.952313
C58   C     C_R   0.187216 0.498330 0.183842 -0.075849
C59   C     C_R   0.180357 0.419814 0.179386 0.001523
C60   C     C_R   0.247608 0.423548 0.243473 -0.258219
C61   C     C_R   0.074831 0.327000 0.811122 -0.209606
C62   C     C_R   0.317545 0.503846 0.313932 -0.068865
C63   C     C_R   0.323367 0.582495 0.319924 -0.000338
C64   C     C_R   0.043249 0.289747 0.131231 -0.129053
C65   C     C_R   0.977877 0.203206 0.072339 -0.245788
C66   C     C_R   0.972750 0.157573 0.992955 0.045829
C67   C     C_R   0.031044 0.202381 0.970092 0.063319
C68   C     C_R   0.096709 0.289990 0.030309 -0.181861
C69   C     C_R   0.377586 0.380232 0.497905 0.936677
C70   C     C_R   0.103939 0.332993 0.111274 0.096313
C71   C     C_R   0.161445 0.485820 0.524981 -0.233080
C72   C     C_R   0.995522 0.314015 0.808663 -0.063364
C73   C     C_R   0.192847 0.431201 0.540051 -0.235307
C74   C     C_R   0.213607 0.384243 0.481986 0.141019
C75   C     C_R   0.204187 0.394329 0.409520 -0.227809
C76   C     C_R   0.172360 0.448796 0.394337 -0.243533
C77   C     C_R   0.148107 0.492670 0.450035 0.623453
C78   C     C_R   0.172398 0.250541 0.491185 -0.245395
C79   C     C_R   0.187266 0.184615 0.498819 -0.065139
C80   C     C_R   0.265287 0.183878 0.507623 0.006234
C81   C     C_R   0.728220 0.851665 0.773575 -0.116372
C82   C     C_R   0.326430 0.249166 0.506295 -0.197269
C83   C     C_R   0.915298 0.238482 0.741554 0.054847
C84   C     C_R   0.310989 0.314586 0.497777 -0.072126
C85   C     C_R   0.234237 0.316952 0.491675 -0.005323
C86   C     C_R   0.357495 0.141255 0.595227 -0.216637
C87   C     C_R   0.374278 0.078141 0.608335 -0.273686
C88   C     C_R   0.317819 0.988922 0.545065 0.616236
C89   C     C_R   0.248629 0.965592 0.466583 -0.202258
C90   C     C_R   0.231662 0.028795 0.453651 -0.219663
C91   C     C_R   0.285001 0.116813 0.518691 0.136487
C92   C     C_R   0.781318 0.526283 0.617339 -0.213873
C93   C     C_R   0.733153 0.839132 0.698227 -0.061257
C94   C     C_R   0.916699 0.171168 0.681461 -0.044152
C95   C     C_R   0.855187 0.530528 0.611445 -0.127983
C96   C     C_R   0.914278 0.518627 0.667528 -0.115110
C97   C     C_R   0.900813 0.504519 0.731153 -0.069550
C98   C     C_R   0.827352 0.502319 0.739960 0.089870
C99   C     C_R   0.764724 0.509244 0.679895 0.039602
C100  C     C_R   0.687211 0.498676 0.683905 -0.151472
C101  C     C_R   0.672303 0.482565 0.747197 -0.014644
C102  C     C_R   0.737375 0.482239 0.809161 -0.332254
C103  C     C_R   0.813788 0.492224 0.806289 -0.112341
C104  C     C_R   0.000447 0.879695 0.380235 0.927150
C105  C     C_R   0.997855 0.184959 0.685325 -0.107991
C106  C     C_R   0.761606 0.782124 0.664311 0.114481
C107  C     C_R   0.879473 0.878197 0.497897 0.914827
C108  C     C_R   0.999693 0.119968 0.619775 0.962783
C109  C     C_R   0.120554 0.118954 0.499077 0.895437
C110  C     C_R   0.998216 0.379936 0.877930 0.876092
C111  C     C_R   0.120348 0.498683 0.118686 0.877203
C112  C     C_R   0.998599 0.620025 0.118693 0.913621
C113  C     C_R   0.879918 0.496327 0.876506 0.883262
C114  C     C_R   0.081008 0.764338 0.544332 -0.277166
C115  C     C_R   0.081083 0.775003 0.474618 -0.119454
C116  C     C_R   0.076718 0.263619 0.748906 0.013156
C117  C     C_R   0.003635 0.727498 0.394349 0.080324
C118  C     C_R   0.785969 0.738500 0.706912 -0.165647
C119  C     C_R   0.928025 0.663405 0.382432 -0.438814
C120  C     C_R   0.926410 0.652471 0.453081 0.484169
C121  C     C_R   0.003742 0.705801 0.534870 0.504080
C122  C     C_R   0.997218 0.676741 0.253120 -0.239726
C123  C     C_R   0.996944 0.686309 0.182918 -0.164425
C124  C     C_R   0.000393 0.760434 0.177510 -0.095000
C125  C     C_R   0.000496 0.823888 0.243132 0.440107
C126  C     C_R   0.002398 0.814347 0.314756 -0.223784
H1    H     H_    0.747568 0.816743 0.873513 0.107159
H2    H     H_    0.705464 0.895091 0.799097 0.102376
H3    H     H_    0.048261 0.322242 0.193715 0.136266
H4    H     H_    0.933612 0.170444 0.090744 0.127743
H5    H     H_    0.143352 0.324552 0.015041 0.160868
H6    H     H_    0.146557 0.521681 0.571049 0.148450
H7    H     H_    0.199223 0.424208 0.596183 0.141738
H8    H     H_    0.218372 0.357625 0.363222 0.130944
H9    H     H_    0.163550 0.454980 0.337495 0.153864
H10   H     H_    0.712679 0.871879 0.664898 0.139584
H11   H     H_    0.112336 0.250571 0.485495 0.158344
H12   H     H_    0.664807 0.677162 0.094051 0.119497
H13   H     H_    0.386780 0.249478 0.512612 0.165871
H14   H     H_    0.400337 0.209168 0.645333 0.154659
H15   H     H_    0.431063 0.099176 0.667819 0.135315
H16   H     H_    0.206597 0.897849 0.415995 0.152224
H17   H     H_    0.176569 0.009148 0.393391 0.171371
H18   H     H_    0.738219 0.537082 0.572597 0.157190
H19   H     H_    0.866060 0.541986 0.562455 0.222570
H20   H     H_    0.807743 0.694237 0.681273 0.120699
H21   H     H_    0.970630 0.520011 0.661550 0.145950
H22   H     H_    0.947129 0.492476 0.770823 0.170115
H23   H     H_    0.811549 0.712307 0.198665 0.123819
H24   H     H_    0.728151 0.473414 0.860207 0.157158
H25   H     H_    0.141041 0.802443 0.606455 0.172001
H26   H     H_    0.141220 0.821345 0.483616 0.189596
H27   H     H_    0.870976 0.624279 0.318128 0.170523
H28   H     H_    0.996349 0.619838 0.256508 0.177235
H29   H     H_    0.796824 0.715374 0.813324 0.125833
H30   H     H_    0.128541 0.890572 0.183957 0.163072
H31   H     H_    0.132482 0.908847 0.061935 0.147666
H32   H     H_    0.883728 0.672504 0.883700 0.151049
H33   H     H_    0.878104 0.655104 0.005666 0.132395
H34   H     H_    0.847869 0.746906 0.348759 0.108456
H35   H     H_    0.380265 0.330947 0.747144 0.137606
H36   H     H_    0.331158 0.242535 0.811541 0.124340
H37   H     H_    0.192734 0.212335 0.814041 0.188711
H38   H     H_    0.150379 0.358428 0.685610 0.132105
H39   H     H_    0.290922 0.389875 0.685917 0.149976
H40   H     H_    0.874949 0.881744 0.636160 0.167187
H41   H     H_    0.135675 0.386624 0.862064 0.158119
H42   H     H_    0.673003 0.157683 0.783861 0.144797
H43   H     H_    0.613786 0.228914 0.711556 0.173093
H44   H     H_    0.689241 0.301308 0.650328 0.167251
H45   H     H_    0.585741 0.896713 0.588778 0.136491
H46   H     H_    0.623868 0.616798 0.362188 0.134077
H47   H     H_    0.587035 0.701988 0.287556 0.135794
H48   H     H_    0.553019 0.672674 0.139236 0.131213
H49   H     H_    0.238955 0.623125 0.400110 0.099055
H50   H     H_    0.625899 0.931954 0.474025 0.155881
H51   H     H_    0.572429 0.836530 0.366673 0.134969
H52   H     H_    0.689497 0.896171 0.432961 0.233334
H53   H     H_    0.853592 0.035843 0.948079 0.067118
H54   H     H_    0.962698 0.104797 0.828490 0.141827
H55   H     H_    0.000218 0.547167 0.392803 0.198329
H56   H     H_    0.443655 0.837234 0.582282 0.197755
H57   H     H_    0.045491 0.554712 0.496787 0.188794
H58   H     H_    0.991160 0.450845 0.396512 0.137495
H59   H     H_    0.306468 0.956914 0.660165 0.142566
H60   H     H_    0.419241 0.982093 0.686673 0.151902
H61   H     H_    0.334274 0.872582 0.636807 0.239926
H62   H     H_    0.590632 0.474349 0.811621 0.047037
H63   H     H_    0.903168 0.719477 0.600861 0.188599
H64   H     H_    0.012470 0.815748 0.665631 0.156877
H65   H     H_    0.980144 0.741392 0.703541 0.220860
H66   H     H_    0.794931 0.497410 0.319088 0.163987
H67   H     H_    0.487937 0.666843 0.350833 0.132691
H68   H     H_    0.753942 0.574911 0.339646 0.179494
H69   H     H_    0.726857 0.491768 0.367860 0.199355
H70   H     H_    0.926294 0.946447 0.201266 0.185327
H71   H     H_    0.869780 0.840576 0.186682 0.152372
H72   H     H_    0.913736 0.855280 0.116441 0.157024
H73   H     H_    0.082902 0.933207 0.945920 0.167327
H74   H     H_    0.969261 0.894957 0.922635 0.195674
H75   H     H_    0.994471 0.874623 0.836447 0.202600
H76   H     H_    0.771592 0.085844 0.589723 0.033848
H77   H     H_    0.724635 0.029525 0.690680 0.166107
H78   H     H_    0.262525 0.639004 0.256492 0.159872
H79   H     H_    0.711865 0.050010 0.786604 0.160719
H80   H     H_    0.796095 0.027083 0.779085 0.220619
H81   H     H_    0.744983 0.317026 0.561347 0.182520
H82   H     H_    0.740267 0.211130 0.527422 0.147820
H83   H     H_    0.825362 0.300684 0.537220 0.193971
H84   H     H_    0.243482 0.363393 0.240350 0.159049
O1    O     O_R   0.408360 0.551710 0.460090 -0.615635
O2    O     O_R   0.948270 0.356620 0.908410 -0.599467
O3    O     O_R   0.143330 0.551680 0.091590 -0.626286
O4    O     O_R   0.408390 0.448280 0.356670 -0.630179
O5    O     O_R   0.039890 0.448260 0.091620 -0.613195
O6    O     O_R   0.051700 0.643310 0.091570 -0.607434
O7    O     O_R   0.948260 0.539890 0.091600 -0.633404
O8    O     O_R   0.960080 0.551670 0.908360 -0.630038
O9    O     O_R   0.856640 0.448250 0.908390 -0.620459
O10   O     O_R   0.591600 0.643340 0.551710 -0.610741
O11   O     O_R   0.591630 0.539900 0.448290 -0.641231
O12   O     O_R   0.948280 0.908380 0.356650 -0.600822
O13   O     O_R   0.591610 0.551720 0.643330 -0.594670
O14   O     O_R   0.591640 0.448290 0.539910 -0.636183
O15   O     O_R   0.408370 0.460100 0.551710 -0.582430
O16   O     O_R   0.408400 0.356660 0.448290 -0.635313
O17   O     O_R   0.051730 0.908360 0.460070 -0.637655
O18   O     O_2   0.285695 0.720520 0.516838 -0.556446
O19   O     O_3   0.625706 0.820466 0.473209 -0.610685
O20   O     O_2   0.922013 0.012741 0.890492 -0.625723
O21   O     O_2   0.087550 0.186767 0.874606 -0.629434
O22   O     O_3   0.115939 0.544992 0.431530 -0.609135
O23   O     O_R   0.960110 0.908350 0.551690 -0.641753
O24   O     O_3   0.330524 0.923222 0.555105 -0.608706
O25   O     O_2   0.519164 0.430411 0.685964 -0.593324
O26   O     O_3   0.006349 0.695972 0.604999 -0.611791
O27   O     O_3   0.853459 0.592838 0.448397 -0.618849
O28   O     O_3   0.007782 0.899842 0.242719 -0.618351
O29   O     O_3   0.006743 0.799356 0.892495 -0.634808
O30   O     O_2   0.833131 0.017673 0.596210 -0.587484
O31   O     O_3   0.820241 0.150152 0.804656 -0.612517
O32   O     O_3   0.839813 0.312081 0.653971 -0.623379
O33   O     O_R   0.856660 0.908370 0.448270 -0.602613
O34   O     O_R   0.051720 0.091580 0.643310 -0.613881
O35   O     O_R   0.948270 0.091600 0.539890 -0.622211
O36   O     O_R   0.143340 0.091590 0.551680 -0.611323
O37   O     O_R   0.039890 0.091610 0.448270 -0.627874
O38   O     O_R   0.051710 0.460040 0.908380 -0.639914
Zn1   Zn    Zn3+2 0.499980 0.569070 0.569050 1.002358
Zn2   Zn    Zn3+2 0.500020 0.430930 0.430950 0.939630
Zn3   Zn    Zn3+2 0.069080 0.999960 0.569030 0.956128
Zn4   Zn    Zn3+2 0.930920 0.999990 0.430930 0.962001
Zn5   Zn    Zn3+2 0.069060 0.569020 0.999970 0.961191
Zn6   Zn    Zn3+2 0.930920 0.430910 0.000010 0.974188

loop_
_geom_bond_atom_site_label_1
_geom_bond_atom_site_label_2
_ccdc_geom_bond_type
C2    C35   A    
C21   H58   S    
C87   C88   A    
C94   C105  A    
C101  C102  A    
O34   Zn3   S    
C32   H40   S    
C34   O32   S    
C53   H67   S    
C73   C74   A    
C54   C55   A    
C105  C116  A    
O3    Zn5   S    
C95   C96   A    
C95   H19   S    
C75   C76   A    
C93   H10   S    
C8    H32   S    
C1    C62   S    
C17   C51   S    
C114  C115  A    
C27   O28   S    
C3    C126  A    
C123  C124  A    
C20   H54   S    
C23   C101  S    
O37   Zn4   S    
C52   C53   A    
C21   H55   S    
C30   H77   S    
O23   Zn3   S    
C28   H74   S    
C28   H75   S    
C32   C36   A    
C36   C37   A    
C103  C113  S    
C37   C38   A    
C111  O5    A    
C10   C124  S    
C86   C91   A    
C117  C119  A    
C28   O29   S    
C29   C94   S    
C43   H48   S    
C1    O1    A    
C33   H44   S    
C89   H16   S    
C30   H80   S    
C22   H59   S    
C19   C66   S    
C60   C62   A    
C34   C35   A    
C104  O12   A    
C22   H61   S    
C2    C13   A    
C3    C117  S    
C71   H6    S    
C22   O24   S    
C114  C121  A    
C47   C48   A    
C18   H51   S    
C56   C58   A    
C8    C9    A    
C115  C117  A    
C30   O31   S    
C27   H71   S    
C115  H26   S    
O4    Zn2   S    
C44   H12   S    
C112  O7    A    
C29   H76   S    
C64   C70   A    
C9    C10   A    
C29   O30   D    
C90   H17   S    
C52   C63   S    
C3    C122  A    
O14   Zn2   S    
C120  O27   S    
C47   H34   S    
C23   O25   D    
O13   Zn1   S    
C66   C67   A    
C107  O23   A    
C109  O37   A    
C59   C60   A    
C119  H27   S    
C20   O21   D    
O10   Zn1   S    
C69   O16   A    
C36   C107  S    
C122  H28   S    
C107  O33   A    
C27   H72   S    
C114  H25   S    
C61   C116  A    
C67   C68   A    
C26   H69   S    
C55   H45   S    
C19   O20   D    
C76   H9    S    
C44   C46   A    
C97   C98   A    
O36   Zn3   S    
C119  C120  A    
C53   C54   A    
C40   C45   S    
C105  C108  S    
C72   C110  S    
C75   H8    S    
C28   H73   S    
C39   H1    S    
C74   C75   A    
C79   C109  S    
C20   C67   S    
C51   C52   A    
C15   H38   S    
C7    C8    A    
C84   C85   A    
C25   O26   S    
C112  C123  S    
C4    C6    A    
C25   H65   S    
C71   C73   A    
C35   C83   S    
O38   Zn5   S    
C13   H42   S    
C49   C51   A    
C58   C59   A    
C5    H29   S    
C21   O22   S    
C108  O35   A    
C42   H47   S    
C11   H36   S    
C87   H15   S    
C58   C111  S    
C13   C24   A    
C61   H41   S    
C26   H66   S    
C22   H60   S    
C68   H5    S    
C43   C44   A    
C31   H81   S    
C62   C63   A    
C93   C106  A    
C81   C93   A    
C79   C80   A    
C99   C100  A    
C31   H83   S    
C118  H20   S    
C16   H39   S    
C32   C41   A    
C121  O26   S    
C96   C97   A    
C108  O34   A    
C82   H13   S    
C33   C34   A    
C56   C63   A    
C42   C48   A    
O11   Zn2   S    
C37   C48   S    
C24   H43   S    
C39   C81   A    
C86   C87   A    
C102  H24   S    
C78   C85   A    
C80   C82   A    
C40   C41   A    
C4    H30   S    
O35   Zn4   S    
C12   C14   A    
C109  O36   A    
C98   C99   A    
C82   C84   A    
C5    C39   A    
C81   H2    S    
C125  C126  A    
C97   H22   S    
C41   C106  S    
C42   C43   A    
C92   C95   A    
C4    C10   A    
C73   H7    S    
C26   H68   S    
C78   H11   S    
C19   H53   S    
C113  O8    A    
C71   C77   A    
C6    H31   S    
C120  C121  A    
C61   C72   A    
C104  O17   A    
O17   Zn3   S    
C57   O13   A    
C110  O38   A    
O16   Zn2   S    
C96   H21   S    
C11   C50   A    
C46   C47   A    
C77   O22   S    
O15   Zn1   S    
O33   Zn4   S    
C54   O19   S    
C78   C79   A    
C110  O2    A    
C111  O3    A    
C16   C50   A    
C18   O19   S    
C69   O15   A    
C11   C12   A    
C38   H46   S    
C6    C7    A    
C56   H78   S    
C18   H52   S    
C86   H14   S    
C64   H3    S    
C88   O24   S    
C24   C33   A    
C21   H57   S    
C5    C118  A    
C25   H64   S    
C45   O11   A    
C64   C65   A    
C80   C91   S    
C89   C90   A    
C31   H82   S    
C98   C103  A    
C49   C55   A    
C12   H37   S    
C38   C40   A    
C76   C77   A    
C83   C94   A    
C26   O27   S    
C90   C91   A    
C23   H62   S    
C7    O29   S    
O6    Zn5   S    
C14   C116  S    
C100  C101  A    
C17   O18   D    
O8    Zn5   S    
C57   C100  S    
O7    Zn6   S    
C112  O6    A    
C74   C85   S    
O2    Zn6   S    
C102  C103  A    
C92   H18   S    
C2    O31   S    
C30   H79   S    
C72   C83   A    
C59   C70   S    
C49   H56   S    
C17   H49   S    
O9    Zn6   S    
C46   H23   S    
C104  C126  S    
C88   C89   A    
O1    Zn1   S    
C68   C70   A    
C65   C66   A    
O5    Zn6   S    
C65   H4    S    
C1    O4    A    
C69   C84   S    
C45   O10   A    
C9    H33   S    
C14   C15   A    
C25   H63   S    
C27   H70   S    
C122  C123  A    
C31   O32   S    
C60   H84   S    
C113  O9    A    
C106  C118  A    
C125  O28   S    
C15   C16   A    
C92   C99   A    
C18   H50   S    
C124  C125  A    
C50   H35   S    
C57   O14   A    
O12   Zn4   S    
