data_mof_unit_36214.cif
_audit_creation_date              2012-12-11T16:34:37-0500
_audit_creation_method            fapswitch 2.2
_symmetry_space_group_name_H-M    P1
_symmetry_Int_Tables_number       1
_space_group_crystal_system       triclinic
_cell_length_a                    8.265419
_cell_length_b                    17.476446
_cell_length_c                    26.980604
_cell_angle_alpha                 95.723033
_cell_angle_beta                  92.641732
_cell_angle_gamma                 83.717052
_cell_volume                      3852.19477828

loop_
_atom_site_label
_atom_site_type_symbol
_atom_type_description
_atom_site_fract_x
_atom_site_fract_y
_atom_site_fract_z
_atom_type_partial_charge
Ba1   Ba    Ba6+2 0.856110 0.463800 0.523550 1.673886
Ba2   Ba    Ba6+2 0.333710 0.536130 0.476450 1.667312
C1    C     C_3   0.736699 0.187087 0.654282 -0.319217
C2    C     C_R   0.947268 0.587074 0.182275 0.588995
C3    C     C_2   0.770447 0.561622 0.273343 -0.084376
C4    C     C_3   0.221251 0.251636 0.655471 0.259484
C5    C     C_3   0.743730 0.583149 0.328223 -0.067115
C6    C     C_1   0.985760 0.493286 0.344789 0.044625
C7    C     C_2   0.028222 0.489072 0.297314 -0.107106
C8    C     C_2   0.913676 0.522999 0.258250 0.219114
C9    C     C_R   0.037744 0.514750 0.104467 -0.080866
C10   C     C_R   0.054762 0.446734 0.129133 -0.037809
C11   C     C_R   0.110875 0.376794 0.102296 -0.047693
C12   C     C_3   0.699764 0.265998 0.634785 0.308756
C13   C     C_R   0.983363 0.585249 0.131416 -0.028095
C14   C     C_2   0.855083 0.536221 0.362140 -0.262202
C15   C     C_2   0.349293 0.480852 0.642302 -0.270481
C16   C     C_3   0.160557 0.326645 0.685721 -0.372859
C17   C     C_R   0.179409 0.439858 0.975551 0.019061
C18   C     C_R   0.081879 0.578402 0.976253 0.019765
C19   C     C_R   0.149075 0.508101 0.950394 0.051977
C20   C     C_R   0.253248 0.372364 0.948586 -0.097093
C21   C     C_R   0.292270 0.371522 0.898765 -0.048721
C22   C     C_R   0.259046 0.437733 0.873151 -0.034190
C23   C     C_3   0.501035 0.656621 0.627587 0.297221
C24   C     C_R   0.186583 0.506106 0.898830 -0.079420
C25   C     C_R   0.152075 0.572576 0.872984 -0.036437
C26   C     C_R   0.189943 0.569860 0.822074 0.592868
C27   C     C_R   0.297589 0.436888 0.822414 0.593774
C28   C     C_3   0.253757 0.292506 0.384357 0.233413
C29   C     C_2   0.458083 0.482329 0.730097 -0.086611
C30   C     C_3   0.498870 0.486724 0.676091 -0.047113
C31   C     C_1   0.210103 0.516826 0.657897 0.030551
C32   C     C_2   0.172757 0.521429 0.705713 -0.096707
C33   C     C_2   0.302510 0.501284 0.744855 0.207115
C34   C     C_3   0.483133 0.685993 0.682283 -0.359768
C35   C     C_R   0.136252 0.441369 0.026542 0.019234
C36   C     C_R   0.075335 0.512422 0.052887 0.051701
C37   C     C_R   0.051642 0.581291 0.028239 0.019916
C38   C     C_R   0.151020 0.374063 0.052388 -0.096938
C39   C     C_R   0.966848 0.653031 0.107137 -0.058118
C40   C     C_3   0.215710 0.221682 0.408887 -0.347019
C41   C     C_R   0.046042 0.643578 0.948829 -0.098171
C42   C     C_R   0.080317 0.640592 0.898547 -0.056137
C43   C     C_R   0.999715 0.651227 0.056878 -0.099167
C44   C     C_R   0.411151 0.276503 0.517276 -0.273839
C45   C     C_3   0.967433 0.756931 0.344782 0.287450
C46   C     C_R   0.552174 0.251576 0.491578 -0.000910
C47   C     C_R   0.609416 0.171567 0.485593 -0.090464
C48   C     C_R   0.520612 0.118234 0.506311 -0.050625
C49   C     C_R   0.375293 0.144835 0.530740 -0.137965
C50   C     C_R   0.320457 0.223935 0.535531 0.018312
C51   C     C_R   0.585136 0.833461 0.506920 -0.118251
C52   C     C_3   0.993390 0.697760 0.579855 0.299488
C53   C     C_R   0.638599 0.754477 0.502232 0.048608
C54   C     C_R   0.872591 0.778245 0.457895 -0.024329
C55   C     C_R   0.820546 0.858102 0.462475 -0.123512
C56   C     C_3   0.998154 0.776085 0.292573 -0.298437
C57   C     C_R   0.674265 0.885677 0.486459 -0.001896
C58   C     C_1   0.619310 0.967469 0.493362 0.041140
C59   C     C_1   0.572201 0.035733 0.499666 0.050813
C60   C     C_R   0.776899 0.726981 0.475788 -0.276160
C61   C     C_3   0.968912 0.784915 0.592715 -0.365889
C62   C     C_3   0.682130 0.377449 0.377257 0.295877
C63   C     C_3   0.708977 0.359211 0.321681 -0.302886
C64   C     C_2   0.261414 0.188412 0.689933 0.893384
C65   C     C_2   0.757195 0.142545 0.457052 0.903461
C66   C     C_2   0.333550 0.265514 0.335142 0.865435
C67   C     C_3   0.493314 0.741647 0.355201 0.415760
C68   C     C_3   0.450099 0.814663 0.329035 -0.346337
C69   C     C_R   0.013488 0.449890 0.179935 0.603620
H1    H     H_    0.808949 0.277784 0.615753 0.123603
H2    H     H_    0.791826 0.399798 0.395603 0.021911
H3    H     H_    0.577311 0.422242 0.382396 0.064941
H4    H     H_    0.833477 0.189084 0.684194 0.170859
H5    H     H_    0.818911 0.317310 0.315599 0.151749
H6    H     H_    0.725018 0.412542 0.304428 0.040817
H7    H     H_    0.601909 0.334451 0.302823 0.167850
H8    H     H_    0.596232 0.263962 0.607219 -0.018158
H9    H     H_    0.779295 0.143717 0.623432 0.113317
H10   H     H_    0.379984 0.642447 0.612149 0.027640
H11   H     H_    0.589584 0.603914 0.624607 0.033046
H12   H     H_    0.135220 0.186810 0.383843 0.144372
H13   H     H_    0.401823 0.741094 0.685666 0.147822
H14   H     H_    0.428958 0.643344 0.702421 0.076376
H15   H     H_    0.604238 0.695957 0.699789 0.127518
H16   H     H_    0.625706 0.168884 0.669091 0.125145
H17   H     H_    0.260011 0.348217 0.710175 0.114024
H18   H     H_    0.926361 0.698376 0.342158 0.015942
H19   H     H_    0.870668 0.800816 0.360267 -0.015778
H20   H     H_    0.094325 0.733530 0.275466 0.168552
H21   H     H_    0.884012 0.774467 0.269322 0.122189
H22   H     H_    0.037195 0.835079 0.293973 0.098573
H23   H     H_    0.329093 0.184609 0.417596 0.077458
H24   H     H_    0.628457 0.731681 0.357576 -0.138944
H25   H     H_    0.447352 0.751455 0.393624 0.075022
H26   H     H_    0.509105 0.863157 0.349523 0.070125
H27   H     H_    0.316616 0.830430 0.327886 0.144752
H28   H     H_    0.335645 0.259557 0.637452 -0.111921
H29   H     H_    0.493933 0.805507 0.290377 0.117090
H30   H     H_    0.148716 0.463480 0.286711 0.122900
H31   H     H_    0.124243 0.323269 0.119903 0.135528
H32   H     H_    0.555678 0.469781 0.757361 0.102746
H33   H     H_    0.349061 0.318115 0.880233 0.137840
H34   H     H_    0.151196 0.240538 0.443852 0.132352
H35   H     H_    0.285679 0.318999 0.965150 0.077041
H36   H     H_    0.190716 0.317501 0.034850 0.076651
H37   H     H_    0.683468 0.586536 0.246472 0.104958
H38   H     H_    0.927369 0.708420 0.127007 0.122329
H39   H     H_    0.988147 0.698020 0.964858 0.073860
H40   H     H_    0.047775 0.537203 0.716503 0.117944
H41   H     H_    0.986043 0.706465 0.041867 0.073218
H42   H     H_    0.840995 0.549534 0.401947 0.076320
H43   H     H_    0.353634 0.443910 0.607421 0.068609
H44   H     H_    0.478155 0.854380 0.528051 0.086007
H45   H     H_    0.875839 0.676572 0.567572 0.003771
H46   H     H_    0.303524 0.104195 0.545066 0.103954
H47   H     H_    0.894845 0.898189 0.448702 0.092169
H48   H     H_    0.366684 0.337322 0.520897 0.072004
H49   H     H_    0.119499 0.370899 0.660095 0.146331
H50   H     H_    0.818185 0.665827 0.473159 0.055186
H51   H     H_    0.056794 0.318116 0.708634 0.142274
H52   H     H_    0.337745 0.324129 0.409884 -0.013241
H53   H     H_    0.438208 0.242828 0.728663 0.302734
H54   H     H_    0.050211 0.692458 0.879663 0.127764
H55   H     H_    0.970285 0.074016 0.454155 0.302101
H56   H     H_    0.080348 0.684699 0.549339 0.072177
H57   H     H_    0.162262 0.322759 0.291420 0.301053
H58   H     H_    0.875615 0.799672 0.621441 0.141230
H59   H     H_    0.928128 0.814522 0.559275 0.066825
H60   H     H_    0.085451 0.806147 0.607271 0.132518
N1    N     N_R   0.959135 0.519663 0.206070 -0.423579
N2    N     N_R   0.262335 0.502499 0.797208 -0.425666
O1    O     O_2   0.910880 0.540430 0.617910 -0.464508
O2    O     O_2   0.209390 0.772821 0.466873 -0.485273
O3    O     O_3   0.111858 0.758899 0.374053 -0.577077
O4    O     O_3   0.142880 0.540370 0.557740 -0.490060
O5    O     O_3   0.562610 0.408580 0.475460 -0.501492
O6    O     O_2   0.365880 0.685750 0.523280 -0.460019
O7    O     O_3   0.557932 0.714590 0.602838 -0.637914
O8    O     O_2   0.431314 0.527726 0.322516 -0.485001
O9    O     O_3   0.422104 0.679375 0.328596 -0.566428
O10   O     O_2   0.023977 0.390314 0.200565 -0.582205
O11   O     O_2   0.361785 0.377434 0.800658 -0.593518
O12   O     O_3   0.651064 0.309778 0.397108 -0.566430
O13   O     O_2   0.906134 0.649208 0.205518 -0.624393
O14   O     O_2   0.160529 0.627963 0.800110 -0.590342
O15   O     O_3   0.675650 0.402220 0.588450 -0.494594
O16   O     O_2   0.835682 0.437864 0.673478 -0.494696
O17   O     O_3   0.053504 0.663731 0.622587 -0.625883
O18   O     O_3   0.660573 0.322794 0.674377 -0.604919
O19   O     O_2   0.823810 0.314230 0.476690 -0.434872
O20   O     O_3   0.086630 0.363340 0.564170 -0.482582
O21   O     O_2   0.987102 0.226934 0.530073 -0.463706
O22   O     O_2   0.188880 0.130718 0.684684 -0.540595
O23   O     O_3   0.096753 0.230613 0.620958 -0.599283
O24   O     O_R   0.380793 0.194458 0.728158 -0.715631
O25   O     O_2   0.773507 0.162989 0.415737 -0.569692
O26   O     O_R   0.875924 0.089763 0.477019 -0.750601
O27   O     O_2   0.457797 0.220738 0.335047 -0.547146
O28   O     O_R   0.268897 0.288525 0.289389 -0.705394
O29   O     O_2   0.278810 0.459550 0.382060 -0.484989
O30   O     O_3   0.046820 0.459570 0.442260 -0.466315
O31   O     O_3   0.514050 0.597710 0.411540 -0.475859
O32   O     O_3   0.104707 0.336715 0.376435 -0.665562
O33   O     O_3   0.627090 0.591350 0.524530 -0.477068
O34   O     O_3   0.103080 0.636600 0.435820 -0.466681
P1    P     P_3+3 0.078810 0.562990 0.610370 0.997252
P2    P     P_3+3 0.645380 0.325580 0.462150 1.039214
P3    P     P_3+3 0.124530 0.261743 0.562455 0.966417
P4    P     P_3+3 0.110900 0.436950 0.389630 0.982139
P5    P     P_3+3 0.072807 0.737648 0.434037 0.962087
P6    P     P_3+3 0.668111 0.414262 0.653471 0.961129
P7    P     P_3+3 0.550095 0.688019 0.538616 0.954340
P8    P     P_3+3 0.527114 0.593804 0.346895 0.973165

loop_
_geom_bond_atom_site_label_1
_geom_bond_atom_site_label_2
_ccdc_geom_bond_type
O32   P4    S    
C27   N2    Am   
C19   C24   A    
O18   P6    S    
C62   O12   S    
C67   H25   S    
C14   H42   S    
C33   N2    S    
C51   C57   A    
C43   H41   S    
C52   O17   S    
C66   O28   S    
C24   C25   A    
C63   H5    S    
O31   P8    S    
Ba2   O6    S    
C17   C19   A    
C56   H22   S    
C22   C24   A    
C32   C33   S    
C35   C38   A    
C36   C37   A    
C45   O3    S    
C55   C57   A    
C52   C61   S    
C53   C60   A    
C44   C50   A    
C54   C55   A    
O21   P3    D    
Ba1   O19   S    
Ba1   Ba2   S    
C61   H59   S    
O23   P3    S    
C22   C27   A    
C11   C38   A    
C17   C35   A    
C69   N1    Am   
C9    C13   A    
C25   C42   A    
O29   P4    D    
O3    P5    S    
C6    C7    D    
C52   H45   S    
O20   P3    S    
C62   H2    S    
C41   H39   S    
C61   H60   S    
C1    H4    S    
C56   H20   S    
Ba2   O33   S    
O16   P6    D    
C6    P4    S    
C4    O23   S    
Ba2   P4    S    
C37   C43   A    
C2    O13   D    
C57   C58   S    
C6    C14   D    
C39   H38   S    
C54   P5    S    
O5    P2    S    
C23   H10   S    
C32   H40   S    
C45   H18   S    
Ba2   O29   S    
C15   C31   D    
C1    H9    S    
C68   H29   S    
C15   H43   S    
C48   C49   A    
C44   C46   A    
C51   C53   A    
C4    C16   S    
O12   P2    S    
C42   H54   S    
O33   P7    S    
C63   H6    S    
C1    H16   S    
C49   C50   A    
Ba2   O5    S    
C17   C20   A    
C13   C39   A    
C2    N1    Am   
C50   P3    S    
C3    C5    S    
C18   C37   A    
O4    P1    S    
O30   P4    S    
Ba1   P1    S    
C34   H15   S    
C67   O9    S    
H55   O26   S    
C27   O11   D    
C16   H17   S    
C26   N2    Am   
C5    P8    S    
C58   C59   T    
C29   H32   S    
C12   O18   S    
C9    C36   A    
C41   C42   A    
C53   P7    S    
C35   C36   A    
Ba1   O15   S    
C29   C30   S    
C21   C22   A    
O17   P1    S    
H53   O24   S    
C23   O7    S    
C31   C32   D    
C12   H8    S    
C28   H52   S    
Ba1   O20   S    
O34   P5    S    
C1    C12   S    
C16   H51   S    
C38   H36   S    
O7    P7    S    
C46   C47   A    
C10   C69   A    
C23   H11   S    
C45   H19   S    
C54   C60   A    
C31   P1    S    
Ba2   O31   S    
Ba1   O1    S    
C16   H49   S    
C18   C41   A    
Ba1   O4    S    
C69   O10   D    
C7    C8    S    
C15   C30   S    
C5    C14   S    
C26   O14   D    
C39   C43   A    
C63   H7    S    
C47   C65   S    
C18   C19   A    
C40   H23   S    
Ba2   O4    S    
C12   H1    S    
C40   H12   S    
C28   O32   S    
O2    P5    D    
C67   H24   S    
Ba2   O30   S    
C9    C10   A    
C68   H26   S    
O9    P8    S    
C34   H14   S    
C52   H56   S    
O15   P6    S    
C62   C63   S    
C2    C13   A    
C3    C8    D    
C20   H35   S    
C4    H28   S    
C45   C56   S    
O19   P2    D    
C64   O22   D    
C30   P6    S    
Ba1   O33   S    
C34   H13   S    
C64   O24   S    
C29   C33   D    
Ba1   P2    S    
H57   O28   S    
C49   H46   S    
C44   H48   S    
C65   O25   D    
O1    P1    D    
C61   H58   S    
C21   H33   S    
C67   C68   S    
C40   H34   S    
C8    N1    S    
C23   C34   S    
C46   P2    S    
C68   H27   S    
C4    C64   S    
C10   C11   A    
Ba1   O30   S    
C7    H30   S    
C47   C48   A    
C25   C26   A    
O8    P8    D    
C48   C59   S    
C62   H3    S    
C20   C21   A    
C28   C40   S    
O6    P7    D    
C65   O26   S    
C11   H31   S    
C66   O27   D    
C56   H21   S    
Ba2   O34   S    
C60   H50   S    
C28   C66   S    
Ba1   O5    S    
C51   H44   S    
C55   H47   S    
C3    H37   S    
