data_mof_unit_19123.cif
_audit_creation_date              2012-12-11T14:30:14-0500
_audit_creation_method            fapswitch 2.2
_symmetry_space_group_name_H-M    P1
_symmetry_Int_Tables_number       1
_space_group_crystal_system       triclinic
_cell_length_a                    13.026793
_cell_length_b                    12.92511
_cell_length_c                    27.03366
_cell_angle_alpha                 89.793867
_cell_angle_beta                  90.473251
_cell_angle_gamma                 120.489995
_cell_volume                      3922.17295238

loop_
_atom_site_label
_atom_site_type_symbol
_atom_type_description
_atom_site_fract_x
_atom_site_fract_y
_atom_site_fract_z
_atom_type_partial_charge
Br1   Br    Br    0.028736 0.274684 0.133102 -0.356532
Br2   Br    Br    0.320597 0.839830 0.839736 -0.302122
Br3   Br    Br    0.149118 0.478091 0.652566 -0.309458
Br4   Br    Br    0.566288 0.706881 0.839629 -0.282545
Br5   Br    Br    0.126217 0.237578 0.036094 -0.417083
Br6   Br    Br    0.107921 0.798782 0.455830 -0.362573
Br7   Br    Br    0.745317 0.886205 0.041957 -0.399779
Br8   Br    Br    0.132908 0.244271 0.462872 -0.356377
Br9   Br    Br    0.114486 0.854051 0.032110 -0.415695
Br10  Br    Br    0.750946 0.885578 0.463914 -0.351586
Br11  Br    Br    0.140214 0.744913 0.568814 -0.360607
Br12  Br    Br    0.255210 0.977250 0.369950 -0.324938
Br13  Br    Br    0.103748 0.251261 0.920932 -0.339730
Br14  Br    Br    0.787879 0.817696 0.574142 -0.342293
Br15  Br    Br    0.157174 0.877348 0.916697 -0.332526
Br16  Br    Br    0.107385 0.265478 0.579275 -0.417811
Br17  Br    Br    0.741598 0.858746 0.925513 -0.355652
Br18  Br    Br    0.727148 0.732611 0.133545 -0.392000
Br19  Br    Br    0.016537 0.266802 0.365185 -0.389352
Br20  Br    Br    0.250022 0.969156 0.129256 -0.381907
Br21  Br    Br    0.725011 0.737495 0.370174 -0.389802
Br22  Br    Br    0.261839 0.950880 0.646395 -0.308763
Br23  Br    Br    0.146344 0.444872 0.840155 -0.308306
Br24  Br    Br    0.585706 0.719496 0.658256 -0.365115
C1    C     C_R   0.556324 0.456373 0.821285 0.561496
C2    C     C_R   0.456558 0.561445 0.177252 0.574419
C3    C     C_R   0.087114 0.356409 0.484535 0.218901
C4    C     C_R   0.272350 0.898927 0.011126 0.167803
C5    C     C_R   0.642993 0.725836 0.487152 0.213355
C6    C     C_R   0.275819 0.871377 0.534773 0.218636
C7    C     C_R   0.085370 0.365650 0.961033 0.215241
C8    C     C_R   0.640842 0.711924 0.538727 0.176204
C9    C     C_R   0.287388 0.899476 0.959340 0.193162
C10   C     C_R   0.082858 0.370380 0.536189 0.205540
C11   C     C_R   0.627418 0.719961 0.963189 0.190314
C12   C     C_R   0.439256 0.896158 0.322695 0.529987
C13   C     C_R   0.106584 0.542875 0.176770 0.570596
C14   C     C_R   0.003207 0.496699 0.970845 -0.058965
C15   C     C_R   0.491367 0.986382 0.529650 -0.047488
C16   C     C_R   0.493654 0.503419 0.971159 -0.079006
C17   C     C_R   0.965933 0.464679 0.521801 -0.012192
C18   C     C_R   0.501408 0.996459 0.972109 -0.057563
C19   C     C_R   0.484362 0.502642 0.530684 -0.045364
C20   C     C_R   0.483138 0.980586 0.477261 -0.060342
C21   C     C_R   0.893916 0.440000 0.677123 0.580922
C22   C     C_R   0.013683 0.493574 0.023075 -0.064236
C23   C     C_R   0.490229 0.514672 0.478268 -0.044872
C24   C     C_R   0.486001 0.982617 0.023801 -0.077052
C25   C     C_R   0.985863 0.468151 0.470507 -0.017377
C26   C     C_R   0.496411 0.514639 0.023574 -0.073891
C27   C     C_R   0.887166 0.594662 0.981018 0.162248
C28   C     C_R   0.707249 0.101411 0.523802 0.162458
C29   C     C_R   0.388273 0.285794 0.980459 0.162659
C30   C     C_R   0.794531 0.483766 0.503383 0.192608
C31   C     C_R   0.716586 0.114385 0.984183 0.117083
C32   C     C_R   0.544634 0.103061 0.821534 0.601132
C33   C     C_R   0.394262 0.285872 0.521113 0.129621
C34   C     C_R   0.698659 0.100599 0.472265 0.191129
C35   C     C_R   0.894762 0.588185 0.032413 0.125442
C36   C     C_R   0.395583 0.298946 0.469718 0.219212
C37   C     C_R   0.700685 0.104844 0.035342 0.170325
C38   C     C_R   0.820496 0.496820 0.453240 0.168192
C39   C     C_R   0.393628 0.297941 0.032050 0.123786
C40   C     C_R   0.939793 0.563370 0.898381 0.090938
C41   C     C_R   0.609456 0.035814 0.605141 0.051209
C42   C     C_R   0.432188 0.375225 0.897902 0.089878
C43   C     C_R   0.553976 0.457467 0.679867 0.566755
C44   C     C_R   0.858054 0.483713 0.590548 0.058419
C45   C     C_R   0.626779 0.115074 0.904759 0.069668
C46   C     C_R   0.424636 0.375473 0.604503 0.070105
C47   C     C_R   0.577132 0.000392 0.396840 0.051196
C48   C     C_R   0.001932 0.571018 0.104580 0.085607
C49   C     C_R   0.415664 0.423066 0.396920 0.077647
C50   C     C_R   0.573699 0.998243 0.105707 0.084561
C51   C     C_R   0.972123 0.542303 0.388966 0.072067
C52   C     C_R   0.419745 0.423713 0.105211 0.085105
C53   C     C_R   0.055816 0.512521 0.125650 0.029451
C54   C     C_R   0.901236 0.444879 0.820793 0.575699
C55   C     C_R   0.464490 0.948928 0.373787 -0.001785
C56   C     C_R   0.483555 0.536860 0.126537 0.029826
C57   C     C_R   0.048385 0.505677 0.371469 0.043161
C58   C     C_R   0.460167 0.944662 0.126256 -0.010653
C59   C     C_R   0.481934 0.536398 0.374658 -0.021818
C60   C     C_R   0.513777 0.026776 0.632429 0.018393
C61   C     C_R   0.966743 0.492406 0.868133 0.000652
C62   C     C_R   0.504166 0.475837 0.633151 0.037657
C63   C     C_R   0.532116 0.053434 0.871340 0.056326
C64   C     C_R   0.931548 0.467069 0.624589 0.041043
C65   C     C_R   0.541299 0.098325 0.679107 0.556866
C66   C     C_R   0.509469 0.474683 0.868699 -0.005554
C67   C     C_R   0.947266 0.556171 0.949997 0.093385
C68   C     C_R   0.603949 0.038877 0.553001 0.012445
C69   C     C_R   0.433340 0.387608 0.949656 0.095168
C70   C     C_R   0.874676 0.482419 0.539017 0.073525
C71   C     C_R   0.616526 0.071171 0.953034 0.042771
C72   C     C_R   0.426389 0.386144 0.552319 0.048261
C73   C     C_R   0.587768 0.028427 0.448252 0.049914
C74   C     C_R   0.969872 0.552000 0.053698 0.064835
C75   C     C_R   0.430800 0.411039 0.448154 0.114915
C76   C     C_R   0.456477 0.561477 0.323150 0.535457
C77   C     C_R   0.587490 0.030138 0.055295 0.094023
C78   C     C_R   0.927059 0.506959 0.437415 0.029551
C79   C     C_R   0.434980 0.410568 0.053881 0.064497
C80   C     C_R   0.037450 0.448904 0.887294 0.172429
C81   C     C_R   0.398634 0.969234 0.609921 0.170385
C82   C     C_R   0.552586 0.589936 0.888029 0.188659
C83   C     C_R   0.022692 0.450018 0.606714 0.190705
C84   C     C_R   0.423561 0.958142 0.887908 0.175630
C85   C     C_R   0.552024 0.590462 0.612984 0.183123
C86   C     C_R   0.367942 0.940066 0.401723 0.161770
C87   C     C_R   0.437035 0.893843 0.177121 0.528638
C88   C     C_R   0.060219 0.420525 0.097769 0.143730
C89   C     C_R   0.574401 0.631234 0.403220 0.149202
C90   C     C_R   0.364164 0.936310 0.096868 0.161246
C91   C     C_R   0.058314 0.416384 0.399213 0.132444
C92   C     C_R   0.576367 0.631347 0.098750 0.148163
C93   C     C_R   0.047154 0.440186 0.939427 0.003134
C94   C     C_R   0.387168 0.938700 0.558768 0.004813
C95   C     C_R   0.554287 0.606705 0.940307 -0.006500
C96   C     C_R   0.030371 0.434131 0.555196 0.012856
C97   C     C_R   0.402096 0.944744 0.939505 -0.004299
C98   C     C_R   0.104666 0.541708 0.322277 0.573519
C99   C     C_R   0.553195 0.604850 0.561150 -0.018201
C100  C     C_R   0.370986 0.933613 0.453835 -0.029397
C101  C     C_R   0.057555 0.423835 0.044948 -0.031142
C102  C     C_R   0.567824 0.626942 0.455880 -0.001134
C103  C     C_R   0.371246 0.935374 0.044263 -0.033515
C104  C     C_R   0.049447 0.416580 0.451304 0.001259
C105  C     C_R   0.569632 0.627579 0.046116 -0.030068
C106  C     C_R   0.087661 0.354992 0.013068 0.179292
C107  C     C_R   0.266703 0.878302 0.483228 0.193978
C108  C     C_R   0.636812 0.729558 0.015363 0.171719
Cr1   Cr    Cr6+3 0.487630 0.241180 0.750000 1.106340
Cr2   Cr    Cr6+3 0.753550 0.512370 0.750000 1.111138
Cr3   Cr    Cr6+3 0.758820 0.246450 0.750000 1.130904
Cr4   Cr    Cr6+3 0.241180 0.487630 0.250000 1.123484
Cr5   Cr    Cr6+3 0.512370 0.753550 0.250000 1.099544
Cr6   Cr    Cr6+3 0.246450 0.758820 0.250000 1.159659
H1    H     H_    0.003068 0.727306 0.119433 0.335175
H2    H     H_    0.676595 0.067021 0.167746 0.249178
H3    H     H_    0.264541 0.327276 0.356081 0.305318
H4    H     H_    0.382599 0.315364 0.337085 0.251727
H5    H     H_    0.730179 0.983570 0.611322 0.288440
H6    H     H_    0.684195 0.999888 0.664437 0.287171
H7    H     H_    0.822670 0.604768 0.866459 0.282180
H8    H     H_    0.967666 0.692316 0.847162 0.295168
H9    H     H_    0.272722 0.208788 0.606319 0.291503
H10   H     H_    0.302082 0.285453 0.657288 0.287827
H11   H     H_    0.737647 0.292584 0.921899 0.224789
H12   H     H_    0.887602 0.599813 0.145464 0.285296
H13   H     H_    0.797836 0.232032 0.883939 0.282163
H14   H     H_    0.707063 0.427737 0.629061 0.227458
H15   H     H_    0.804407 0.583128 0.627942 0.323450
H16   H     H_    0.387710 0.215640 0.865058 0.283702
H17   H     H_    0.306097 0.279156 0.844913 0.292875
H18   H     H_    0.838732 0.700018 0.054256 0.314767
H19   H     H_    0.732581 0.550612 0.055702 0.231770
H20   H     H_    0.786518 0.224209 0.418445 0.243749
H21   H     H_    0.836544 0.125938 0.429969 0.350788
H22   H     H_    0.278054 0.127581 0.053206 0.321183
H23   H     H_    0.683646 0.073141 0.336998 0.247464
H24   H     H_    0.425152 0.168268 0.055395 0.231645
H25   H     H_    0.716201 0.408834 0.393565 0.223831
H26   H     H_    0.746018 0.552374 0.401360 0.271241
H27   H     H_    0.863400 0.154639 0.062638 0.323252
H28   H     H_    0.831028 0.267125 0.057127 0.231017
H29   H     H_    0.435815 0.176691 0.445549 0.243490
H30   H     H_    0.287739 0.126479 0.450233 0.316124
H31   H     H_    0.854304 0.119789 0.558112 0.319020
H32   H     H_    0.817320 0.225291 0.574237 0.244286
H33   H     H_    0.724618 0.573010 0.972675 0.201917
H34   H     H_    0.671736 0.942986 0.358084 0.315786
H35   H     H_    0.839223 0.719668 0.972230 0.314280
H36   H     H_    0.294571 0.113753 0.547119 0.289496
H37   H     H_    0.440530 0.191594 0.569230 0.253864
H38   H     H_    0.879655 0.130159 0.985742 0.304455
H39   H     H_    0.825998 0.115291 0.931175 0.295088
H40   H     H_    0.696238 0.539435 0.534910 0.280398
H41   H     H_    0.637879 0.385708 0.538077 0.239968
H42   H     H_    0.402046 0.139262 0.971883 0.205103
H43   H     H_    0.258744 0.112006 0.970846 0.321449
H44   H     H_    0.262347 0.270016 0.121035 0.334403
H45   H     H_    0.387875 0.276298 0.145280 0.282624
H46   H     H_    0.935317 0.676955 0.377969 0.315925
H47   H     H_    0.861923 0.555989 0.339058 0.232205
H48   H     H_    0.670254 0.940769 0.144505 0.308677
N1    N     N_3   0.977806 0.645184 0.136267 -0.546391
N2    N     N_3   0.721045 0.233922 0.892363 -0.619091
N3    N     N_3   0.766145 0.502452 0.608282 -0.646863
N4    N     N_3   0.346453 0.263380 0.875315 -0.491901
N5    N     N_3   0.821757 0.614015 0.062878 -0.619458
N6    N     N_3   0.804827 0.177799 0.445570 -0.550265
N7    N     N_3   0.364018 0.195972 0.062254 -0.616666
N8    N     N_3   0.726074 0.473586 0.419272 -0.597631
N9    N     N_3   0.798506 0.177979 0.067257 -0.537285
N10   N     N_3   0.369824 0.198558 0.439197 -0.513029
N11   N     N_3   0.822634 0.174753 0.545370 -0.566169
N12   N     N_3   0.679549 0.024301 0.368589 -0.586755
N13   N     N_3   0.810331 0.632311 0.960347 -0.586204
N14   N     N_3   0.383375 0.176132 0.539253 -0.665436
N15   N     N_3   0.833773 0.160662 0.964122 -0.619796
N16   N     N_3   0.680753 0.462935 0.516254 -0.592373
N17   N     N_3   0.346199 0.169672 0.959474 -0.570362
N18   N     N_3   0.345670 0.324843 0.137172 -0.551642
N19   N     N_3   0.942178 0.612683 0.357312 -0.558229
N20   N     N_3   0.675216 0.021782 0.135529 -0.509241
N21   N     N_3   0.336773 0.319606 0.367864 -0.504480
N22   N     N_3   0.710576 0.041754 0.629966 -0.564874
N23   N     N_3   0.912007 0.648546 0.877166 -0.489667
N24   N     N_3   0.343596 0.264676 0.629247 -0.543565
O1    O     O_R   0.460870 0.120930 0.805240 -0.492002
O2    O     O_R   0.120930 0.460870 0.194760 -0.459002
O3    O     O_R   0.539130 0.660060 0.305240 -0.446896
O4    O     O_R   0.339940 0.879070 0.194760 -0.441795
O5    O     O_R   0.498910 0.350470 0.801870 -0.524371
O6    O     O_R   0.851560 0.501090 0.698130 -0.497385
O7    O     O_R   0.649530 0.148440 0.801870 -0.466673
O8    O     O_R   0.498910 0.350470 0.698130 -0.482780
O9    O     O_R   0.851560 0.501090 0.801870 -0.521214
O10   O     O_R   0.649530 0.148440 0.698130 -0.497177
O11   O     O_R   0.350470 0.498910 0.301870 -0.513305
O12   O     O_R   0.660060 0.539130 0.694760 -0.471830
O13   O     O_R   0.501090 0.851560 0.198130 -0.517774
O14   O     O_R   0.148440 0.649530 0.301870 -0.452271
O15   O     O_R   0.350470 0.498910 0.198130 -0.461645
O16   O     O_R   0.501090 0.851560 0.301870 -0.509544
O17   O     O_R   0.148440 0.649530 0.198130 -0.458648
O18   O     O_3   0.666667 0.333333 0.750000 -0.304170
O19   O     O_3   0.333333 0.666667 0.250000 -0.311720
O20   O     O_R   0.879070 0.339940 0.805240 -0.457478
O21   O     O_R   0.460870 0.120930 0.694760 -0.442325
O22   O     O_R   0.660060 0.539130 0.805240 -0.474383
O23   O     O_R   0.879070 0.339940 0.694760 -0.457263
O24   O     O_R   0.120930 0.460870 0.305240 -0.475695
O25   O     O_R   0.539130 0.660060 0.194760 -0.461387
O26   O     O_R   0.339940 0.879070 0.305240 -0.442822

loop_
_geom_bond_atom_site_label_1
_geom_bond_atom_site_label_2
_ccdc_geom_bond_type
C2    O25   A    
C41   C68   A    
Cr4   O15   S    
C1    O22   A    
C82   C95   A    
H35   N13   S    
C29   C39   A    
H29   N10   S    
C59   C89   A    
C22   C101  A    
Cr6   O26   S    
C87   O4    A    
C84   C97   A    
H38   N15   S    
C36   C75   A    
Cr1   O21   S    
C83   C96   A    
C23   C75   A    
C42   C66   A    
C41   N22   S    
H15   N3    S    
C22   C74   A    
C47   C73   A    
C1    C66   S    
C29   N17   S    
H23   N12   S    
C23   C102  A    
H44   N18   S    
H45   N18   S    
C46   C72   A    
C76   O11   A    
C26   C105  A    
C21   O23   A    
C5    C8    A    
H10   N24   S    
Br1   C88   S    
H26   N8    S    
C46   N24   S    
C24   C77   A    
C2    O15   A    
H5    N22   S    
C6    C107  A    
C31   N15   S    
C31   C37   A    
C21   O6    A    
Cr2   O6    S    
C3    C104  A    
C17   C25   A    
C12   O26   A    
C7    C93   A    
H33   N13   S    
C48   C53   A    
Br16  C10   S    
Cr4   O2    S    
C14   C93   A    
C11   C95   A    
C101  C106  A    
C92   C105  A    
C56   C92   A    
Br11  C6    S    
Cr2   O12   S    
Cr3   O20   S    
Cr4   O24   S    
C51   C78   A    
Cr3   O23   S    
H34   N12   S    
Cr2   O22   S    
Cr5   O25   S    
H9    N24   S    
C16   C69   A    
C45   C63   A    
C4    C103  A    
C52   N18   S    
C105  C108  A    
C27   C67   A    
H42   N17   S    
C52   C79   A    
H16   N4    S    
C26   C79   A    
C98   O14   A    
C5    C102  A    
C53   C88   A    
C9    C97   A    
C8    C99   A    
H43   N17   S    
C34   C73   A    
Cr3   O10   S    
C50   C58   A    
H1    N1    S    
H27   N9    S    
C47   C55   A    
C32   O7    A    
C35   N5    S    
C19   C72   A    
H7    N23   S    
C43   O8    A    
C3    C10   A    
C10   C96   A    
H13   N2    S    
C28   C34   A    
C76   O3    A    
C30   C70   A    
Cr3   O18   S    
C63   C84   A    
C29   C69   A    
C18   C71   A    
Cr1   O5    S    
H47   N19   S    
C1    O5    A    
C62   C85   A    
H28   N9    S    
C58   C90   A    
C32   O1    A    
C31   C71   A    
C40   C61   A    
Br18  C92   S    
C25   C78   A    
C64   C83   A    
H48   N20   S    
C85   C99   A    
C32   C63   S    
C48   C74   A    
C89   C102  A    
C30   C38   A    
H25   N8    S    
Br3   C83   S    
C30   N16   S    
C13   C53   S    
C14   C67   A    
C33   C72   A    
C15   C94   A    
C44   C70   A    
C91   C104  A    
C100  C107  A    
Cr2   O18   S    
C43   O12   A    
C37   C77   A    
H3    N21   S    
C48   N1    S    
Cr5   O16   S    
H17   N4    S    
H20   N6    S    
C54   O9    A    
C20   C73   A    
Br23  C80   S    
H41   N16   S    
Br19  C91   S    
C57   C91   A    
H14   N3    S    
C39   N7    S    
C60   C81   A    
C88   C101  A    
C13   O17   A    
C87   O13   A    
H4    N21   S    
C65   O21   A    
C45   N2    S    
C66   C82   A    
Br7   C108  S    
C61   C80   A    
C27   N13   S    
C50   C77   A    
C21   C64   S    
C54   C61   S    
Cr5   O19   S    
Br5   C106  S    
C98   O24   A    
C4    C9    A    
C18   C24   A    
C59   C76   S    
H40   N16   S    
C33   N14   S    
C34   N6    S    
C44   C64   A    
Cr1   O18   S    
H39   N15   S    
C40   N23   S    
C28   C68   A    
C27   C35   A    
C60   C65   S    
C38   N8    S    
C39   C79   A    
C46   C62   A    
C19   C99   A    
C15   C68   A    
H12   N1    S    
H8    N23   S    
C81   C94   A    
C36   N10   S    
C47   N12   S    
H31   N11   S    
C80   C93   A    
C50   N20   S    
C49   C75   A    
C25   C104  A    
C37   N9    S    
Cr6   O4    S    
C43   C62   S    
C12   O16   A    
C55   C86   A    
Cr5   O3    S    
C42   C69   A    
H21   N6    S    
Br13  C7    S    
Cr6   O19   S    
C51   C57   A    
Br24  C85   S    
C52   C56   A    
Br14  C8    S    
Br6   C107  S    
C45   C71   A    
C12   C55   S    
H2    N20   S    
Br21  C89   S    
C15   C20   A    
C41   C60   A    
C54   O20   A    
Br22  C81   S    
C6    C94   A    
Cr4   O19   S    
Cr5   O13   S    
H36   N14   S    
Cr1   O8    S    
C57   C98   S    
C58   C87   S    
C13   O2    A    
H19   N5    S    
Br8   C3    S    
C24   C103  A    
Br20  C90   S    
C90   C103  A    
C51   N19   S    
Br10  C5    S    
C18   C97   A    
Br4   C82   S    
C44   N3    S    
C16   C26   A    
Br12  C86   S    
C42   N4    S    
H24   N7    S    
Br2   C84   S    
C20   C100  A    
Cr6   O14   S    
C17   C96   A    
C49   N21   S    
Cr6   O17   S    
Cr4   O11   S    
C2    C56   S    
H37   N14   S    
C14   C22   A    
H46   N19   S    
C7    C106  A    
H18   N5    S    
C33   C36   A    
C16   C95   A    
Cr1   O1    S    
H11   N2    S    
C49   C59   A    
H30   N10   S    
C35   C74   A    
C86   C100  A    
C28   N11   S    
Br17  C11   S    
C40   C67   A    
C38   C78   A    
H6    N22   S    
C19   C23   A    
C11   C108  A    
Br15  C9    S    
H32   N11   S    
C17   C70   A    
Cr2   O9    S    
Br9   C4    S    
H22   N7    S    
C65   O10   A    
Cr3   O7    S    
