data_mof_unit_42955.cif
_audit_creation_date              2012-12-11T14:51:44-0500
_audit_creation_method            fapswitch 2.2
_symmetry_space_group_name_H-M    P1
_symmetry_Int_Tables_number       1
_space_group_crystal_system       triclinic
_cell_length_a                    6.929038
_cell_length_b                    16.718529
_cell_length_c                    16.88533
_cell_angle_alpha                 101.342152
_cell_angle_beta                  90.268796
_cell_angle_gamma                 90.478179
_cell_volume                      1917.74469141

loop_
_atom_site_label
_atom_site_type_symbol
_atom_type_description
_atom_site_fract_x
_atom_site_fract_y
_atom_site_fract_z
_atom_type_partial_charge
O1    O     O_R   0.506340 0.439070 0.579550 -0.536780
O2    O     O_R   0.170010 0.404890 0.412100 -0.529698
O3    O     O_R   0.005010 0.560930 0.420450 -0.541203
C1    C     C_R   0.339417 0.381500 0.383228 0.728821
O4    O     O_R   0.176280 0.429360 0.578400 -0.536254
O5    O     O_R   0.011320 0.585570 0.587940 -0.541728
C2    C     C_R   0.346801 0.414019 0.605576 0.719351
O6    O     O_R   0.500030 0.414430 0.412060 -0.540976
O7    O     O_3   0.340950 0.551220 0.502940 -0.374554
V1    V     V_3+5 0.064020 0.490500 0.499460 1.443735
O8    O     O_R   0.681910 0.595110 0.587900 -0.545431
C3    C     C_R   0.851962 0.618391 0.616722 0.671007
O9    O     O_R   0.675640 0.570640 0.421600 -0.542492
C4    C     C_R   0.846000 0.585906 0.394355 0.691731
V2    V     V_3+5 0.564670 0.509500 0.500540 1.417624
O10   O     O_3   0.837610 0.448780 0.497060 -0.357440
C5    C     C_R   0.895096 0.863557 0.168678 -0.067211
C6    C     C_R   0.870574 0.636458 0.331434 -0.067596
C7    C     C_R   0.077194 0.673953 0.226885 -0.192251
C8    C     C_R   0.031029 0.621871 0.279560 -0.160957
C9    C     C_R   0.753714 0.704010 0.327976 -0.238169
C10   C     C_R   0.800950 0.757444 0.275418 0.151879
C11   C     C_R   0.964729 0.742603 0.224729 0.158306
C12   C     C_R   0.011965 0.796022 0.172165 -0.241113
C13   C     C_R   0.734649 0.878167 0.220553 -0.139669
C14   C     C_R   0.688493 0.826101 0.273254 -0.182050
H1    H     H_    0.134317 0.783297 0.132021 0.118165
H2    H     H_    0.641732 0.929740 0.219384 0.128770
H3    H     H_    0.202589 0.660989 0.188539 0.117278
H4    H     H_    0.563108 0.839077 0.311602 0.128280
H5    H     H_    0.123963 0.570300 0.280712 0.118235
H6    H     H_    0.631374 0.716729 0.368127 0.121575
C15   C     C_3   0.706491 0.777570 0.772455 -0.110816
C16   C     C_3   0.796472 0.775677 0.688310 -0.140448
H7    H     H_    0.724676 0.796395 0.637088 0.106191
H8    H     H_    0.560380 0.800474 0.791155 0.111162
C17   C     C_3   0.867360 0.688593 0.687480 -0.006535
C18   C     C_3   0.777523 0.689667 0.770824 -0.146731
C19   C     C_3   0.969616 0.724252 0.811746 -0.145181
C20   C     C_3   0.059597 0.722360 0.727601 -0.111454
C21   C     C_3   0.988566 0.810263 0.729232 -0.142170
C22   C     C_3   0.898729 0.811337 0.812576 -0.007390
H9    H     H_    0.689952 0.639607 0.787415 0.096144
H10   H     H_    0.041413 0.703534 0.862967 0.099795
H11   H     H_    0.205708 0.699455 0.708901 0.110054
H12   H     H_    0.076136 0.860323 0.712640 0.102202
C23   C     C_3   0.555470 0.280475 0.277090 -0.134631
C24   C     C_3   0.488313 0.191097 0.273449 -0.150843
H13   H     H_    0.575471 0.142790 0.292711 0.144263
H14   H     H_    0.698937 0.305665 0.299285 0.141452
C25   C     C_3   0.408759 0.188797 0.187708 -0.060651
C26   C     C_3   0.475668 0.277329 0.190604 -0.144007
C27   C     C_3   0.277984 0.308572 0.226589 -0.197914
C28   C     C_3   0.210379 0.219255 0.222870 -0.126769
C29   C     C_3   0.291461 0.222746 0.308762 0.298010
C30   C     C_3   0.357317 0.311119 0.312392 -0.059439
H15   H     H_    0.553273 0.299638 0.141702 0.108912
H16   H     H_    0.190340 0.356859 0.207554 0.111890
H17   H     H_    0.066778 0.193962 0.200988 0.133705
C31   C     C_R   0.395868 0.136144 0.831010 -0.067519
C32   C     C_R   0.370802 0.363605 0.668635 -0.073270
C33   C     C_R   0.576548 0.327921 0.774667 -0.187785
C34   C     C_R   0.530441 0.379702 0.721773 -0.160851
C35   C     C_R   0.254844 0.294704 0.670904 -0.209093
C36   C     C_R   0.302037 0.241574 0.723695 0.149068
C37   C     C_R   0.464919 0.258022 0.775747 0.157070
C38   C     C_R   0.512050 0.204934 0.828581 -0.239584
C39   C     C_R   0.236302 0.119995 0.777829 -0.159280
C40   C     C_R   0.190390 0.171682 0.724804 -0.172027
H18   H     H_    0.633608 0.218880 0.869779 0.117569
H19   H     H_    0.143857 0.067483 0.778244 0.121034
H20   H     H_    0.701274 0.342116 0.814040 0.116047
H21   H     H_    0.065702 0.157466 0.685412 0.134333
H22   H     H_    0.622780 0.432263 0.721440 0.117041
H23   H     H_    0.133343 0.280754 0.629670 0.147296
O11   O     O_R   0.266070 0.085680 0.087850 -0.537496
O12   O     O_R   0.590090 0.070660 0.921580 -0.540006
O13   O     O_R   0.754780 0.914400 0.912080 -0.539016
C41   C     C_R   0.419646 0.085914 0.894253 0.696618
O14   O     O_R   0.596110 0.095130 0.087880 -0.541447
O15   O     O_R   0.760850 0.939050 0.079570 -0.540048
C42   C     C_R   0.426704 0.118535 0.116766 0.699943
O16   O     O_R   0.260010 0.061030 0.920360 -0.538936
O17   O     O_3   0.425070 0.948840 0.997010 -0.368613
V3    V     V_3+5 0.702100 0.009490 0.000550 1.407298
O18   O     O_R   0.090200 0.929250 0.078500 -0.538330
C43   C     C_R   0.919780 0.914071 0.105736 0.705917
O19   O     O_R   0.084180 0.904770 0.912200 -0.544024
C44   C     C_R   0.914133 0.881538 0.883334 0.676104
V4    V     V_3+5 0.201420 0.990350 0.999580 1.409458
O20   O     O_3   0.928580 0.051150 0.002990 -0.367187
Br1   Br    Br    0.155708 0.183148 0.393544 -0.588271

loop_
_geom_bond_atom_site_label_1
_geom_bond_atom_site_label_2
_ccdc_geom_bond_type
C24   C29   S    
C29   C30   S    
C31   C41   S    
C16   C17   S    
C21   C22   S    
C4    C6    S    
O2    C1    A    
C7    C8    A    
C12   H1    S    
C1    O6    A    
V3    O20   S    
C27   C28   S    
C13   H2    S    
C33   C34   A    
C15   C22   S    
C17   C18   S    
C17   C20   S    
O5    C3    A    
C18   C19   S    
V2    O10   S    
C6    C9    A    
C15   H8    S    
C16   H7    S    
C3    C17   S    
C32   C34   A    
C2    C32   S    
O8    V2    S    
C24   C25   S    
C31   C38   A    
C39   C40   A    
C21   H12   S    
C40   H21   S    
O1    V2    S    
C23   H14   S    
C25   C28   S    
O7    V1    S    
C37   C38   A    
O12   V3    S    
O1    C2    A    
O9    C4    A    
C1    C30   S    
C16   C21   S    
O17   V4    S    
C19   C22   S    
C28   H17   S    
O12   C41   A    
O13   C44   A    
C20   H11   S    
C9    H6    S    
C5    C12   A    
C33   C37   A    
C25   C26   S    
O17   V3    S    
O14   C42   A    
O18   V4    S    
O11   C42   A    
C19   C20   S    
O4    C2    A    
O18   C43   A    
C13   C14   A    
C32   C35   A    
C7    C11   A    
O14   V3    S    
C23   C24   S    
C11   C12   A    
C15   C16   S    
C33   H20   S    
C25   C42   S    
O15   C43   A    
O3    C4    A    
O13   V3    S    
C24   H13   S    
C29   Br1   S    
O19   V4    S    
C14   H4    S    
O6    V2    S    
O9    V2    S    
O2    V1    S    
C26   C27   S    
C27   C30   S    
O16   V4    S    
C28   C29   S    
C20   C21   S    
C5    C43   S    
O5    V1    S    
C27   H16   S    
C19   H10   S    
C34   H22   S    
C15   C18   S    
C22   C44   S    
C5    C13   A    
C35   C36   A    
C38   H18   S    
O7    V2    S    
O4    V1    S    
O3    V1    S    
V1    O10   S    
C41   O16   A    
V4    O20   S    
C39   H19   S    
C36   C40   A    
C35   H23   S    
C6    C8    A    
C26   H15   S    
C18   H9    S    
O19   C44   A    
C31   C39   A    
C36   C37   A    
C10   C14   A    
C23   C26   S    
C10   C11   A    
C9    C10   A    
O15   V3    S    
O8    C3    A    
O11   V4    S    
C23   C30   S    
C8    H5    S    
C7    H3    S    
