data_mof_unit_13199.cif
_audit_creation_date              2012-12-10T17:04:21-0500
_audit_creation_method            fapswitch 2.2
_symmetry_space_group_name_H-M    P1
_symmetry_Int_Tables_number       1
_space_group_crystal_system       triclinic
_cell_length_a                    11.697721
_cell_length_b                    11.059623
_cell_length_c                    9.980056
_cell_angle_alpha                 110.049192
_cell_angle_beta                  99.349716
_cell_angle_gamma                 91.896134
_cell_volume                      1191.28277725

loop_
_atom_site_label
_atom_site_type_symbol
_atom_type_description
_atom_site_fract_x
_atom_site_fract_y
_atom_site_fract_z
_atom_type_partial_charge
C1    C     C_R   0.484876 0.256276 0.442902 0.806638
C2    C     C_R   0.504175 0.745498 0.556580 0.833022
C3    C     C_R   0.284282 0.499776 0.499499 0.820546
C4    C     C_R   0.715715 0.500279 0.500504 0.806625
C5    C     C_1   0.162354 0.499540 0.498753 -0.143513
C6    C     C_1   0.837626 0.500234 0.501123 -0.168581
C7    C     C_1   0.059857 0.499625 0.499288 0.011083
C8    C     C_1   0.940106 0.499966 0.500483 0.008731
C9    C     C_2   0.440793 0.125911 0.421541 -0.156129
C10   C     C_2   0.509715 0.884544 0.575817 -0.230006
C11   C     C_2   0.515307 0.042635 0.449223 -0.085804
C12   C     C_2   0.469914 0.919483 0.458209 -0.051765
C13   C     C_2   0.515947 0.503800 0.078910 0.146421
C14   C     C_2   0.495414 0.482215 0.916982 0.104256
Cu1   Cu    Cu3+1 0.519790 0.521810 0.644910 0.997019
Cu2   Cu    Cu3+1 0.480210 0.478190 0.355090 1.004275
N1    N     N_2   0.450460 0.445430 0.137370 -0.067643
N2    N     N_2   0.549540 0.554570 0.862630 -0.073095
O1    O     O_R   0.510560 0.332330 0.577400 -0.592584
O2    O     O_R   0.489440 0.667670 0.422600 -0.576670
O3    O     O_R   0.477140 0.295500 0.332650 -0.535260
O4    O     O_R   0.522860 0.704500 0.667350 -0.521091
O5    O     O_R   0.353910 0.518430 0.622380 -0.598008
O6    O     O_R   0.646090 0.481570 0.377620 -0.592187
O7    O     O_R   0.320490 0.481600 0.377630 -0.618162
O8    O     O_R   0.679510 0.518400 0.622370 -0.613502
C15   C     C_2   0.382796 0.834337 0.330062 0.472531
H1    H     H_    0.320804 0.765467 0.342493 0.032064
O9    O     O_2   0.378900 0.842214 0.210294 -0.491758
C16   C     C_2   0.643698 0.067750 0.461387 0.424703
H2    H     H_    0.681411 0.158337 0.460449 0.038940
O10   O     O_2   0.708859 0.985633 0.470019 -0.512730
C17   C     C_2   0.573090 0.981564 0.715141 0.459289
H3    H     H_    0.581408 0.083325 0.729746 0.126374
O11   O     O_2   0.616675 0.949103 0.815701 -0.531127
C18   C     C_2   0.312406 0.106295 0.412161 0.416366
H4    H     H_    0.274230 0.033093 0.445429 0.061412
O12   O     O_2   0.247338 0.175061 0.369751 -0.577802
C19   C     C_2   0.414064 0.372716 0.815078 0.516033
H5    H     H_    0.328022 0.389044 0.769589 0.054448
O13   O     O_2   0.441482 0.262323 0.785222 -0.566781
C20   C     C_2   0.616494 0.593031 0.173462 0.523013
H6    H     H_    0.702680 0.559542 0.177954 0.007285
O14   O     O_2   0.605306 0.706023 0.239190 -0.472777
O15   O     O_3   0.591708 0.675028 0.953213 -0.455636
C21   C     C_3   0.705407 0.698040 0.931534 0.228978
H7    H     H_    0.703044 0.720848 0.831662 0.207209
H8    H     H_    0.756605 0.613612 0.925341 0.091207
C22   C     C_3   0.768688 0.814890 0.057506 -0.715237
H9    H     H_    0.784551 0.792833 0.158954 0.255964
H10   H     H_    0.854023 0.840636 0.034234 0.191301
H11   H     H_    0.716269 0.898943 0.073259 0.295668
O16   O     O_3   0.396385 0.328817 0.049964 -0.482643
C23   C     C_3   0.283101 0.319139 0.078181 0.228107
H12   H     H_    0.243517 0.412873 0.101616 0.123127
H13   H     H_    0.284425 0.283218 0.169156 0.221073
C24   C     C_3   0.205892 0.220137 0.945761 -0.810922
H14   H     H_    0.243680 0.125734 0.916912 0.277509
H15   H     H_    0.117845 0.206925 0.969723 0.214104
H16   H     H_    0.197497 0.253618 0.852044 0.236093

loop_
_geom_bond_atom_site_label_1
_geom_bond_atom_site_label_2
_ccdc_geom_bond_type
C2    O4    A    
C9    C18   S    
Cu1   O1    S    
C11   C12   S    
Cu1   O8    S    
C1    O3    A    
Cu2   O3    S    
Cu2   O7    S    
C15   O9    D    
C14   N2    D    
Cu1   N2    S    
C3    O5    A    
C13   N1    D    
Cu2   O2    S    
C22   H11   S    
C15   H1    S    
Cu1   O5    S    
C17   H3    S    
O15   C21   S    
C7    C8    S    
Cu2   O6    S    
C13   C14   S    
C16   O10   D    
C9    C11   D    
C21   C22   S    
C23   H12   S    
C24   H14   S    
C20   O14   D    
C10   C12   D    
C18   O12   D    
C13   C20   S    
C17   O11   D    
C10   C17   S    
C23   H13   S    
C16   H2    S    
C4    O6    A    
C21   H8    S    
C4    O8    A    
C1    O1    A    
C4    C6    S    
C24   H15   S    
C20   H6    S    
C12   C15   S    
C2    O2    A    
Cu1   Cu2   S    
C2    C10   S    
N2    O15   S    
N1    O16   S    
C3    O7    A    
C1    C9    S    
C19   O13   D    
C22   H9    S    
C19   H5    S    
C5    C7    T    
C21   H7    S    
C18   H4    S    
C24   H16   S    
C6    C8    T    
C22   H10   S    
C14   C19   S    
O16   C23   S    
Cu1   O4    S    
C11   C16   S    
Cu2   N1    S    
C3    C5    S    
C23   C24   S    
