data_mof_unit_9895.cif
_audit_creation_date              2012-12-10T17:32:58-0500
_audit_creation_method            fapswitch 2.2
_symmetry_space_group_name_H-M    P1
_symmetry_Int_Tables_number       1
_space_group_crystal_system       triclinic
_cell_length_a                    12.373484
_cell_length_b                    13.240037
_cell_length_c                    14.253671
_cell_angle_alpha                 93.199085
_cell_angle_beta                  107.437919
_cell_angle_gamma                 117.060385
_cell_volume                      1932.51699932

loop_
_atom_site_label
_atom_site_type_symbol
_atom_type_description
_atom_site_fract_x
_atom_site_fract_y
_atom_site_fract_z
_atom_type_partial_charge
C1    C     C_R   0.650655 0.714131 0.508302 0.777981
C2    C     C_R   0.847870 0.497808 0.917644 0.090454
C3    C     C_R   0.787720 0.498196 0.988094 0.166003
C4    C     C_R   0.958983 0.482246 0.945513 0.066580
C5    C     C_R   0.014661 0.476890 0.046808 0.064858
C6    C     C_R   0.950070 0.475523 0.114171 -0.217319
C7    C     C_R   0.838617 0.485486 0.084908 -0.229012
C8    C     C_R   0.014295 0.468948 0.875015 -0.227026
C9    C     C_R   0.124148 0.456420 0.903880 -0.241601
C10   C     C_R   0.184619 0.458788 0.004019 0.170448
C11   C     C_R   0.131791 0.470808 0.076804 0.090274
C12   C     C_R   0.618170 0.516709 0.686600 0.797146
C13   C     C_R   0.298393 0.450096 0.032349 -0.198966
C14   C     C_R   0.362444 0.455948 0.132874 -0.199647
C15   C     C_R   0.200433 0.479885 0.177920 -0.253136
C16   C     C_R   0.142716 0.966001 0.363725 -0.180048
C17   C     C_R   0.248820 0.161862 0.462659 -0.047019
C18   C     C_R   0.729319 0.921820 0.571518 -0.182815
C19   C     C_R   0.818968 0.038779 0.588970 -0.140411
C20   C     C_R   0.919678 0.072786 0.552503 -0.157511
C21   C     C_R   0.929967 0.989647 0.493838 0.081132
C22   C     C_R   0.828750 0.872509 0.465528 0.033124
C23   C     C_R   0.345185 0.285137 0.484897 0.803552
C24   C     C_R   0.036832 0.019191 0.461962 0.037701
C25   C     C_R   0.034979 0.934842 0.393796 0.146351
C26   C     C_R   0.924783 0.822481 0.355921 0.146341
C27   C     C_R   0.822565 0.793886 0.390500 -0.196108
C28   C     C_R   0.147167 0.130408 0.497909 -0.233636
C29   C     C_R   0.248094 0.078861 0.397228 -0.197981
C30   C     C_R   0.734912 0.837436 0.512191 -0.092303
C31   C     C_R   0.250554 0.672422 0.671125 0.061188
C32   C     C_R   0.651852 0.341094 0.364850 0.000902
C33   C     C_R   0.724490 0.298095 0.338423 -0.237444
C34   C     C_R   0.381485 0.482843 0.313323 0.793080
C35   C     C_R   0.859012 0.350559 0.389935 0.157471
C36   C     C_R   0.925385 0.454564 0.468076 -0.048482
C37   C     C_R   0.843086 0.491406 0.494858 0.267313
C38   C     C_R   0.066022 0.521170 0.524098 -0.074688
C39   C     C_R   0.116016 0.611235 0.610552 0.159289
C40   C     C_R   0.032041 0.641642 0.634723 -0.275162
C41   C     C_R   0.900732 0.585790 0.576835 -0.197257
C42   C     C_R   0.161256 0.506413 0.497988 -0.013911
C43   C     C_R   0.335761 0.647227 0.642730 0.020617
C44   C     C_R   0.679508 0.518924 0.792578 -0.050947
C45   C     C_R   0.314261 0.472179 0.206244 -0.048636
C46   C     C_R   0.675780 0.509784 0.960506 -0.199563
C47   C     C_R   0.621054 0.518839 0.862840 -0.194902
C48   C     C_R   0.794389 0.513076 0.821465 -0.252273
Cu1   Cu    Cu3+1 0.416420 0.526630 0.522910 0.929203
Cu2   Cu    Cu3+1 0.583580 0.473370 0.477090 0.923191
H1    H     H_    0.791724 0.482905 0.138627 0.145686
H2    H     H_    0.338476 0.439846 0.976821 0.129223
H3    H     H_    0.326513 0.102183 0.369021 0.149383
H4    H     H_    0.145324 0.904749 0.312194 0.151043
H5    H     H_    0.156926 0.195466 0.553606 0.143620
H6    H     H_    0.657028 0.897281 0.606425 0.154281
H7    H     H_    0.985776 0.165092 0.569791 0.119760
H8    H     H_    0.812932 0.103397 0.633866 0.144276
H9    H     H_    0.736106 0.709763 0.355784 0.174214
H10   H     H_    0.438713 0.691696 0.688395 0.122335
H11   H     H_    0.169371 0.496577 0.236959 0.147690
H12   H     H_    0.067948 0.711875 0.698373 0.184180
H13   H     H_    0.137083 0.450310 0.429554 0.140778
H14   H     H_    0.547453 0.297214 0.324933 0.139595
H15   H     H_    0.674632 0.220131 0.278967 0.163573
H16   H     H_    0.846866 0.618720 0.600686 0.207507
H17   H     H_    0.450638 0.449924 0.153321 0.148036
H18   H     H_    0.162996 0.446259 0.847384 0.142505
H19   H     H_    0.629169 0.509573 0.013970 0.129006
H20   H     H_    0.532120 0.523656 0.841923 0.149197
H21   H     H_    0.840347 0.521008 0.767054 0.149935
H22   H     H_    0.980358 0.463069 0.189631 0.138950
H23   H     H_    0.973383 0.464542 0.795772 0.151732
N1    N     N_R   0.290690 0.566960 0.557640 -0.190257
N2    N     N_R   0.709100 0.433710 0.442970 -0.200159
O1    O     O_R   0.545970 0.684450 0.528810 -0.573742
O2    O     O_R   0.687130 0.639470 0.490120 -0.601859
O3    O     O_R   0.519670 0.535100 0.660030 -0.586679
O4    O     O_R   0.660830 0.490120 0.621340 -0.595561
O5    O     O_R   0.312870 0.360530 0.509880 -0.585476
O6    O     O_R   0.454030 0.315550 0.471190 -0.581572
O7    O     O_R   0.339170 0.509880 0.378660 -0.587820
O8    O     O_R   0.480330 0.464900 0.339970 -0.596271
C49   C     C_3   0.913867 0.731143 0.279479 -0.882340
H24   H     H_    0.819833 0.648590 0.257844 0.225364
H25   H     H_    0.920123 0.763040 0.209834 0.236556
H26   H     H_    0.993354 0.710867 0.311640 0.237680
N3    N     N_3   0.299774 0.759046 0.761348 -0.602953
H27   H     H_    0.267267 0.715377 0.814644 0.219273
H28   H     H_    0.401663 0.801817 0.792061 0.211697
N4    N     N_3   0.918189 0.286489 0.366499 -0.599768
H29   H     H_    0.963966 0.321461 0.316212 0.207809
H30   H     H_    0.978970 0.280353 0.432229 0.223183

loop_
_geom_bond_atom_site_label_1
_geom_bond_atom_site_label_2
_ccdc_geom_bond_type
C17   C29   A    
C35   C36   A    
C49   H26   S    
C4    C8    A    
Cu2   O4    S    
C32   N2    A    
C33   H15   S    
C6    H22   S    
C26   C27   A    
C17   C23   S    
C31   C43   A    
C36   C37   A    
C49   H25   S    
C5    C11   A    
C3    C7    A    
C38   C39   A    
C12   O4    A    
C40   H12   S    
Cu1   O3    S    
C18   C19   A    
C8    H23   S    
C46   H19   S    
C11   C15   A    
C19   C20   A    
C8    C9    A    
C12   O3    A    
C14   H17   S    
C18   C30   A    
C23   O5    A    
C23   O6    A    
C9    C10   A    
C44   C47   A    
C18   H6    S    
C43   N1    A    
C37   N2    A    
C21   C22   A    
C17   C28   A    
C28   H5    S    
Cu2   O8    S    
C14   C45   A    
C19   H8    S    
C42   N1    A    
C24   C25   A    
C32   H14   S    
C39   C40   A    
C2    C48   A    
C25   C26   A    
Cu1   O7    S    
C2    C4    A    
C47   H20   S    
N4    H30   S    
C13   H2    S    
C20   C21   A    
C15   H11   S    
Cu1   O1    S    
C34   C45   S    
C49   H24   S    
C6    C7    A    
C43   H10   S    
C40   C41   A    
N3    H28   S    
C22   C27   A    
C34   O8    A    
C15   C45   A    
C48   H21   S    
Cu2   O2    S    
N4    H29   S    
C16   C25   A    
C46   C47   A    
C26   C49   S    
C31   N3    S    
C22   C30   A    
C1    O1    A    
C24   C28   A    
C4    C5    A    
C10   C13   A    
C38   C42   A    
C41   H16   S    
C34   O7    A    
C3    C46   A    
Cu1   O5    S    
C32   C33   A    
C36   C38   A    
C2    C3    A    
C16   C29   A    
C9    H18   S    
C7    H1    S    
C12   C44   S    
C27   H9    S    
Cu2   N2    S    
C5    C6    A    
C29   H3    S    
C1    C30   S    
C33   C35   A    
C31   C39   A    
C37   C41   A    
C16   H4    S    
C10   C11   A    
N3    H27   S    
Cu1   Cu2   S    
C21   C24   A    
Cu1   N1    S    
C1    O2    A    
C20   H7    S    
C13   C14   A    
C42   H13   S    
C44   C48   A    
Cu2   O6    S    
C35   N4    S    
