data_mof_unit_30093.cif
_audit_creation_date              2012-12-10T16:50:56-0500
_audit_creation_method            fapswitch 2.2
_symmetry_space_group_name_H-M    P1
_symmetry_Int_Tables_number       1
_space_group_crystal_system       triclinic
_cell_length_a                    7.744028
_cell_length_b                    8.562897
_cell_length_c                    10.939531
_cell_angle_alpha                 91.348742
_cell_angle_beta                  85.6802
_cell_angle_gamma                 93.753579
_cell_volume                      721.675966352

loop_
_atom_site_label
_atom_site_type_symbol
_atom_type_description
_atom_site_fract_x
_atom_site_fract_y
_atom_site_fract_z
_atom_type_partial_charge
C1    C     C_R   0.545917 0.794847 0.496724 0.971091
C2    C     C_R   0.953793 0.410089 0.052483 -0.101146
C3    C     C_R   0.029481 0.562591 0.073973 -0.099839
C4    C     C_R   0.970491 0.437352 0.926027 -0.099826
C5    C     C_R   0.183959 0.571890 0.134687 -0.217450
C6    C     C_R   0.816011 0.428052 0.865314 -0.217426
C7    C     C_R   0.344178 0.533914 0.071082 0.069014
C8    C     C_R   0.655797 0.466038 0.928920 0.069000
C9    C     C_R   0.356686 0.552377 0.944145 0.066686
C10   C     C_R   0.643290 0.447576 0.055857 0.066684
C11   C     C_R   0.491788 0.488535 0.127693 -0.220821
C12   C     C_R   0.454083 0.205153 0.503276 0.971081
C13   C     C_R   0.508194 0.511431 0.872309 -0.220821
C14   C     C_2   0.570183 0.958316 0.494804 -0.392508
C15   C     C_2   0.429817 0.041684 0.505196 -0.392503
C16   C     C_R   0.503475 0.505252 0.739853 0.886315
C17   C     C_R   0.496522 0.494739 0.260147 0.886318
C18   C     C_R   0.215685 0.621207 0.894945 -0.184515
C19   C     C_R   0.784286 0.378741 0.105058 -0.184532
C20   C     C_R   0.046178 0.589854 0.947518 -0.101146
H1    H     H_    0.234920 0.699315 0.817908 0.158277
H2    H     H_    0.985311 0.615663 0.594551 0.188512
H3    H     H_    0.060106 0.360732 0.876442 0.156882
H4    H     H_    0.939866 0.639211 0.123558 0.156890
H5    H     H_    0.765049 0.300648 0.182105 0.158279
H6    H     H_    0.967348 0.682218 0.920156 0.142047
H7    H     H_    0.032621 0.317724 0.079846 0.142049
H8    H     H_    0.175436 0.628830 0.223470 0.185283
H9    H     H_    0.824520 0.371100 0.776533 0.185269
H10   H     H_    0.702697 0.009507 0.484855 0.176767
H11   H     H_    0.297303 0.990492 0.515145 0.176768
H12   H     H_    0.014689 0.384337 0.405449 0.188510
N1    N     N_2   0.950330 0.457950 0.466250 -0.186969
N2    N     N_2   0.049670 0.542050 0.533750 -0.186967
O1    O     O_R   0.389250 0.738570 0.508280 -0.619845
O2    O     O_R   0.610750 0.261430 0.491720 -0.619849
O3    O     O_R   0.678390 0.711630 0.486650 -0.630686
O4    O     O_R   0.321610 0.288370 0.513350 -0.630687
O5    O     O_R   0.355430 0.513480 0.694040 -0.626161
O6    O     O_R   0.644570 0.486520 0.305960 -0.626161
O7    O     O_R   0.644570 0.486540 0.672410 -0.640902
O8    O     O_R   0.355430 0.513460 0.327590 -0.640909
Zn1   Zn    Zn3+2 0.306940 0.517990 0.514440 0.919975
Zn2   Zn    Zn3+2 0.693060 0.482010 0.485560 0.919973

loop_
_geom_bond_atom_site_label_1
_geom_bond_atom_site_label_2
_ccdc_geom_bond_type
C2    C4    A    
C5    C7    A    
C15   H11   S    
C8    C13   A    
C12   O2    A    
C18   H1    S    
O1    Zn1   S    
O6    Zn2   S    
C12   C15   S    
C1    O3    A    
C10   C19   A    
H12   N1    S    
O3    Zn2   S    
C2    C3    A    
C3    C20   A    
C7    C11   A    
C3    H4    S    
C2    H7    S    
C20   H6    S    
C14   H10   S    
H2    N2    S    
C6    C8    A    
C4    C6    A    
N1    N2    D    
C18   C20   A    
C12   O4    A    
C19   H5    S    
O7    Zn2   S    
O2    Zn2   S    
C10   C11   A    
C16   O5    A    
C5    H8    S    
C9    C18   A    
O4    Zn1   S    
C6    H9    S    
C1    O1    A    
C8    C10   A    
O8    Zn1   S    
C13   C16   S    
C7    C9    A    
C4    H3    S    
C9    C13   A    
C17   O8    A    
C11   C17   S    
O5    Zn1   S    
C1    C14   S    
C2    C19   A    
C14   C15   D    
N1    Zn2   S    
C16   O7    A    
N2    Zn1   S    
C3    C5    A    
C17   O6    A    
C4    C20   A    
