data_mof_unit_36720.cif
_audit_creation_date              2012-12-10T18:54:57-0500
_audit_creation_method            fapswitch 2.2
_symmetry_space_group_name_H-M    P1
_symmetry_Int_Tables_number       1
_space_group_crystal_system       triclinic
_cell_length_a                    19.536273
_cell_length_b                    18.222157
_cell_length_c                    15.986239
_cell_angle_alpha                 89.402142
_cell_angle_beta                  92.253543
_cell_angle_gamma                 89.867584
_cell_volume                      5686.25767877

loop_
_atom_site_label
_atom_site_type_symbol
_atom_type_description
_atom_site_fract_x
_atom_site_fract_y
_atom_site_fract_z
_atom_type_partial_charge
C1    C     C_R   0.367755 0.499978 0.498697 0.909805
C2    C     C_R   0.632486 0.500279 0.499519 0.846316
C3    C     C_R   0.708077 0.501684 0.494081 -0.374059
C4    C     C_R   0.292318 0.499463 0.493488 -0.370941
C5    C     C_R   0.963512 0.562391 0.499048 0.277708
C6    C     C_R   0.034404 0.435719 0.452781 0.291104
C7    C     C_R   0.035452 0.564623 0.493042 0.285044
C8    C     C_R   0.962792 0.440435 0.438634 0.285616
C9    C     C_R   0.071368 0.499429 0.475884 -0.096835
C10   C     C_R   0.926779 0.501198 0.468198 -0.108307
C11   C     C_R   0.451861 0.723537 0.451933 0.195930
C12   C     C_R   0.539999 0.277447 0.557075 0.211940
C13   C     C_R   0.548070 0.722863 0.547714 0.184571
C14   C     C_R   0.458155 0.280037 0.443402 0.200163
C15   C     C_R   0.453673 0.801203 0.447765 0.321916
C16   C     C_R   0.540678 0.199701 0.557026 0.260481
C17   C     C_R   0.545992 0.800569 0.551182 0.322502
C18   C     C_R   0.456144 0.202282 0.442478 0.260486
C19   C     C_R   0.499725 0.840095 0.499303 -0.048437
C20   C     C_R   0.498308 0.161467 0.499293 -0.020768
C21   C     C_R   0.463006 0.961089 0.559469 0.053951
C22   C     C_R   0.533069 0.040418 0.437288 0.050328
C23   C     C_R   0.534787 0.962409 0.438506 0.055538
C24   C     C_R   0.463505 0.039081 0.560250 0.052249
C25   C     C_R   0.498028 0.078931 0.498704 0.161450
C26   C     C_R   0.499240 0.922606 0.499141 0.194999
C27   C     C_R   0.502504 0.500325 0.341404 0.785348
C28   C     C_R   0.501836 0.499695 0.658761 0.791404
C29   C     C_R   0.504143 0.567108 0.954738 0.058629
C30   C     C_R   0.515613 0.434074 0.045729 0.055751
C31   C     C_R   0.504494 0.567648 0.042548 0.145391
C32   C     C_R   0.514453 0.433495 0.957840 0.147984
C33   C     C_R   0.509478 0.499960 0.912697 0.024608
C34   C     C_R   0.511088 0.501330 0.087903 0.022166
C35   C     C_1   0.507684 0.499229 0.822883 -0.003324
C36   C     C_1   0.509950 0.501762 0.177743 0.004453
C37   C     C_1   0.507088 0.501221 0.252638 -0.215501
C38   C     C_1   0.505202 0.499143 0.747806 -0.202115
C39   C     C_R   0.749246 0.446929 0.534980 0.288247
C40   C     C_R   0.254690 0.520358 0.563134 0.259500
C41   C     C_R   0.257765 0.476469 0.418897 0.253775
C42   C     C_R   0.739647 0.557636 0.446969 0.246831
C43   C     C_R   0.819865 0.442788 0.519772 0.382866
C44   C     C_R   0.182395 0.520224 0.557195 0.406301
C45   C     C_R   0.185599 0.475890 0.413138 0.393500
C46   C     C_R   0.810633 0.556185 0.436972 0.388865
C47   C     C_R   0.850846 0.498845 0.472695 -0.091457
C48   C     C_R   0.147862 0.498364 0.482104 -0.099892
Cu1   Cu    Cu3+1 0.500000 0.573360 0.500000 0.929579
Cu2   Cu    Cu3+1 0.500000 0.426640 0.500000 0.986088
N1    N     N_R   0.500000 0.683620 0.500000 -0.229585
N2    N     N_R   0.500000 0.316380 0.500000 -0.200097
O1    O     O_R   0.400190 0.561980 0.499990 -0.582913
O2    O     O_R   0.599810 0.438020 0.500010 -0.532511
O3    O     O_R   0.599810 0.561980 0.500010 -0.575737
O4    O     O_R   0.400190 0.438020 0.499990 -0.552094
O5    O     O_R   0.499980 0.561940 0.380310 -0.607668
O6    O     O_R   0.500020 0.438060 0.619690 -0.557628
O7    O     O_R   0.500020 0.561940 0.619690 -0.584135
O8    O     O_R   0.499980 0.438060 0.380310 -0.540372
N3    N     N_3   0.496762 0.635449 0.085932 -0.597756
H1    H     H_    0.535608 0.671030 0.068110 0.241815
H2    H     H_    0.449802 0.658850 0.066483 0.236566
N4    N     N_3   0.517102 0.365353 0.913924 -0.588909
H3    H     H_    0.475181 0.333576 0.930588 0.239503
H4    H     H_    0.561807 0.337544 0.933760 0.238798
N5    N     N_3   0.497572 0.635252 0.909237 -0.604074
H5    H     H_    0.453652 0.632822 0.869841 0.225253
H6    H     H_    0.540127 0.641246 0.872104 0.221459
N6    N     N_3   0.520459 0.365775 0.091120 -0.598223
H7    H     H_    0.564016 0.367299 0.131210 0.227411
H8    H     H_    0.477396 0.360681 0.127560 0.225935
O9    O     O_3   0.721884 0.398290 0.591878 -0.594486
C49   C     C_3   0.701400 0.436672 0.663938 0.063338
H9    H     H_    0.646059 0.449945 0.656321 0.178335
H10   H     H_    0.729669 0.489244 0.674600 0.098721
C50   C     C_3   0.713033 0.388590 0.742673 -0.378054
H11   H     H_    0.704753 0.329807 0.727729 0.229419
H12   H     H_    0.766501 0.395071 0.767194 0.200103
C51   C     C_3   0.665508 0.409939 0.811736 -0.887289
H13   H     H_    0.669683 0.469520 0.825021 0.253127
H14   H     H_    0.679466 0.378500 0.869809 0.252092
H15   H     H_    0.611962 0.396400 0.792333 0.280120
O10   O     O_3   0.287831 0.545476 0.635548 -0.570703
C52   C     C_3   0.314181 0.485123 0.683424 0.056554
H16   H     H_    0.363209 0.466143 0.658618 0.145317
H17   H     H_    0.278453 0.437408 0.682595 0.123550
C53   C     C_3   0.327861 0.509336 0.774013 -0.326964
H18   H     H_    0.372026 0.547521 0.776689 0.219370
H19   H     H_    0.283174 0.539837 0.796880 0.219263
C54   C     C_3   0.342417 0.443675 0.832170 -0.915015
H20   H     H_    0.296198 0.408525 0.835301 0.247215
H21   H     H_    0.356219 0.463269 0.896166 0.258701
H22   H     H_    0.385438 0.410394 0.809414 0.273909
O11   O     O_3   0.293920 0.449186 0.353159 -0.574052
C55   C     C_3   0.319853 0.508109 0.305616 0.062206
H23   H     H_    0.368789 0.527175 0.334467 0.135282
H24   H     H_    0.284558 0.556459 0.302008 0.119288
C56   C     C_3   0.333023 0.481365 0.217085 -0.325864
H25   H     H_    0.379162 0.445714 0.218870 0.217941
H26   H     H_    0.289811 0.447153 0.192947 0.220979
C57   C     C_3   0.342317 0.545685 0.156692 -0.925078
H27   H     H_    0.293677 0.577052 0.148238 0.246993
H28   H     H_    0.356817 0.524809 0.094813 0.261689
H29   H     H_    0.382994 0.583057 0.181200 0.271495
O12   O     O_3   0.704561 0.621177 0.423969 -0.569208
C58   C     C_3   0.669965 0.612997 0.345481 0.113601
H30   H     H_    0.627622 0.573129 0.349542 0.151676
H31   H     H_    0.704197 0.592913 0.296925 0.085269
C59   C     C_3   0.640940 0.687995 0.318764 -0.299394
H32   H     H_    0.608904 0.709750 0.368928 0.229593
H33   H     H_    0.683950 0.726742 0.309681 0.217355
C60   C     C_3   0.597379 0.683857 0.237970 -0.932047
H34   H     H_    0.627218 0.659250 0.187546 0.257920
H35   H     H_    0.580830 0.739939 0.218117 0.250830
H36   H     H_    0.550989 0.650504 0.248201 0.288210
O13   O     O_3   0.857888 0.380039 0.540398 -0.556343
C61   C     C_3   0.871815 0.370472 0.627354 0.091762
H37   H     H_    0.907509 0.323064 0.634431 0.151364
H38   H     H_    0.825741 0.353299 0.659689 0.176330
C62   C     C_3   0.906815 0.436707 0.669267 -0.419366
H39   H     H_    0.952083 0.452015 0.633448 0.208949
H40   H     H_    0.870868 0.483939 0.669465 0.210495
C63   C     C_3   0.930326 0.419199 0.759372 -0.926612
H41   H     H_    0.885618 0.408587 0.798374 0.252750
H42   H     H_    0.959268 0.466535 0.785781 0.254809
H43   H     H_    0.964157 0.370148 0.761731 0.261685
O14   O     O_3   0.144089 0.547771 0.621337 -0.545184
C64   C     C_3   0.139951 0.498723 0.690404 0.075632
H44   H     H_    0.100293 0.521048 0.731181 0.155760
H45   H     H_    0.187579 0.499268 0.729234 0.166573
C65   C     C_3   0.118862 0.419797 0.667930 -0.418515
H46   H     H_    0.067191 0.420904 0.637058 0.218050
H47   H     H_    0.155360 0.395173 0.624714 0.205364
C66   C     C_3   0.117849 0.371081 0.746026 -0.917437
H48   H     H_    0.170524 0.364818 0.773982 0.253751
H49   H     H_    0.097984 0.315977 0.728940 0.257904
H50   H     H_    0.084503 0.395249 0.793229 0.257827
O15   O     O_3   0.151043 0.444691 0.344674 -0.539107
C67   C     C_3   0.146524 0.491717 0.273493 0.081657
H51   H     H_    0.112748 0.464062 0.226069 0.156759
H52   H     H_    0.195991 0.496996 0.244140 0.162192
C68   C     C_3   0.115532 0.567511 0.289259 -0.423494
H53   H     H_    0.062853 0.559914 0.310594 0.209547
H54   H     H_    0.146334 0.597024 0.337963 0.213411
C69   C     C_3   0.113489 0.614572 0.209754 -0.917378
H55   H     H_    0.166403 0.626770 0.190803 0.255149
H56   H     H_    0.086879 0.667155 0.221455 0.258111
H57   H     H_    0.085674 0.585723 0.157940 0.253685
O16   O     O_3   0.841684 0.614544 0.397259 -0.533114
C70   C     C_3   0.840948 0.603637 0.309713 0.077589
H58   H     H_    0.806829 0.645775 0.279401 0.160369
H59   H     H_    0.822502 0.548275 0.289503 0.090620
C71   C     C_3   0.912733 0.615526 0.278103 -0.340970
H60   H     H_    0.930487 0.671707 0.294314 0.225627
H61   H     H_    0.948095 0.575243 0.309142 0.191011
C72   C     C_3   0.913827 0.605905 0.183451 -0.938668
H62   H     H_    0.899916 0.548735 0.166470 0.251092
H63   H     H_    0.965870 0.617512 0.161643 0.264517
H64   H     H_    0.877307 0.644592 0.151140 0.257269
O17   O     O_3   0.928000 0.620645 0.531993 -0.566280
C73   C     C_3   0.946538 0.629880 0.617693 0.097710
H65   H     H_    0.986432 0.673062 0.623861 0.180012
H66   H     H_    0.967057 0.578916 0.648820 0.131727
C74   C     C_3   0.883310 0.654740 0.663178 -0.337440
H67   H     H_    0.865762 0.708805 0.637486 0.236014
H68   H     H_    0.841255 0.614528 0.652386 0.213290
C75   C     C_3   0.898521 0.661396 0.757126 -0.937370
H69   H     H_    0.914084 0.607293 0.784439 0.258645
H70   H     H_    0.851813 0.680321 0.788006 0.260669
H71   H     H_    0.940128 0.701771 0.769436 0.259586
O18   O     O_3   0.069788 0.371171 0.438183 -0.555961
C76   C     C_3   0.045280 0.312223 0.486816 0.126452
H72   H     H_    0.004040 0.283160 0.450727 0.193993
H73   H     H_    0.024993 0.330313 0.547525 0.123207
C77   C     C_3   0.104011 0.258139 0.505024 -0.355456
H74   H     H_    0.122932 0.237320 0.445001 0.230597
H75   H     H_    0.146965 0.286634 0.538569 0.219108
C78   C     C_3   0.081196 0.193376 0.558287 -0.936554
H76   H     H_    0.063367 0.212831 0.619371 0.254744
H77   H     H_    0.124964 0.155184 0.570138 0.260459
H78   H     H_    0.039034 0.163214 0.525216 0.259114
O19   O     O_3   0.072050 0.628192 0.510670 -0.563092
C79   C     C_3   0.052991 0.685068 0.453458 0.077290
H79   H     H_    0.008537 0.715785 0.476745 0.188486
H80   H     H_    0.039226 0.664322 0.389739 0.122771
C80   C     C_3   0.113110 0.738008 0.446829 -0.326741
H81   H     H_    0.125808 0.761448 0.509444 0.232937
H82   H     H_    0.158753 0.707738 0.425980 0.221571
C81   C     C_3   0.096344 0.800395 0.384930 -0.923935
H83   H     H_    0.084870 0.778268 0.321455 0.255200
H84   H     H_    0.140960 0.837838 0.381829 0.263411
H85   H     H_    0.051505 0.832209 0.405335 0.257096
O20   O     O_3   0.927459 0.383968 0.399484 -0.563527
C82   C     C_3   0.931078 0.394031 0.312157 0.058431
H86   H     H_    0.985183 0.390630 0.292743 0.173950
H87   H     H_    0.908974 0.448156 0.292441 0.131092
C83   C     C_3   0.889647 0.333924 0.267953 -0.315821
H88   H     H_    0.911532 0.279400 0.286040 0.222646
H89   H     H_    0.835790 0.336098 0.287857 0.226566
C84   C     C_3   0.890379 0.343173 0.173007 -0.942801
H90   H     H_    0.867456 0.396834 0.153506 0.252324
H91   H     H_    0.859981 0.298676 0.142692 0.260356
H92   H     H_    0.943709 0.340169 0.151568 0.259234
N7    N     N_3   0.395893 0.689420 0.407185 -0.586184
H93   H     H_    0.412159 0.646927 0.370063 0.240496
H94   H     H_    0.358660 0.673484 0.448644 0.253561
N8    N     N_3   0.581827 0.315877 0.617050 -0.492929
H95   H     H_    0.567679 0.299642 0.676851 0.223413
H96   H     H_    0.632329 0.299232 0.609735 0.239689
N9    N     N_3   0.604366 0.688101 0.592391 -0.580879
H97   H     H_    0.588937 0.644269 0.629003 0.243970
H98   H     H_    0.641700 0.673547 0.550812 0.287192
N10   N     N_3   0.415357 0.321312 0.385410 -0.472701
H99   H     H_    0.426319 0.305371 0.324728 0.222809
H100  H     H_    0.364299 0.308353 0.395797 0.225805
O21   O     O_3   0.405968 0.840076 0.398468 -0.587007
C85   C     C_3   0.421820 0.834217 0.313157 0.089693
H101  H     H_    0.394565 0.786253 0.285440 0.169554
H102  H     H_    0.477855 0.827551 0.303677 0.137927
C86   C     C_3   0.397319 0.903683 0.266647 -0.346162
H103  H     H_    0.341343 0.910782 0.273964 0.229028
H104  H     H_    0.424041 0.952064 0.294102 0.220242
C87   C     C_3   0.411780 0.900101 0.173682 -0.931644
H105  H     H_    0.467702 0.894658 0.164997 0.254422
H106  H     H_    0.393311 0.951251 0.141796 0.261530
H107  H     H_    0.384822 0.852651 0.144477 0.258352
O22   O     O_3   0.580135 0.161426 0.616688 -0.603691
C88   C     C_3   0.643158 0.140520 0.582945 0.051237
H108  H     H_    0.683608 0.179113 0.605539 0.149940
H109  H     H_    0.642681 0.141040 0.513035 0.147217
C89   C     C_3   0.661740 0.063132 0.614033 -0.324624
H110  H     H_    0.666334 0.062495 0.683566 0.219942
H111  H     H_    0.620447 0.024573 0.594160 0.231179
C90   C     C_3   0.728959 0.036882 0.579070 -0.904774
H112  H     H_    0.724632 0.035019 0.509618 0.253940
H113  H     H_    0.740935 0.980810 0.603372 0.264704
H114  H     H_    0.771445 0.074153 0.598547 0.252726
O23   O     O_3   0.593503 0.838940 0.600132 -0.586075
C91   C     C_3   0.578394 0.831189 0.685649 0.094606
H115  H     H_    0.606605 0.783046 0.712990 0.168217
H116  H     H_    0.522557 0.823688 0.695725 0.138961
C92   C     C_3   0.602127 0.900001 0.732093 -0.350913
H117  H     H_    0.657710 0.908570 0.723256 0.230661
H118  H     H_    0.573686 0.948389 0.705839 0.219221
C93   C     C_3   0.589600 0.893793 0.825500 -0.929558
H119  H     H_    0.534071 0.886785 0.835762 0.257768
H120  H     H_    0.607393 0.944598 0.857246 0.260098
H121  H     H_    0.618283 0.846319 0.853606 0.257927
O24   O     O_3   0.415506 0.166563 0.382947 -0.600206
C94   C     C_3   0.352599 0.146058 0.417491 0.046953
H122  H     H_    0.312593 0.186327 0.396343 0.149681
H123  H     H_    0.353917 0.144371 0.487414 0.142821
C95   C     C_3   0.332335 0.070082 0.385423 -0.314563
H124  H     H_    0.327017 0.071652 0.315941 0.221721
H125  H     H_    0.373134 0.029894 0.403957 0.228606
C96   C     C_3   0.265014 0.044510 0.421052 -0.914104
H126  H     H_    0.270031 0.040356 0.490411 0.252698
H127  H     H_    0.251671 0.989551 0.395948 0.262380
H128  H     H_    0.223074 0.083508 0.402986 0.254789
N11   N     N_3   0.425112 0.920265 0.619220 -0.598470
H129  H     H_    0.373435 0.934782 0.611794 0.231034
H130  H     H_    0.442583 0.934463 0.679489 0.213361
N12   N     N_3   0.567591 0.081272 0.374483 -0.585791
H131  H     H_    0.546889 0.066779 0.315705 0.236600
H132  H     H_    0.619507 0.067170 0.377770 0.207433
N13   N     N_3   0.573415 0.922918 0.379094 -0.605677
H133  H     H_    0.624872 0.937885 0.386659 0.230410
H134  H     H_    0.555916 0.937850 0.318691 0.213043
N14   N     N_3   0.428559 0.078568 0.623015 -0.588434
H135  H     H_    0.449592 0.063398 0.681797 0.237201
H136  H     H_    0.376840 0.063955 0.619943 0.206408

loop_
_geom_bond_atom_site_label_1
_geom_bond_atom_site_label_2
_ccdc_geom_bond_type
C66   H50   S    
C44   C48   A    
C21   C26   A    
C87   H107  S    
C3    C42   A    
C72   H62   S    
N8    H96   S    
C59   H33   S    
C68   C69   S    
C58   H31   S    
C84   H90   S    
C14   C18   A    
O11   C55   S    
C67   C68   S    
C87   H105  S    
C6    C9    A    
C64   H44   S    
O17   C73   S    
C84   H91   S    
C66   H48   S    
C6    O18   S    
C52   H16   S    
C15   C19   A    
N12   H131  S    
C74   H67   S    
C49   H10   S    
C12   N8    S    
C63   H42   S    
C36   C37   T    
C1    O4    A    
C67   H52   S    
C60   H34   S    
C86   C87   S    
C27   O8    A    
C42   C46   A    
N11   H129  S    
N10   H100  S    
C70   C71   S    
C20   C25   S    
C5    C10   A    
C92   H117  S    
C73   C74   S    
C55   C56   S    
C29   C33   A    
C45   O15   S    
Cu1   O5    S    
C79   H79   S    
C14   N10   S    
C57   H29   S    
C68   H54   S    
C96   H126  S    
O9    C49   S    
C23   C26   A    
N3    H2    S    
C19   C26   S    
C86   H103  S    
C59   H32   S    
C89   H110  S    
C80   C81   S    
C95   H125  S    
C81   H85   S    
C30   N6    S    
C61   H37   S    
C11   C15   A    
C77   C78   S    
C14   N2    A    
C12   C16   A    
C22   N12   S    
C65   H46   S    
C62   C63   S    
C49   C50   S    
C55   H24   S    
Cu2   N2    S    
C90   H112  S    
C8    O20   S    
C83   H88   S    
C60   H36   S    
C15   O21   S    
C71   H61   S    
C50   H11   S    
C78   H78   S    
C75   H70   S    
O20   C82   S    
C70   H58   S    
C3    C39   A    
C31   N3    S    
C72   H63   S    
C13   N1    A    
C4    C41   A    
O14   C64   S    
C1    O1    A    
C90   H113  S    
N3    H1    S    
O16   C70   S    
C28   O7    A    
C51   H15   S    
C91   H116  S    
O22   C88   S    
C12   N2    A    
C88   H108  S    
C69   H56   S    
C76   H73   S    
O23   C91   S    
C67   H51   S    
C83   H89   S    
C96   H128  S    
C93   H120  S    
C80   H82   S    
C49   H9    S    
C30   C34   A    
C52   H17   S    
N5    H5    S    
Cu2   O6    S    
C78   H77   S    
C4    C40   A    
C94   H122  S    
C35   C38   T    
C50   H12   S    
C24   C25   A    
C32   N4    S    
C71   C72   S    
C51   H14   S    
C2    O2    A    
C54   H20   S    
N11   H130  S    
N10   H99   S    
N8    H95   S    
C94   C95   S    
C6    C8    A    
C95   C96   S    
C92   H118  S    
O24   C94   S    
C76   H72   S    
C22   C25   A    
C91   C92   S    
Cu2   O4    S    
Cu1   N1    S    
C24   N14   S    
N5    H6    S    
C61   C62   S    
N4    H4    S    
O19   C79   S    
C81   H83   S    
C95   H124  S    
C90   H114  S    
C54   H21   S    
C69   H57   S    
C89   C90   S    
C85   H102  S    
N9    H97   S    
C53   C54   S    
C28   C38   S    
C58   H30   S    
C92   C93   S    
C55   H23   S    
C83   C84   S    
C89   H111  S    
C71   H60   S    
C31   C34   A    
C40   O10   S    
C16   C20   A    
O10   C52   S    
C57   H28   S    
C42   O12   S    
C59   C60   S    
C62   H39   S    
N6    H7    S    
C69   H55   S    
C43   O13   S    
C63   H43   S    
C29   N5    S    
C17   O23   S    
C39   O9    S    
C65   H47   S    
C75   H69   S    
C46   O16   S    
C94   H123  S    
C53   H19   S    
C74   C75   S    
C27   O5    A    
C88   H109  S    
C84   H92   S    
N14   H136  S    
C17   C19   A    
N12   H132  S    
Cu2   O2    S    
O18   C76   S    
C52   C53   S    
C85   C86   S    
C5    C7    A    
C73   H65   S    
C45   C48   A    
C21   N11   S    
C66   H49   S    
N7    H93   S    
C93   H119  S    
C44   O14   S    
C81   H84   S    
N9    H98   S    
C22   C23   A    
C8    C10   A    
C51   H13   S    
C87   H106  S    
C18   C20   A    
C39   C43   A    
O15   C67   S    
C79   C80   S    
C76   C77   S    
C28   O6    A    
C72   H64   S    
C88   C89   S    
C11   N7    S    
C16   O22   S    
Cu1   O7    S    
C56   H25   S    
C13   C17   A    
C58   C59   S    
C1    C4    S    
Cu2   O8    S    
N4    H3    S    
C64   C65   S    
C29   C31   A    
C77   H74   S    
C2    C3    S    
O21   C85   S    
C80   H81   S    
C86   H104  S    
C73   H66   S    
Cu1   O3    S    
O13   C61   S    
C32   C33   A    
C54   H22   S    
C30   C32   A    
N13   H134  S    
C85   H101  S    
C41   O11   S    
C60   H35   S    
C50   C51   S    
C18   O24   S    
C65   C66   S    
Cu1   O1    S    
C23   N13   S    
C91   H115  S    
C33   C35   S    
C79   H80   S    
C2    O3    A    
C34   C36   S    
C7    O19   S    
C70   H59   S    
C57   H27   S    
C61   H38   S    
C62   H40   S    
C46   C47   A    
C11   N1    A    
C13   N9    S    
C82   H86   S    
C82   C83   S    
C7    C9    A    
C27   C37   S    
C40   C44   A    
C56   C57   S    
C53   H18   S    
C9    C48   S    
C74   H68   S    
Cu1   Cu2   S    
O12   C58   S    
C21   C24   A    
N13   H133  S    
C10   C47   S    
C78   H76   S    
C41   C45   A    
N14   H135  S    
C63   H41   S    
N6    H8    S    
C75   H71   S    
C64   H45   S    
C96   H127  S    
N7    H94   S    
C43   C47   A    
C56   H26   S    
C68   H53   S    
C5    O17   S    
C77   H75   S    
C82   H87   S    
C93   H121  S    
