data_mof_unit_30815.cif
_audit_creation_date              2012-12-10T19:47:23-0500
_audit_creation_method            fapswitch 2.2
_symmetry_space_group_name_H-M    P1
_symmetry_Int_Tables_number       1
_space_group_crystal_system       triclinic
_cell_length_a                    10.860804
_cell_length_b                    10.830266
_cell_length_c                    12.752912
_cell_angle_alpha                 92.201188
_cell_angle_beta                  92.491593
_cell_angle_gamma                 90.187637
_cell_volume                      1497.52399102

loop_
_atom_site_label
_atom_site_type_symbol
_atom_type_description
_atom_site_fract_x
_atom_site_fract_y
_atom_site_fract_z
_atom_type_partial_charge
C1    C     C_R   0.261977 0.502384 0.500982 0.783658
C2    C     C_R   0.738023 0.497603 0.499018 0.783638
C3    C     C_R   0.495113 0.871561 0.497703 -0.083935
C4    C     C_R   0.504877 0.128438 0.502302 -0.083944
C5    C     C_R   0.431955 0.935640 0.417681 -0.003837
C6    C     C_R   0.568020 0.064358 0.582333 -0.003825
C7    C     C_R   0.191856 0.576984 0.871966 -0.156887
C8    C     C_R   0.808176 0.422745 0.128033 -0.156867
C9    C     C_R   0.126769 0.532162 0.781447 -0.133845
C10   C     C_R   0.873306 0.467596 0.218523 -0.133865
C11   C     C_R   0.128815 0.597484 0.688515 0.128921
C12   C     C_R   0.871178 0.402389 0.311511 0.128861
C13   C     C_R   0.193838 0.709817 0.688079 -0.103643
C14   C     C_R   0.806048 0.290123 0.312026 -0.103571
C15   C     C_R   0.259427 0.753910 0.778626 -0.093418
C16   C     C_R   0.740410 0.246005 0.221511 -0.093337
C17   C     C_R   0.258939 0.687076 0.870168 -0.117680
C18   C     C_R   0.740969 0.312736 0.129918 -0.117680
C19   C     C_R   0.937798 0.540909 0.588022 -0.248659
C20   C     C_R   0.062203 0.459042 0.411980 -0.248655
C21   C     C_R   0.871732 0.495892 0.497712 -0.085992
C22   C     C_R   0.128268 0.504066 0.502290 -0.085985
C23   C     C_R   0.503121 0.262093 0.501093 0.784027
C24   C     C_R   0.496874 0.737906 0.498908 0.784073
C25   C     C_R   0.934629 0.453666 0.408651 -0.006380
C26   C     C_R   0.065370 0.546268 0.591355 -0.006422
C27   C     C_2   0.474102 0.457680 0.031397 -0.185990
C28   C     C_2   0.525911 0.542317 0.968603 -0.185988
C29   C     C_1   0.522392 0.527863 0.852415 0.242444
C30   C     C_1   0.477615 0.472135 0.147584 0.242415
C31   C     C_R   0.816012 0.260122 0.727769 -0.113407
C32   C     C_R   0.183879 0.739917 0.272310 -0.113413
C33   C     C_R   0.741474 0.206373 0.646126 -0.084079
C34   C     C_R   0.258451 0.793657 0.353937 -0.084149
C35   C     C_R   0.644857 0.126010 0.668285 0.108637
C36   C     C_R   0.355088 0.873985 0.331749 0.108663
C37   C     C_R   0.626238 0.098169 0.773168 -0.134149
C38   C     C_R   0.373698 0.901792 0.226858 -0.134137
C39   C     C_R   0.702252 0.150315 0.854267 -0.127899
C40   C     C_R   0.297653 0.849653 0.145776 -0.127933
C41   C     C_R   0.796420 0.232178 0.831825 -0.135091
C42   C     C_R   0.203460 0.767831 0.168245 -0.135052
C43   C     C_R   0.561469 0.936152 0.578965 -0.231356
C44   C     C_R   0.438520 0.063845 0.421041 -0.231377
Cu1   Cu    Cu3+1 0.492140 0.492110 0.395880 0.988890
Cu2   Cu    Cu3+1 0.507860 0.507890 0.604120 0.988894
H1    H     H_    0.854967 0.272884 0.894873 0.132942
H2    H     H_    0.144887 0.727136 0.105208 0.132954
H3    H     H_    0.195547 0.761707 0.617327 0.096094
H4    H     H_    0.804281 0.238314 0.382816 0.096037
H5    H     H_    0.311618 0.839142 0.777527 0.131235
H6    H     H_    0.688119 0.160839 0.222678 0.131249
H7    H     H_    0.889912 0.574756 0.656199 0.171688
H8    H     H_    0.110092 0.425193 0.343805 0.171678
H9    H     H_    0.889863 0.322229 0.710237 0.127450
H10   H     H_    0.110011 0.677839 0.289862 0.127462
H11   H     H_    0.759454 0.226794 0.565855 0.084865
H12   H     H_    0.240479 0.773263 0.434217 0.084885
H13   H     H_    0.553444 0.035202 0.792057 0.140318
H14   H     H_    0.446509 0.964731 0.207953 0.140301
H15   H     H_    0.688560 0.125758 0.934268 0.140258
H16   H     H_    0.311339 0.874183 0.065767 0.140237
H17   H     H_    0.612043 0.885961 0.638832 0.169695
H18   H     H_    0.387950 0.114035 0.361170 0.169696
H19   H     H_    0.312066 0.719414 0.939269 0.129992
H20   H     H_    0.687799 0.280383 0.060844 0.130037
H21   H     H_    0.191725 0.525582 0.943097 0.140399
H22   H     H_    0.808362 0.474065 0.056861 0.140379
H23   H     H_    0.076956 0.445541 0.783117 0.118589
H24   H     H_    0.923211 0.554160 0.216788 0.118590
N1    N     N_1   0.480320 0.480250 0.239400 -0.156637
N2    N     N_1   0.519680 0.519750 0.760600 -0.156634
O1    O     O_R   0.313000 0.493330 0.412070 -0.579523
O2    O     O_R   0.687000 0.506670 0.587930 -0.579532
O3    O     O_R   0.326280 0.506660 0.587930 -0.568972
O4    O     O_R   0.673720 0.493340 0.412070 -0.568965
O5    O     O_R   0.493370 0.312980 0.412070 -0.575483
O6    O     O_R   0.506630 0.687020 0.587930 -0.575471
O7    O     O_R   0.506650 0.326310 0.587930 -0.572202
O8    O     O_R   0.493350 0.673690 0.412070 -0.572199
C45   C     C_2   0.586806 0.655729 0.015708 0.346237
H25   H     H_    0.592831 0.672984 0.100144 0.083322
O9    O     O_2   0.631201 0.732017 0.960022 -0.550560
C46   C     C_2   0.413213 0.344263 0.984293 0.346145
H26   H     H_    0.407138 0.327032 0.899854 0.083345
O10   O     O_2   0.368878 0.267944 0.039985 -0.550580

loop_
_geom_bond_atom_site_label_1
_geom_bond_atom_site_label_2
_ccdc_geom_bond_type
Cu1   N1    S    
C38   H14   S    
C30   N1    T    
C43   H17   S    
C39   C41   A    
Cu1   Cu2   S    
C44   H18   S    
C3    C43   A    
Cu1   O4    S    
C27   C46   S    
C19   C21   A    
C46   O10   D    
Cu2   O7    S    
C20   C25   A    
C5    C36   S    
C40   H16   S    
C6    C35   S    
Cu1   O1    S    
C19   C26   A    
C24   O8    A    
C7    C17   A    
C31   C33   A    
C15   H5    S    
Cu2   N2    S    
C2    O2    A    
C29   N2    T    
C19   H7    S    
C40   C42   A    
C1    C22   S    
C27   C30   S    
C3    C24   S    
Cu2   O3    S    
C45   O9    D    
C45   H25   S    
C39   H15   S    
C1    O3    A    
C46   H26   S    
C20   H8    S    
Cu2   O6    S    
C4    C23   S    
C4    C44   A    
C11   C26   S    
C8    C18   A    
C32   C34   A    
C2    C21   S    
C41   H1    S    
C16   C18   A    
C42   H2    S    
C23   O5    A    
C9    C11   A    
C37   H13   S    
C10   C12   A    
C13   H3    S    
C10   H24   S    
C4    C6    A    
C5    C44   A    
C12   C14   A    
C8    H22   S    
C6    C43   A    
C13   C15   A    
C14   C16   A    
C20   C22   A    
Cu2   O2    S    
C2    O4    A    
C24   O6    A    
C15   C17   A    
C21   C25   A    
C28   C29   S    
C33   H11   S    
C31   C41   A    
C35   C37   A    
C28   C45   S    
C16   H6    S    
C9    H23   S    
C3    C5    A    
C23   O7    A    
C18   H20   S    
C17   H19   S    
C12   C25   S    
C1    O1    A    
C36   C38   A    
C37   C39   A    
C38   C40   A    
C11   C13   A    
C14   H4    S    
C33   C35   A    
Cu1   O8    S    
C34   C36   A    
C7    H21   S    
C7    C9    A    
C8    C10   A    
C22   C26   A    
C27   C28   D    
C34   H12   S    
C32   C42   A    
Cu1   O5    S    
C31   H9    S    
C32   H10   S    
