data_mof_unit_36516.cif
_audit_creation_date              2012-12-11T16:29:26-0500
_audit_creation_method            fapswitch 2.2
_symmetry_space_group_name_H-M    P1
_symmetry_Int_Tables_number       1
_space_group_crystal_system       triclinic
_cell_length_a                    6.95147
_cell_length_b                    17.206935
_cell_length_c                    18.903869
_cell_angle_alpha                 106.107718
_cell_angle_beta                  90.298228
_cell_angle_gamma                 90.819806
_cell_volume                      2172.06734686

loop_
_atom_site_label
_atom_site_type_symbol
_atom_type_description
_atom_site_fract_x
_atom_site_fract_y
_atom_site_fract_z
_atom_type_partial_charge
O1    O     O_R   0.494360 0.415680 0.413760 -0.512814
O2    O     O_R   0.818810 0.432910 0.557230 -0.510544
O3    O     O_R   0.994290 0.584320 0.586240 -0.538878
C1    C     C_R   0.650257 0.416519 0.581106 0.819500
O4    O     O_R   0.823740 0.406440 0.412520 -0.542825
O5    O     O_R   0.999250 0.557660 0.440500 -0.538650
C2    C     C_R   0.653434 0.384640 0.383919 0.809161
O6    O     O_R   0.489400 0.442340 0.559500 -0.503555
O7    O     O_3   0.662500 0.549650 0.509350 -0.378656
V1    V     V_3+5 0.935340 0.490790 0.498270 1.610197
O8    O     O_R   0.329270 0.567090 0.442770 -0.510500
C3    C     C_R   0.160930 0.584361 0.419644 0.793889
O9    O     O_R   0.324340 0.593560 0.587480 -0.510800
C4    C     C_R   0.156803 0.619127 0.612712 0.918015
V2    V     V_3+5 0.435970 0.509210 0.501730 1.660985
O10   O     O_3   0.158940 0.450350 0.490650 -0.351173
C5    C     C_R   0.063465 0.582749 0.748063 0.497376
C6    C     C_R   0.991228 0.561974 0.809030 -0.128467
C7    C     C_R   0.969979 0.622292 0.875276 -0.167510
C8    C     C_R   0.026031 0.703149 0.880137 -0.145928
C9    C     C_R   0.078044 0.727885 0.816068 -0.056525
C10   C     C_R   0.095557 0.665198 0.748512 -0.054176
C11   C     C_R   0.113169 0.811527 0.816726 -0.052942
C12   C     C_R   0.162195 0.829982 0.749438 -0.100976
C13   C     C_R   0.199669 0.765762 0.684812 -0.155082
C14   C     C_R   0.152866 0.684524 0.683206 -0.095200
C15   C     C_R   0.177478 0.911567 0.743975 -0.276929
C16   C     C_R   0.269841 0.927749 0.683893 0.494002
C17   C     C_R   0.323255 0.865052 0.624452 0.591847
C18   C     C_R   0.280144 0.785483 0.622565 0.382478
C19   C     C_1   0.112291 0.868515 0.136534 -0.023107
C20   C     C_1   0.119690 0.825531 0.179759 0.099542
C21   C     C_1   0.128688 0.774351 0.230826 0.078794
C22   C     C_1   0.136388 0.731206 0.273910 0.082967
C23   C     C_1   0.145529 0.680117 0.325045 0.092184
C24   C     C_1   0.152931 0.636953 0.368107 -0.065430
C25   C     C_1   0.641865 0.364457 0.633046 -0.065879
C26   C     C_1   0.637069 0.321746 0.676516 0.100284
C27   C     C_1   0.633130 0.271509 0.728409 0.086618
C28   C     C_1   0.630464 0.229261 0.772291 0.082905
C29   C     C_1   0.627015 0.179073 0.824214 0.079544
C30   C     C_1   0.622899 0.136459 0.867764 -0.111763
C31   C     C_R   0.700513 0.408991 0.234075 -0.110402
C32   C     C_R   0.777945 0.418285 0.167538 -0.071895
C33   C     C_R   0.803508 0.349507 0.107249 -0.047871
C34   C     C_R   0.750419 0.273521 0.114178 -0.223317
C35   C     C_R   0.684379 0.262055 0.181095 0.055207
C36   C     C_R   0.673480 0.329947 0.244285 0.003608
C37   C     C_R   0.625413 0.183832 0.184439 -0.062926
C38   C     C_R   0.577477 0.170845 0.253315 -0.205634
C39   C     C_R   0.587286 0.236919 0.318926 -0.195263
C40   C     C_R   0.636243 0.316564 0.314697 -0.071547
C41   C     C_R   0.525653 0.092360 0.259122 0.391195
C42   C     C_R   0.483517 0.079821 0.326971 0.475132
C43   C     C_R   0.494614 0.143375 0.390571 0.501648
C44   C     C_R   0.546786 0.220721 0.387417 0.404896
H1    H     H_    0.761004 0.222808 0.065590 0.120045
O11   O     O_R   0.775690 0.057750 0.940570 -0.528710
O12   O     O_R   0.441200 0.093570 0.087490 -0.527390
O13   O     O_R   0.265840 0.942320 0.059480 -0.493570
C45   C     C_R   0.611393 0.116122 0.115263 0.800132
O14   O     O_R   0.446270 0.067110 0.942790 -0.523935
O15   O     O_R   0.270950 0.915660 0.913750 -0.533497
C46   C     C_R   0.614931 0.084366 0.919666 0.728271
O16   O     O_R   0.770580 0.084400 0.086300 -0.549377
O17   O     O_3   0.602640 0.950400 0.990690 -0.339987
V3    V     V_3+5 0.329740 0.009200 0.001730 1.577817
O18   O     O_R   0.940900 0.906360 0.912450 -0.518030
C47   C     C_R   0.108556 0.880319 0.886588 0.691100
O19   O     O_R   0.935830 0.932820 0.057160 -0.509967
C48   C     C_R   0.103877 0.919847 0.083785 0.811140
V4    V     V_3+5 0.829130 0.990680 0.998180 1.594444
O20   O     O_3   0.106100 0.049590 0.009310 -0.381535
F1    F     F_    0.405460 0.881799 0.565271 -0.544315
C49   C     C_2   0.619453 0.481526 0.286154 0.739590
O21   O     O_2   0.445781 0.484900 0.295869 -0.553539
O22   O     O_R   0.738992 0.546940 0.321163 -0.667687
H2    H     H_    0.665266 0.593271 0.354251 0.301242
C50   C     C_2   0.831516 0.500026 0.161231 0.873787
O23   O     O_2   0.997798 0.514744 0.147752 -0.518828
O24   O     O_R   0.692128 0.559690 0.170257 -0.636810
H3    H     H_    0.746936 0.612743 0.165083 0.302944
C51   C     C_2   0.870529 0.354349 0.033747 0.825677
O25   O     O_2   0.838940 0.414127 0.012788 -0.505723
O26   O     O_R   0.964471 0.288577 0.987099 -0.676706
H4    H     H_    0.000063 0.298176 0.938217 0.304236
F2    F     F_    0.518617 0.026018 0.200096 -0.651764
F3    F     F_    0.434061 0.004630 0.331091 -0.560045
F4    F     F_    0.557354 0.278514 0.452661 -0.664083
F5    F     F_    0.104700 0.520139 0.688627 -0.690654
C52   C     C_2   0.945302 0.475416 0.802916 0.861810
O27   O     O_2   0.800593 0.457180 0.831634 -0.552537
O28   O     O_R   0.067532 0.414734 0.764133 -0.610337
H5    H     H_    0.022271 0.358620 0.764617 0.295705
C53   C     C_2   0.910744 0.598925 0.942184 0.933815
O29   O     O_2   0.015455 0.556689 0.967645 -0.505392
O30   O     O_R   0.734989 0.624935 0.975299 -0.620556
H6    H     H_    0.710412 0.604963 0.020153 0.330036
C54   C     C_2   0.059207 0.755179 0.954991 0.731348
O31   O     O_2   0.922579 0.774546 0.995967 -0.525423
O32   O     O_R   0.246670 0.775270 0.981566 -0.651674
H7    H     H_    0.348096 0.752777 0.943318 0.286328
C55   C     C_2   0.067651 0.979398 0.790573 0.887369
O33   O     O_2   0.893772 0.971847 0.796192 -0.560527
O34   O     O_R   0.160039 0.053314 0.823768 -0.626384
H8    H     H_    0.068590 0.095564 0.852650 0.287693
F6    F     F_    0.293825 0.004977 0.679979 -0.574245
F7    F     F_    0.321977 0.729033 0.559044 -0.671600
F8    F     F_    0.455676 0.129911 0.456488 -0.534512

loop_
_geom_bond_atom_site_label_1
_geom_bond_atom_site_label_2
_ccdc_geom_bond_type
C42   F3    S    
C43   C44   A    
O28   H5    S    
C53   O29   D    
C29   C30   T    
C11   C47   S    
C7    C8    A    
C12   C15   A    
C1    O6    A    
O30   H6    S    
C35   C37   A    
C19   C20   T    
C41   C42   A    
C17   C18   A    
O14   V3    S    
C6    C52   S    
C16   C17   A    
C2    C40   S    
C6    C7    A    
O26   H4    S    
C26   C27   S    
C16   F6    S    
V2    O10   S    
C22   C23   S    
O14   C46   A    
O12   V3    S    
C42   C43   A    
O8    V2    S    
O17   V4    S    
C51   O25   D    
O13   V3    S    
O18   C47   A    
C11   C12   A    
O19   C48   A    
V3    O20   S    
C3    C24   S    
C31   C36   A    
O22   H2    S    
C18   F7    S    
C19   C48   S    
O17   V3    S    
O9    C4    A    
C43   F8    S    
O11   C46   A    
C33   C51   S    
C5    C6    A    
C31   C49   S    
O15   V3    S    
O12   C45   A    
C38   C41   A    
C37   C45   S    
C39   C40   A    
O32   H7    S    
O15   C47   A    
C12   C13   A    
C55   O34   S    
C52   O27   D    
C50   O24   S    
C17   F1    S    
O13   C48   A    
C38   C39   A    
C13   C14   A    
C33   C34   A    
O24   H3    S    
C23   C24   T    
O2    C1    A    
C49   O21   D    
C25   C26   T    
C52   O28   S    
C35   C36   A    
O18   V4    S    
C8    C9    A    
C21   C22   T    
C41   F2    S    
C4    C14   S    
C49   O22   S    
O3    C4    A    
O1    V2    S    
C28   C29   S    
C51   O26   S    
O6    V2    S    
C9    C11   A    
C34   H1    S    
O2    V1    S    
C30   C46   S    
C27   C28   T    
C7    C53   S    
C32   C33   A    
O4    C2    A    
O7    V1    S    
C13   C18   A    
C34   C35   A    
C44   F4    S    
C54   O32   S    
O1    C2    A    
C32   C50   S    
C5    F5    S    
C39   C44   A    
V4    O20   S    
O5    V1    S    
O8    C3    A    
C53   O30   S    
O16   V4    S    
O34   H8    S    
C5    C10   A    
C54   O31   D    
C20   C21   S    
O9    V2    S    
O7    V2    S    
O4    V1    S    
O3    V1    S    
V1    O10   S    
O5    C3    A    
O11   V4    S    
C8    C54   S    
C31   C32   A    
C15   C55   S    
C50   O23   D    
C45   O16   A    
C36   C40   A    
C1    C25   S    
C37   C38   A    
C10   C14   A    
C55   O33   D    
O19   V4    S    
C9    C10   A    
C15   C16   A    
