data_mof_unit_23454.cif
_audit_creation_date              2012-12-10T16:54:01-0500
_audit_creation_method            fapswitch 2.2
_symmetry_space_group_name_H-M    P1
_symmetry_Int_Tables_number       1
_space_group_crystal_system       triclinic
_cell_length_a                    9.676801
_cell_length_b                    10.922853
_cell_length_c                    13.423789
_cell_angle_alpha                 90.133729
_cell_angle_beta                  72.494552
_cell_angle_gamma                 89.836172
_cell_volume                      1353.14795046

loop_
_atom_site_label
_atom_site_type_symbol
_atom_type_description
_atom_site_fract_x
_atom_site_fract_y
_atom_site_fract_z
_atom_type_partial_charge
C1    C     C_R   0.499848 0.734709 0.499981 0.873070
C2    C     C_R   0.374807 0.489764 0.815144 -0.083736
C3    C     C_2   0.602395 0.064685 0.531776 0.298585
C4    C     C_R   0.422434 0.494125 0.700158 0.770572
C5    C     C_2   0.493110 0.132711 0.516985 -0.394973
C6    C     C_2   0.590441 0.929926 0.536698 -0.188489
C7    C     C_2   0.500594 0.866834 0.497004 -0.374964
C8    C     C_2   0.053880 0.574135 0.557266 -0.083488
C9    C     C_2   0.899766 0.578160 0.553258 -0.078759
C10   C     C_R   0.498397 0.265154 0.505076 0.855259
C11   C     C_R   0.577534 0.497699 0.299870 0.800568
C12   C     C_R   0.433571 0.478790 0.979931 0.078318
C13   C     C_R   0.781040 0.388139 0.029963 -0.202269
C14   C     C_R   0.621134 0.479249 0.186561 -0.049543
C15   C     C_R   0.236926 0.535794 0.868760 -0.188745
C16   C     C_R   0.194954 0.549218 0.976446 -0.156225
C17   C     C_R   0.292374 0.523742 0.031589 -0.168038
C18   C     C_3   0.927976 0.333089 0.744641 -0.663892
C19   C     C_3   0.863170 0.058483 0.519576 -0.681739
C20   C     C_R   0.468792 0.450589 0.872246 0.024195
C21   C     C_R   0.540346 0.460198 0.031732 0.036787
C22   C     C_R   0.673470 0.400332 0.979153 0.086141
C23   C     C_R   0.695513 0.354383 0.877256 0.217748
C24   C     C_R   0.594129 0.380611 0.825269 -0.221891
C25   C     C_R   0.519120 0.501580 0.134276 -0.223803
C26   C     C_R   0.754251 0.425992 0.133200 -0.197046
Cu1   Cu    Cu3+1 0.361370 0.499980 0.499980 0.931086
Cu2   Cu    Cu3+1 0.638630 0.500020 0.500020 0.940664
H1    H     H_    0.835529 0.409584 0.172258 0.154302
H2    H     H_    0.423022 0.551392 0.176257 0.144512
H3    H     H_    0.162074 0.563912 0.827169 0.146557
H4    H     H_    0.252091 0.537037 0.114891 0.125276
H5    H     H_    0.087540 0.583260 0.017223 0.145366
H6    H     H_    0.611897 0.340151 0.748897 0.170678
H7    H     H_    0.851880 0.220273 0.875036 0.248009
H8    H     H_    0.013786 0.264637 0.709078 0.225871
H9    H     H_    0.976796 0.410043 0.776439 0.223939
H10   H     H_    0.883776 0.367107 0.682608 0.245056
H11   H     H_    0.703260 0.169832 0.619137 0.257248
H12   H     H_    0.392223 0.091315 0.515525 0.129179
H13   H     H_    0.951259 0.124637 0.516484 0.224636
H14   H     H_    0.884131 0.016427 0.440933 0.238512
H15   H     H_    0.864689 0.987169 0.578061 0.208766
H16   H     H_    0.660346 0.880342 0.572637 0.168588
H17   H     H_    0.428216 0.910073 0.459851 0.147572
H18   H     H_    0.083203 0.637383 0.609894 0.152477
H19   H     H_    0.127883 0.444951 0.447790 0.195127
H20   H     H_    0.829303 0.648912 0.598477 0.155398
H21   H     H_    0.910045 0.430424 0.462391 0.196497
H22   H     H_    0.886072 0.348564 0.991211 0.146956
N1    N     N_2   0.152660 0.501340 0.501130 -0.281031
N2    N     N_2   0.846520 0.501370 0.501160 -0.285653
N3    N     N_2   0.814620 0.276359 0.827029 -0.447139
N4    N     N_2   0.725628 0.122566 0.549454 -0.393624
O1    O     O_R   0.382960 0.678040 0.499980 -0.575264
O2    O     O_R   0.617100 0.678080 0.500020 -0.570490
O3    O     O_R   0.325800 0.499940 0.650950 -0.579632
O4    O     O_R   0.559930 0.499980 0.650990 -0.581739
O5    O     O_R   0.382900 0.321920 0.499980 -0.581990
O6    O     O_R   0.617040 0.321960 0.500020 -0.554254
O7    O     O_R   0.440070 0.500020 0.349010 -0.579762
O8    O     O_R   0.674200 0.500060 0.349050 -0.575338

loop_
_geom_bond_atom_site_label_1
_geom_bond_atom_site_label_2
_ccdc_geom_bond_type
C12   C17   A    
C4    O3    A    
C2    C4    S    
C23   C24   A    
C15   H3    S    
C6    C7    D    
Cu2   O4    S    
C16   H5    S    
H7    N3    S    
C10   O6    A    
C19   H14   S    
C11   O8    A    
H21   N2    S    
C10   O5    A    
C1    O1    A    
C5    C10   S    
Cu1   O5    S    
C21   C22   A    
C14   C26   A    
C2    C15   A    
Cu2   N2    S    
C8    N1    D    
C12   C20   A    
C9    N2    D    
C11   O7    A    
C9    H20   S    
H19   N1    S    
C7    H17   S    
C19   N4    S    
C11   C14   S    
C18   H9    S    
C19   H15   S    
C13   C22   A    
C23   N3    S    
Cu1   O1    S    
Cu2   O6    S    
C14   C25   A    
Cu2   O2    S    
C20   C24   A    
C3    N4    S    
C8    H18   S    
C13   C26   A    
C5    H12   S    
H11   N4    S    
C2    C20   A    
C15   C16   A    
C19   H13   S    
Cu1   Cu2   S    
C26   H1    S    
Cu1   O3    S    
C3    C6    S    
C4    O4    A    
C25   H2    S    
C17   H4    S    
C21   C25   A    
C22   C23   A    
C8    C9    S    
C6    H16   S    
Cu1   O7    S    
C18   N3    S    
C1    C7    S    
C18   H10   S    
C18   H8    S    
C12   C21   A    
C1    O2    A    
C24   H6    S    
C13   H22   S    
Cu1   N1    S    
C16   C17   A    
C3    C5    D    
Cu2   O8    S    
