data_mof_unit_11668.cif
_audit_creation_date              2012-12-11T15:56:53-0500
_audit_creation_method            fapswitch 2.2
_symmetry_space_group_name_H-M    P1
_symmetry_Int_Tables_number       1
_space_group_crystal_system       triclinic
_cell_length_a                    17.518767
_cell_length_b                    24.550877
_cell_length_c                    14.965443
_cell_angle_alpha                 90.158179
_cell_angle_beta                  125.799249
_cell_angle_gamma                 89.717089
_cell_volume                      5220.52233587

loop_
_atom_site_label
_atom_site_type_symbol
_atom_type_description
_atom_site_fract_x
_atom_site_fract_y
_atom_site_fract_z
_atom_type_partial_charge
C1    C     C_R   0.316723 0.132904 0.908785 -0.143568
C2    C     C_R   0.316047 0.868224 0.910191 -0.129366
C3    C     C_R   0.816729 0.632910 0.908786 -0.143564
C4    C     C_R   0.816037 0.368234 0.910189 -0.129384
C5    C     C_R   0.653116 0.149569 0.092995 -0.089922
C6    C     C_R   0.646859 0.847902 0.091159 -0.085216
C7    C     C_R   0.153094 0.649576 0.092992 -0.089937
C8    C     C_R   0.146873 0.347906 0.091162 -0.085193
C9    C     C_R   0.555205 0.847574 0.908496 -0.144793
C10   C     C_R   0.561905 0.150767 0.909303 -0.152522
C11   C     C_R   0.055211 0.347575 0.908498 -0.144798
C12   C     C_R   0.061893 0.650770 0.909302 -0.152521
C13   C     C_R   0.551522 0.999379 0.727878 -0.003991
C14   C     C_R   0.051522 0.499380 0.727878 -0.003988
C15   C     C_R   0.802478 0.999889 0.366347 -0.105465
C16   C     C_R   0.302478 0.499851 0.366346 -0.105471
C17   C     C_R   0.627097 0.179707 0.002262 0.043487
C18   C     C_R   0.614648 0.816134 0.999878 0.067542
C19   C     C_R   0.127075 0.679715 0.002259 0.043486
C20   C     C_R   0.114663 0.316137 0.999881 0.067541
C21   C     C_3   0.007313 0.955421 0.605016 -0.147420
C22   C     C_3   0.006478 0.045144 0.604011 -0.145022
C23   C     C_3   0.507231 0.455645 0.605560 -0.148168
C24   C     C_3   0.506561 0.545359 0.603447 -0.144427
C25   C     C_3   0.936035 0.000325 0.584312 -0.081629
C26   C     C_3   0.436035 0.500735 0.584302 -0.081586
C27   C     C_3   0.898098 0.999924 0.462839 0.226185
C28   C     C_3   0.398098 0.499870 0.462836 0.226205
C29   C     C_3   0.967533 0.955169 0.481937 -0.117500
C30   C     C_3   0.966685 0.044628 0.480931 -0.121054
C31   C     C_3   0.467447 0.454931 0.482480 -0.117429
C32   C     C_3   0.466770 0.544382 0.480382 -0.121156
C33   C     C_3   0.036376 0.999862 0.500682 -0.201553
C34   C     C_3   0.536376 0.499435 0.500677 -0.201478
C35   C     C_R   0.408602 0.871642 0.095466 -0.019261
C36   C     C_R   0.407386 0.129416 0.093872 -0.052838
C37   C     C_R   0.908595 0.371650 0.095465 -0.019226
C38   C     C_R   0.907390 0.629420 0.093873 -0.052901
C39   C     C_3   0.074864 0.000240 0.622049 0.137628
C40   C     C_3   0.574864 0.500270 0.622038 0.137640
C41   C     C_3   0.293241 0.801579 0.125674 0.493006
C42   C     C_3   0.255573 0.182293 0.102183 0.485396
C43   C     C_3   0.793229 0.301588 0.125671 0.493025
C44   C     C_3   0.755565 0.682291 0.102174 0.485398
C45   C     C_3   0.738850 0.252121 0.122251 -0.510742
C46   C     C_3   0.709545 0.734564 0.108221 -0.447386
C47   C     C_3   0.238841 0.752123 0.122249 -0.510768
C48   C     C_3   0.209558 0.234569 0.108228 -0.447374
C49   C     C_3   0.796156 0.256227 0.972807 0.115951
C50   C     C_3   0.808892 0.744869 0.009601 0.124532
C51   C     C_3   0.296142 0.756218 0.972794 0.115930
C52   C     C_3   0.308891 0.244862 0.009588 0.124543
C53   C     C_3   0.163042 0.820439 0.924813 -0.427240
C54   C     C_3   0.161266 0.187610 0.894871 -0.422365
C55   C     C_3   0.663035 0.320437 0.924804 -0.427289
C56   C     C_3   0.661271 0.687616 0.894864 -0.422380
C57   C     C_3   0.270442 0.809287 0.008328 0.149685
C58   C     C_3   0.263510 0.188950 0.003558 0.144508
C59   C     C_3   0.770437 0.309294 0.008327 0.149714
C60   C     C_3   0.763512 0.688954 0.003557 0.144498
C61   C     C_3   0.676407 0.227664 0.004536 0.274768
C62   C     C_3   0.664673 0.768416 0.000440 0.252372
C63   C     C_3   0.176393 0.727667 0.004534 0.274763
C64   C     C_3   0.164681 0.268418 0.000442 0.252373
C65   C     C_3   0.739806 0.208440 0.970131 -0.461246
C66   C     C_3   0.743352 0.790905 0.993202 -0.471089
C67   C     C_3   0.239792 0.708435 0.970131 -0.461219
C68   C     C_3   0.243356 0.290901 0.993192 -0.471119
C69   C     C_3   0.607140 0.272273 0.924482 -0.381970
C70   C     C_3   0.599992 0.730148 0.900954 -0.353376
C71   C     C_3   0.107136 0.772279 0.924481 -0.382015
C72   C     C_3   0.099994 0.230147 0.900962 -0.353385
C73   C     C_3   0.624147 0.047594 0.646645 -0.412595
C74   C     C_3   0.609269 0.945847 0.634863 -0.413008
C75   C     C_3   0.124118 0.547609 0.646624 -0.412557
C76   C     C_3   0.109304 0.445860 0.634889 -0.413029
C77   C     C_R   0.546221 0.045373 0.303617 -0.131885
C78   C     C_R   0.547432 0.954581 0.303767 -0.135338
C79   C     C_R   0.046229 0.545374 0.303619 -0.132047
C80   C     C_R   0.047425 0.454582 0.303765 -0.135194
C81   C     C_3   0.628945 0.046930 0.546923 -0.363833
C82   C     C_3   0.608426 0.945221 0.531796 -0.381866
C83   C     C_3   0.128911 0.546948 0.546899 -0.363889
C84   C     C_3   0.108467 0.445233 0.531825 -0.381795
C85   C     C_3   0.462236 0.004750 0.529943 -0.374128
C86   C     C_3   0.962234 0.504732 0.529941 -0.374140
C87   C     C_3   0.563059 0.999326 0.638070 0.389105
C88   C     C_3   0.063061 0.499329 0.638071 0.389096
C89   C     C_3   0.567584 0.999739 0.467718 0.371170
C90   C     C_3   0.067585 0.499742 0.467719 0.371163
C91   C     C_3   0.465365 0.006853 0.430755 -0.416560
C92   C     C_3   0.965362 0.506830 0.430751 -0.416551
C93   C     C_R   0.229007 0.954320 0.731057 -0.137243
C94   C     C_R   0.228807 0.045902 0.731193 -0.144462
C95   C     C_R   0.728998 0.454330 0.731039 -0.137341
C96   C     C_R   0.728817 0.545913 0.731192 -0.144384
C97   C     C_R   0.321731 0.146834 0.001904 -0.010826
C98   C     C_R   0.323729 0.853563 0.004823 0.028942
C99   C     C_R   0.821737 0.646841 0.001905 -0.010788
C100  C     C_R   0.823717 0.353575 0.004822 0.028859
C101  C     C_R   0.562148 0.999917 0.366228 0.004130
C102  C     C_R   0.062150 0.499919 0.366229 0.004142
C103  C     C_R   0.174289 0.000189 0.700587 0.052362
C104  C     C_R   0.674289 0.500207 0.700571 0.052368
C105  C     C_R   0.521397 0.045316 0.753828 -0.135439
C106  C     C_R   0.520987 0.953947 0.753760 -0.135876
C107  C     C_R   0.021396 0.545317 0.753828 -0.135430
C108  C     C_R   0.020987 0.453949 0.753758 -0.135884
C109  C     C_R   0.756280 0.954376 0.305744 0.261360
C110  C     C_R   0.755871 0.045481 0.305987 0.256608
C111  C     C_R   0.256258 0.454352 0.305726 0.261278
C112  C     C_R   0.255891 0.545457 0.306005 0.256731
H1    H     H_    0.267534 0.147679 0.826228 0.092158
H2    H     H_    0.265061 0.853443 0.827988 0.087022
H3    H     H_    0.767544 0.647688 0.826230 0.092145
H4    H     H_    0.765047 0.353458 0.827985 0.087040
H5    H     H_    0.027452 0.919126 0.658682 0.123548
H6    H     H_    0.025950 0.081757 0.656837 0.122310
H7    H     H_    0.527315 0.419542 0.659681 0.123586
H8    H     H_    0.526084 0.582160 0.655812 0.122315
H9    H     H_    0.951492 0.918406 0.430506 0.164055
H10   H     H_    0.949822 0.081079 0.428610 0.156143
H11   H     H_    0.451398 0.417975 0.431527 0.164351
H12   H     H_    0.449924 0.580637 0.427594 0.155827
H13   H     H_    0.079933 0.999695 0.468879 0.137452
H14   H     H_    0.579932 0.498933 0.468876 0.137466
H15   H     H_    0.369529 0.791758 0.185260 0.049056
H16   H     H_    0.325901 0.179406 0.182811 0.030711
H17   H     H_    0.869519 0.291779 0.185270 0.049032
H18   H     H_    0.825890 0.679401 0.182805 0.030724
H19   H     H_    0.193543 0.763329 0.149138 0.202829
H20   H     H_    0.155446 0.224413 0.122242 0.222290
H21   H     H_    0.693553 0.263315 0.149147 0.202837
H22   H     H_    0.655429 0.724404 0.122227 0.222286
H23   H     H_    0.791588 0.221567 0.181388 0.144289
H24   H     H_    0.764942 0.758830 0.180326 0.159192
H25   H     H_    0.291567 0.721565 0.181389 0.144341
H26   H     H_    0.264959 0.258836 0.180328 0.159140
H27   H     H_    0.787582 0.175316 0.026058 0.214564
H28   H     H_    0.783654 0.823614 0.055231 0.216061
H29   H     H_    0.287567 0.675313 0.026066 0.214568
H30   H     H_    0.283662 0.323611 0.055216 0.216049
H31   H     H_    0.143556 0.825836 0.840064 0.148124
H32   H     H_    0.161348 0.197863 0.822641 0.147349
H33   H     H_    0.643554 0.325828 0.840055 0.148137
H34   H     H_    0.661359 0.697875 0.822640 0.147332
H35   H     H_    0.441734 0.863767 0.181310 0.085456
H36   H     H_    0.438630 0.137712 0.179490 0.111944
H37   H     H_    0.941727 0.363774 0.181308 0.085460
H38   H     H_    0.938633 0.637716 0.179491 0.111947
H39   H     H_    0.142874 0.858651 0.946406 0.212158
H40   H     H_    0.129529 0.146468 0.879936 0.199529
H41   H     H_    0.642855 0.358649 0.946380 0.212147
H42   H     H_    0.629535 0.646473 0.879918 0.199565
H43   H     H_    0.062119 0.786399 0.950075 0.191590
H44   H     H_    0.048895 0.209652 0.910967 0.212995
H45   H     H_    0.562126 0.286391 0.950082 0.191606
H46   H     H_    0.548892 0.709648 0.910951 0.213002
H47   H     H_    0.559837 0.256225 0.839127 0.155065
H48   H     H_    0.558882 0.752375 0.821399 0.144600
H49   H     H_    0.059836 0.756231 0.839124 0.155079
H50   H     H_    0.058882 0.252372 0.821405 0.144599
H51   H     H_    0.776818 0.261301 0.887992 0.123821
H52   H     H_    0.818178 0.747353 0.942153 0.124339
H53   H     H_    0.276791 0.761292 0.887973 0.123822
H54   H     H_    0.318169 0.247342 0.942135 0.124343
H55   H     H_    0.696314 0.191083 0.885323 0.153390
H56   H     H_    0.711539 0.809840 0.910863 0.153526
H57   H     H_    0.196299 0.691073 0.885327 0.153390
H58   H     H_    0.211539 0.309834 0.910850 0.153535
H59   H     H_    0.593818 0.087269 0.647444 0.154168
H60   H     H_    0.570772 0.909264 0.631345 0.151433
H61   H     H_    0.093768 0.587279 0.647409 0.154160
H62   H     H_    0.070829 0.409268 0.631388 0.151428
H63   H     H_    0.696332 0.044651 0.724514 0.165529
H64   H     H_    0.682794 0.942474 0.710257 0.164234
H65   H     H_    0.196306 0.544680 0.724492 0.165525
H66   H     H_    0.182830 0.442501 0.710287 0.164247
H67   H     H_    0.703166 0.041696 0.575454 0.173108
H68   H     H_    0.681004 0.938550 0.555591 0.178103
H69   H     H_    0.203135 0.541734 0.575427 0.173048
H70   H     H_    0.181051 0.438581 0.555628 0.178186
H71   H     H_    0.603869 0.087031 0.504907 0.161702
H72   H     H_    0.564399 0.910287 0.479814 0.150747
H73   H     H_    0.103800 0.587043 0.504864 0.161667
H74   H     H_    0.064469 0.410287 0.479862 0.150750
H75   H     H_    0.427062 0.042410 0.530982 0.155665
H76   H     H_    0.418313 0.969682 0.521045 0.158781
H77   H     H_    0.927041 0.542387 0.530963 0.155676
H78   H     H_    0.918331 0.469657 0.521063 0.158793
H79   H     H_    0.557816 0.087402 0.329691 0.133447
H80   H     H_    0.561669 0.912591 0.330060 0.128798
H81   H     H_    0.057835 0.587402 0.329694 0.133382
H82   H     H_    0.061649 0.412591 0.330055 0.128885
H83   H     H_    0.435962 0.046539 0.387551 0.152908
H84   H     H_    0.419841 0.974240 0.371750 0.152248
H85   H     H_    0.935926 0.546506 0.387519 0.152920
H86   H     H_    0.919865 0.474202 0.371771 0.152238
H87   H     H_    0.204982 0.913391 0.702680 0.100153
H88   H     H_    0.204384 0.086860 0.702932 0.099016
H89   H     H_    0.704957 0.413402 0.702661 0.100248
H90   H     H_    0.704413 0.586872 0.702934 0.098918
H91   H     H_    0.526755 0.087292 0.737251 0.093643
H92   H     H_    0.527022 0.911630 0.739503 0.098299
H93   H     H_    0.026755 0.587293 0.737255 0.093644
H94   H     H_    0.027019 0.411632 0.739496 0.098303
H95   H     H_    0.695224 0.162215 0.177576 0.163031
H96   H     H_    0.689942 0.834789 0.175514 0.166203
H97   H     H_    0.195177 0.662230 0.177566 0.163074
H98   H     H_    0.189978 0.334799 0.175521 0.166171
H99   H     H_    0.512854 0.835246 0.823134 0.094943
H100  H     H_    0.521780 0.164281 0.824631 0.093543
H101  H     H_    0.012861 0.335246 0.823136 0.094941
H102  H     H_    0.021770 0.664283 0.824629 0.093546
H103  H     H_    0.891612 0.000494 0.614917 0.122167
H104  H     H_    0.391613 0.501238 0.614906 0.122184
N1    N     N_R   0.392450 0.103580 0.942190 -0.038138
N2    N     N_R   0.392450 0.896420 0.942190 -0.036961
N3    N     N_R   0.892450 0.603580 0.942190 -0.038136
N4    N     N_R   0.892450 0.396420 0.942190 -0.036957
N5    N     N_R   0.450490 0.896000 0.057360 -0.038047
N6    N     N_R   0.450490 0.104000 0.057360 -0.033387
N7    N     N_R   0.950490 0.396000 0.057360 -0.038011
N8    N     N_R   0.950490 0.604000 0.057360 -0.033412
N9    N     N_R   0.525490 0.028390 0.207550 -0.042649
N10   N     N_R   0.525490 0.971610 0.207550 -0.044053
N11   N     N_R   0.025490 0.528390 0.207550 -0.042671
N12   N     N_R   0.025490 0.471610 0.207550 -0.044035
N13   N     N_R   0.317450 0.971190 0.792000 -0.041899
N14   N     N_R   0.317450 0.028810 0.792000 -0.041568
N15   N     N_R   0.817450 0.471190 0.792000 -0.041905
N16   N     N_R   0.817450 0.528810 0.792000 -0.041558
N17   N     N_R   0.473900 0.028390 0.792280 -0.040588
N18   N     N_R   0.473900 0.971610 0.792280 -0.040632
N19   N     N_R   0.973900 0.528390 0.792280 -0.040585
N20   N     N_R   0.973900 0.471610 0.792280 -0.040635
N21   N     N_R   0.682310 0.971180 0.208170 -0.084201
N22   N     N_R   0.682310 0.028820 0.208170 -0.083962
N23   N     N_R   0.182310 0.471180 0.208170 -0.084184
N24   N     N_R   0.182310 0.528820 0.208170 -0.083984
N25   N     N_R   0.606470 0.103570 0.057210 -0.038742
N26   N     N_R   0.606470 0.896430 0.057210 -0.041561
N27   N     N_R   0.106470 0.603570 0.057210 -0.038757
N28   N     N_R   0.106470 0.396430 0.057210 -0.041548
N29   N     N_R   0.549740 0.896000 0.943240 -0.044464
N30   N     N_R   0.549740 0.104000 0.943240 -0.041030
N31   N     N_R   0.049740 0.396000 0.943240 -0.044466
N32   N     N_R   0.049740 0.604000 0.943240 -0.041028
Ni1   Ni    Ni4+2 0.433780 0.065390 0.868430 0.210351
Ni2   Ni    Ni4+2 0.433780 0.934610 0.868430 0.216190
Ni3   Ni    Ni4+2 0.933780 0.565390 0.868430 0.210357
Ni4   Ni    Ni4+2 0.933780 0.434610 0.868430 0.216183
Ni5   Ni    Ni4+2 0.565800 0.934190 0.131570 0.258920
Ni6   Ni    Ni4+2 0.565800 0.065810 0.131570 0.262089
Ni7   Ni    Ni4+2 0.065800 0.434190 0.131570 0.258979
Ni8   Ni    Ni4+2 0.065800 0.565810 0.131570 0.262035
O1    O     O_3   0.266108 0.848716 0.156634 -0.658720
C113  C     C_3   0.328544 0.860160 0.271113 0.166439
H105  H     H_    0.313684 0.902420 0.282988 0.137658
H106  H     H_    0.403647 0.859384 0.301807 0.067423
C114  C     C_3   0.312952 0.822614 0.340915 -0.280757
H107  H     H_    0.236840 0.821595 0.305801 0.231188
H108  H     H_    0.337022 0.780705 0.340953 0.199705
C115  C     C_3   0.367940 0.842172 0.460076 -1.007862
H109  H     H_    0.444126 0.844789 0.496358 0.258897
H110  H     H_    0.358447 0.813008 0.509402 0.281664
H111  H     H_    0.341756 0.882715 0.464029 0.260640
O2    O     O_3   0.196409 0.137580 0.083598 -0.650864
C116  C     C_3   0.246336 0.088909 0.136892 0.208734
H112  H     H_    0.230203 0.077282 0.195865 0.128310
H113  H     H_    0.324123 0.091950 0.185442 0.051442
C117  C     C_3   0.212130 0.043678 0.050928 -0.295695
H114  H     H_    0.134718 0.039027 0.005125 0.212206
H115  H     H_    0.227281 0.054653 0.990870 0.202459
C118  C     C_3   0.259773 0.989437 0.104427 -0.972323
H116  H     H_    0.337285 0.992931 0.150497 0.266044
H117  H     H_    0.234376 0.957708 0.039935 0.283707
H118  H     H_    0.242328 0.976859 0.161641 0.264865
O3    O     O_3   0.766062 0.348718 0.156609 -0.658707
C119  C     C_3   0.828496 0.360180 0.271080 0.166470
H119  H     H_    0.813586 0.402430 0.282941 0.137655
H120  H     H_    0.903594 0.359440 0.301755 0.067420
C120  C     C_3   0.812971 0.322616 0.340917 -0.280786
H121  H     H_    0.736865 0.321561 0.305826 0.231202
H122  H     H_    0.837090 0.280720 0.340969 0.199652
C121  C     C_3   0.867951 0.342187 0.460069 -1.007932
H123  H     H_    0.944127 0.344849 0.496323 0.258905
H124  H     H_    0.858523 0.313006 0.509426 0.281658
H125  H     H_    0.841711 0.382711 0.464013 0.260655
O4    O     O_3   0.696399 0.637576 0.083575 -0.650859
C122  C     C_3   0.746325 0.588903 0.136857 0.208724
H126  H     H_    0.730187 0.577269 0.195823 0.128313
H127  H     H_    0.824112 0.591944 0.185413 0.051454
C123  C     C_3   0.712121 0.543678 0.050881 -0.295670
H128  H     H_    0.634709 0.539029 0.005069 0.212210
H129  H     H_    0.727280 0.554660 0.990832 0.202470
C124  C     C_3   0.759758 0.489435 0.104366 -0.972354
H130  H     H_    0.837272 0.492928 0.150447 0.266048
H131  H     H_    0.734365 0.457711 0.039864 0.283689
H132  H     H_    0.742302 0.476850 0.161567 0.264874
Br1   Br    Br    0.930947 0.238525 0.065138 -0.621779
Br2   Br    Br    0.934278 0.757041 0.146614 -0.615236
Br3   Br    Br    0.430931 0.738509 0.065101 -0.621804
Br4   Br    Br    0.434282 0.257037 0.146592 -0.615226
Br5   Br    Br    0.764199 0.885547 0.370474 -0.649878
Br6   Br    Br    0.762061 0.113876 0.371723 -0.650423
Br7   Br    Br    0.263962 0.385554 0.370437 -0.650053
Br8   Br    Br    0.262290 0.613882 0.371765 -0.650326

loop_
_geom_bond_atom_site_label_1
_geom_bond_atom_site_label_2
_ccdc_geom_bond_type
C78   N10   A    
N29   Ni2   S    
C55   C59   S    
C15   C109  A    
C77   C101  A    
C122  H126  S    
C12   H102  S    
C42   C58   S    
N31   Ni4   S    
C67   H57   S    
N1    Ni1   S    
C46   C62   S    
C35   N5    A    
C86   C88   S    
C55   H33   S    
C8    N28   A    
C44   H18   S    
C29   C33   S    
C62   C70   S    
C21   H5    S    
C17   C61   S    
C36   H36   S    
C30   H10   S    
C19   C63   S    
C117  H114  S    
C79   C102  A    
C36   C97   A    
C51   C57   S    
C42   H16   S    
C85   H76   S    
C78   C101  A    
N2    Ni2   S    
N18   Ni2   S    
C1    H1    S    
C73   C81   S    
C44   C46   S    
N6    Ni6   S    
C11   C20   A    
C24   H8    S    
N26   N29   A    
C45   H23   S    
C50   H52   S    
C28   C32   S    
C56   H42   S    
C86   H78   S    
C54   H40   S    
C21   C29   S    
C47   H19   S    
C23   C31   S    
C73   H63   S    
C24   C32   S    
C74   H64   S    
N13   N14   A    
C5    H95   S    
C91   H83   S    
C90   C92   S    
N11   N12   A    
C25   H103  S    
C112  Br8   S    
C33   H13   S    
C52   C58   S    
C10   H100  S    
C14   C107  A    
C63   C71   S    
C7    C19   A    
C96   C104  A    
N23   Ni7   S    
C53   C71   S    
N8    Ni8   S    
C22   H6    S    
C71   H49   S    
C121  H125  S    
C89   C101  S    
C13   C106  A    
C96   H90   S    
C45   H21   S    
N28   N31   A    
C48   H26   S    
C84   H70   S    
C14   C88   S    
C121  H124  S    
C2    H2    S    
C117  C118  S    
C75   H65   S    
C107  H93   S    
C105  H91   S    
C65   H27   S    
C61   C65   S    
C66   H28   S    
N27   N32   A    
C2    N2    A    
C37   C100  A    
C16   C111  A    
C51   Br3   S    
C72   H44   S    
C27   C29   S    
C41   H15   S    
C93   C103  A    
C111  Br7   S    
C82   C89   S    
C64   C68   S    
C122  H127  S    
C24   C26   S    
C23   H7    S    
C114  H107  S    
C82   H72   S    
C83   H69   S    
O1    C113  S    
C90   C102  S    
N3    N8    A    
C115  H109  S    
C112  N24   A    
C22   C25   S    
C69   H45   S    
C68   H30   S    
C74   C87   S    
C89   C91   S    
N17   N18   A    
C6    H96   S    
C43   C59   S    
N21   N22   A    
C120  C121  S    
C59   C100  S    
C124  H131  S    
C84   C90   S    
N20   Ni4   S    
C8    H98   S    
N22   Ni6   S    
N5    Ni5   S    
N24   Ni8   S    
C62   C66   S    
C43   H17   S    
C118  H118  S    
C119  H119  S    
C37   N7    A    
C18   C62   S    
C51   C67   S    
C80   C102  A    
O3    C119  S    
C13   C87   S    
C41   C47   S    
C31   C34   S    
C43   O3    S    
C42   C48   S    
C41   O1    S    
C43   C45   S    
C55   C69   S    
C10   N30   A    
C115  H110  S    
C51   H53   S    
C35   C98   A    
C9    N29   A    
C94   N14   A    
N2    N5    A    
C55   H41   S    
C21   C25   S    
C106  N18   A    
C114  C115  S    
C110  N22   A    
N11   Ni8   S    
C95   H89   S    
C79   H81   S    
C50   C60   S    
C49   Br1   S    
C113  H105  S    
C115  H111  S    
C22   C39   S    
C69   H47   S    
C70   H48   S    
C76   H62   S    
C49   H51   S    
C3    C99   A    
C9    C18   A    
C117  H115  S    
C120  H121  S    
C53   H39   S    
N26   Ni5   S    
C72   H50   S    
C6    N26   A    
N4    N7    A    
N30   Ni1   S    
C85   H75   S    
C54   H32   S    
C108  N20   A    
C77   N9    A    
C82   H68   S    
C84   H74   S    
N23   N24   A    
C119  C120  S    
C50   Br2   S    
C76   C84   S    
N17   Ni1   S    
N21   Ni5   S    
C93   H87   S    
C95   N15   A    
C76   H66   S    
C47   C63   S    
C123  H128  S    
C48   C64   S    
C5    C17   A    
C93   N13   A    
C23   C40   S    
C26   H104  S    
O4    C122  S    
C23   C26   S    
C38   N8    A    
C52   Br4   S    
C73   C87   S    
C68   H58   S    
N10   Ni5   S    
C4    N4    A    
C29   H9    S    
N19   N20   A    
N14   Ni1   S    
C22   C30   S    
C81   C89   S    
C14   C108  A    
N3    Ni3   S    
C116  H112  S    
C15   C110  A    
C74   C82   S    
C7    H97   S    
C110  Br6   S    
N25   N30   A    
C77   H79   S    
C78   H80   S    
C81   H67   S    
C123  C124  S    
C13   C105  A    
C53   C57   S    
C12   N32   A    
N27   Ni8   S    
C56   C60   S    
C70   H46   S    
N12   Ni7   S    
C34   H14   S    
C71   H43   S    
N16   Ni3   S    
C33   C39   S    
C80   N12   A    
C44   O4    S    
C11   H101  S    
C108  H94   S    
C94   C103  A    
C16   C112  A    
N1    N6    A    
C4    H4    S    
C28   C31   S    
C37   H37   S    
C38   C99   A    
C49   C59   S    
C39   C103  S    
C65   H55   S    
C66   H56   S    
C41   C57   S    
C3    H3    S    
C91   H84   S    
C75   C83   S    
C44   C60   S    
C57   C98   S    
C12   C19   A    
C45   C61   S    
C94   H88   S    
C56   H34   S    
C106  H92   S    
O2    C116  S    
C3    N3    A    
C116  C117  S    
C48   H20   S    
C1    N1    A    
C32   C34   S    
C16   C28   S    
C109  Br5   S    
C75   H61   S    
C124  H130  S    
C32   H12   S    
N19   Ni3   S    
C60   C99   S    
C85   C91   S    
C8    C20   A    
C49   C65   S    
C34   C40   S    
C118  H117  S    
C119  H120  S    
C121  H123  S    
C46   H22   S    
C10   C17   A    
C52   H54   S    
C15   C27   S    
N9    Ni6   S    
N28   Ni7   S    
C73   H59   S    
C76   C88   S    
C74   H60   S    
N13   Ni2   S    
C52   C68   S    
N32   Ni3   S    
C96   N16   A    
C27   C30   S    
C58   C97   S    
N15   Ni4   S    
C79   N11   A    
C85   C87   S    
C6    C18   A    
C63   C67   S    
C92   H86   S    
C122  C123  S    
C1    C97   A    
C114  H108  S    
C111  N23   A    
C53   H31   S    
C20   C64   S    
C113  H106  S    
C40   C104  S    
C21   C39   S    
C47   H25   S    
N9    N10   A    
N4    Ni4   S    
C35   H35   S    
C50   C66   S    
C118  H116  S    
C56   C70   S    
C4    C100  A    
C124  H132  S    
C113  C114  S    
C81   H71   S    
C42   O2    S    
C92   H85   S    
C36   N6    A    
C95   C104  A    
C54   C58   S    
C61   C69   S    
C83   C90   S    
C107  N19   A    
C86   H77   S    
C30   C33   S    
C105  N17   A    
C109  N21   A    
C25   C27   S    
C80   H82   S    
C26   C28   S    
C11   N31   A    
C116  H113  S    
C31   H11   S    
C86   C92   S    
C123  H129  S    
C9    H99   S    
C24   C40   S    
C64   C72   S    
C46   H24   S    
N7    Ni7   S    
C75   C88   S    
C54   C72   S    
C2    C98   A    
C7    N27   A    
N15   N16   A    
C83   H73   S    
N25   Ni6   S    
C5    N25   A    
C38   H38   S    
C120  H122  S    
C67   H29   S    
