data_mof_unit_17624.cif
_audit_creation_date              2012-12-11T15:09:39-0500
_audit_creation_method            fapswitch 2.2
_symmetry_space_group_name_H-M    P1
_symmetry_Int_Tables_number       1
_space_group_crystal_system       triclinic
_cell_length_a                    20.982022
_cell_length_b                    7.132526
_cell_length_c                    14.079916
_cell_angle_alpha                 89.997178
_cell_angle_beta                  98.553247
_cell_angle_gamma                 90.004139
_cell_volume                      2083.69193349

loop_
_atom_site_label
_atom_site_type_symbol
_atom_type_description
_atom_site_fract_x
_atom_site_fract_y
_atom_site_fract_z
_atom_type_partial_charge
O1    O     O_R   0.447130 0.507140 0.597350 -0.539173
O2    O     O_R   0.552870 0.007140 0.402650 -0.539176
O3    O     O_R   0.578910 0.181280 0.586990 -0.540290
O4    O     O_R   0.421090 0.681280 0.413010 -0.540294
C1    C     C_R   0.604532 0.344420 0.607239 0.727437
C2    C     C_R   0.395467 0.844415 0.392763 0.727417
O5    O     O_R   0.449230 0.177860 0.608640 -0.541761
O6    O     O_R   0.550770 0.677860 0.391360 -0.541746
O7    O     O_R   0.422260 0.000770 0.424450 -0.532664
O8    O     O_R   0.577740 0.500770 0.575550 -0.532670
C3    C     C_R   0.433178 0.345772 0.634478 0.691473
C4    C     C_R   0.566816 0.845790 0.365515 0.691470
O9    O     O_3   0.491310 0.336980 0.439550 -0.373423
O10   O     O_3   0.508690 0.836980 0.560450 -0.373428
V1    V     V_3+5 0.501610 0.064760 0.511210 1.458443
V2    V     V_3+5 0.498390 0.564760 0.488790 1.458452
C5    C     C_R   0.614480 0.755353 0.125873 -0.095313
C6    C     C_R   0.385488 0.254856 0.874066 -0.095374
H1    H     H_    0.525319 0.759098 0.182201 0.125688
H2    H     H_    0.474646 0.258563 0.817734 0.125700
H3    H     H_    0.589692 0.710491 0.057021 0.164612
H4    H     H_    0.410264 0.209772 0.942888 0.164617
C7    C     C_R   0.604772 0.847912 0.287157 -0.033238
C8    C     C_R   0.395220 0.347823 0.712838 -0.033255
C9    C     C_R   0.914763 0.904892 0.296936 -0.181133
C10   C     C_R   0.085240 0.404932 0.703054 -0.181163
C11   C     C_R   0.878044 0.915871 0.370450 -0.118303
C12   C     C_R   0.121957 0.415801 0.629531 -0.118270
C13   C     C_R   0.811776 0.892303 0.351447 -0.126485
C14   C     C_R   0.188222 0.392142 0.648530 -0.126529
C15   C     C_R   0.779876 0.856015 0.257154 0.032734
C16   C     C_R   0.220116 0.355911 0.742829 0.032725
C17   C     C_R   0.817832 0.834118 0.181485 -0.001020
C18   C     C_R   0.182160 0.334103 0.818504 -0.000900
C19   C     C_R   0.711440 0.839480 0.236874 0.039268
C20   C     C_R   0.288549 0.339339 0.763109 0.039272
C21   C     C_R   0.681943 0.778906 0.144414 0.055334
C22   C     C_R   0.318033 0.278595 0.855546 0.055414
C23   C     C_R   0.719794 0.742514 0.072235 0.088509
C24   C     C_R   0.280179 0.242304 0.927735 0.088313
C25   C     C_R   0.786343 0.781732 0.088263 0.188431
C26   C     C_R   0.213647 0.281764 0.911732 0.188437
C27   C     C_R   0.671005 0.878826 0.306559 -0.187384
C28   C     C_R   0.328992 0.378850 0.693451 -0.187466
C29   C     C_R   0.576664 0.786387 0.197004 -0.163509
C30   C     C_R   0.423310 0.285995 0.802950 -0.163460
C31   C     C_R   0.886171 0.863908 0.203169 -0.059550
C32   C     C_R   0.113826 0.363956 0.796825 -0.059664
H5    H     H_    0.689224 0.928945 0.377553 0.094798
H6    H     H_    0.310778 0.429219 0.622495 0.094860
H7    H     H_    0.966298 0.928136 0.313395 0.101248
H8    H     H_    0.033708 0.428215 0.686596 0.101247
H9    H     H_    0.787231 0.899544 0.413214 0.103776
H10   H     H_    0.212770 0.399218 0.586759 0.103791
H11   H     H_    0.901125 0.944392 0.443017 0.116560
H12   H     H_    0.098878 0.444280 0.556958 0.116566
C33   C     C_1   0.166128 0.856904 0.169443 -0.210832
C34   C     C_1   0.833870 0.356884 0.830564 -0.210819
C35   C     C_1   0.218462 0.854298 0.220750 0.033717
C36   C     C_1   0.781535 0.354286 0.779259 0.033707
C37   C     C_1   0.280288 0.852762 0.280579 0.044459
C38   C     C_1   0.719709 0.352766 0.719429 0.044420
C39   C     C_1   0.332841 0.850727 0.331351 -0.166103
C40   C     C_1   0.667157 0.350739 0.668654 -0.166115
O11   O     O_R   0.922300 0.202240 0.924350 -0.542209
O12   O     O_R   0.077700 0.702240 0.075650 -0.542120
O13   O     O_R   0.050780 0.535130 0.891350 -0.547443
O14   O     O_R   0.949220 0.035130 0.108650 -0.547456
C41   C     C_R   0.070406 0.368796 0.869402 0.765641
C42   C     C_R   0.929591 0.868783 0.130592 0.765561
O15   O     O_R   0.921100 0.531560 0.912990 -0.532597
O16   O     O_R   0.078900 0.031560 0.087010 -0.532556
O17   O     O_R   0.947120 0.708470 0.097370 -0.528061
O18   O     O_R   0.052880 0.208470 0.902630 -0.528109
C43   C     C_R   0.896117 0.363492 0.892916 0.701428
C44   C     C_R   0.103883 0.863498 0.107086 0.701459
O19   O     O_3   0.008710 0.375800 0.060400 -0.374599
O20   O     O_3   0.991290 0.875800 0.939600 -0.374788
V3    V     V_3+5 0.998380 0.648080 0.988790 1.426148
V4    V     V_3+5 0.001620 0.148080 0.011210 1.426219
I1    I     I_    0.677301 0.623699 0.936624 -0.493551
I2    I     I_    0.322650 0.123599 0.063384 -0.493652
N1    N     N_2   0.821383 0.765928 0.009826 -0.516240
H13   H     H_    0.815507 0.639542 0.974367 0.282154
C45   C     C_3   0.814862 0.925559 0.945816 -0.439755
H14   H     H_    0.848443 0.909525 0.892478 0.201509
H15   H     H_    0.826203 0.056777 0.987300 0.192311
H16   H     H_    0.765134 0.936194 0.906440 0.209221
N2    N     N_2   0.178653 0.266573 0.990246 -0.516273
H17   H     H_    0.184501 0.140379 0.025892 0.282264
C46   C     C_3   0.185335 0.426543 0.054016 -0.440022
H18   H     H_    0.152060 0.410626 0.107774 0.201320
H19   H     H_    0.173722 0.557456 0.012408 0.192445
H20   H     H_    0.235178 0.437687 0.092876 0.209366

loop_
_geom_bond_atom_site_label_1
_geom_bond_atom_site_label_2
_ccdc_geom_bond_type
O14   V4    S    
C22   C24   A    
C7    C29   A    
C11   C13   A    
O1    C3    A    
C32   C41   S    
O16   C44   A    
O2    C4    A    
C2    O7    A    
O15   V3    S    
C12   H12   S    
C23   C25   A    
C45   H14   S    
O5    C3    A    
O12   V3    S    
C14   H10   S    
C4    C7    S    
C16   C20   A    
C33   C44   S    
C19   C21   A    
C5    C29   A    
O20   V4    S    
C33   C35   T    
C34   C36   T    
C25   N1    S    
C3    C8    S    
C7    C27   A    
C36   C38   S    
C37   C39   T    
C38   C40   T    
C18   C26   A    
C15   C17   A    
N2    C46   S    
C19   C27   A    
C9    C31   A    
C10   C32   A    
C45   H15   S    
O6    V2    S    
O11   V4    S    
O18   V4    S    
C13   C15   A    
C6    C30   A    
C34   C43   S    
O19   V3    S    
C35   C37   S    
C14   C16   A    
C24   I2    S    
O13   V3    S    
C23   I1    S    
O4    C2    A    
C46   H18   S    
O20   V3    S    
C27   H5    S    
O5    V1    S    
C5    H3    S    
C1    C40   S    
O13   C41   A    
C16   C18   A    
C2    C39   S    
O4    V2    S    
C9    H7    S    
C31   C42   S    
C10   H8    S    
C46   H19   S    
N1    H13   S    
O6    C4    A    
O12   C44   A    
C42   O17   A    
O17   V3    S    
C41   O18   A    
O1    V2    S    
C5    C21   A    
O2    V1    S    
O14   C42   A    
N1    C45   S    
C17   C31   A    
C15   C19   A    
C20   C28   A    
C18   C32   A    
C20   C22   A    
O3    V1    S    
C45   H16   S    
O19   V4    S    
C28   H6    S    
C6    H4    S    
O3    C1    A    
H1    C29   S    
C9    C11   A    
C10   C12   A    
O11   C43   A    
C26   N2    S    
C8    C30   A    
C12   C14   A    
C6    C22   A    
C17   C25   A    
C1    O8    A    
C21   C23   A    
O8    V2    S    
C46   H20   S    
O15   C43   A    
C13   H9    S    
C8    C28   A    
C24   C26   A    
C11   H11   S    
O7    V1    S    
O16   V4    S    
O9    V2    S    
O10   V1    S    
N2    H17   S    
H2    C30   S    
