data_mof_unit_26114.cif
_audit_creation_date              2012-12-11T14:51:44-0500
_audit_creation_method            fapswitch 2.2
_symmetry_space_group_name_H-M    P1
_symmetry_Int_Tables_number       1
_space_group_crystal_system       triclinic
_cell_length_a                    6.931397
_cell_length_b                    16.695359
_cell_length_c                    16.920821
_cell_angle_alpha                 101.4555
_cell_angle_beta                  88.624014
_cell_angle_gamma                 91.790587
_cell_volume                      1917.85284304

loop_
_atom_site_label
_atom_site_type_symbol
_atom_type_description
_atom_site_fract_x
_atom_site_fract_y
_atom_site_fract_z
_atom_type_partial_charge
O1    O     O_R   0.506340 0.439070 0.579550 -0.536662
O2    O     O_R   0.170010 0.404890 0.412100 -0.539307
O3    O     O_R   0.005010 0.560930 0.420450 -0.539713
C1    C     C_R   0.339563 0.381258 0.383462 0.679433
O4    O     O_R   0.176280 0.429360 0.578400 -0.544018
O5    O     O_R   0.011320 0.585570 0.587940 -0.536591
C2    C     C_R   0.341234 0.412673 0.604719 0.697976
O6    O     O_R   0.500030 0.414430 0.412060 -0.541970
O7    O     O_3   0.340950 0.551220 0.502940 -0.365399
V1    V     V_3+5 0.064020 0.490500 0.499460 1.395311
O8    O     O_R   0.681910 0.595110 0.587900 -0.541219
C3    C     C_R   0.851314 0.618400 0.616621 0.692643
O9    O     O_R   0.675640 0.570640 0.421600 -0.540896
C4    C     C_R   0.848809 0.585880 0.394529 0.710778
V2    V     V_3+5 0.564670 0.509500 0.500540 1.393935
O10   O     O_3   0.837610 0.448780 0.497060 -0.371780
C5    C     C_R   0.886642 0.860834 0.165969 -0.097180
C6    C     C_R   0.879769 0.636868 0.332167 -0.065935
C7    C     C_R   0.100371 0.680389 0.231663 -0.021429
C8    C     C_R   0.052920 0.629435 0.286313 -0.241711
C9    C     C_R   0.750167 0.696333 0.321815 -0.257192
C10   C     C_R   0.796585 0.750002 0.269090 0.137447
C11   C     C_R   0.973865 0.743624 0.224169 0.136743
C12   C     C_R   0.018928 0.801378 0.174659 -0.205723
C13   C     C_R   0.712055 0.865250 0.210734 -0.137354
C14   C     C_R   0.668388 0.811122 0.261923 -0.172695
H1    H     H_    0.154160 0.800569 0.141653 0.178316
H2    H     H_    0.607256 0.910761 0.205883 0.122584
H3    H     H_    0.532694 0.816695 0.295515 0.108402
H4    H     H_    0.152718 0.582398 0.292539 0.121692
H5    H     H_    0.616673 0.702901 0.356957 0.120014
C15   C     C_3   0.802329 0.815695 0.732725 0.182910
C16   C     C_3   0.972447 0.770675 0.684582 -0.149501
H6    H     H_    0.045134 0.787306 0.630680 0.104226
C17   C     C_3   0.865301 0.688804 0.687146 -0.039087
C18   C     C_3   0.694166 0.733742 0.734220 -0.125238
C19   C     C_3   0.793722 0.729853 0.814497 -0.161919
C20   C     C_3   0.964232 0.683917 0.766630 -0.123194
C21   C     C_3   0.071096 0.766625 0.765050 -0.144709
C22   C     C_3   0.900555 0.811797 0.812257 -0.060949
H7    H     H_    0.539284 0.719930 0.720959 0.109548
H8    H     H_    0.721148 0.713365 0.868477 0.130063
H9    H     H_    0.031010 0.628673 0.780127 0.113666
H10   H     H_    0.225954 0.780509 0.778327 0.118310
C23   C     C_3   0.479357 0.235176 0.312343 0.187064
C24   C     C_3   0.316490 0.179241 0.269169 -0.143743
H11   H     H_    0.262717 0.120900 0.284814 0.100220
C25   C     C_3   0.409429 0.188844 0.187543 -0.035997
C26   C     C_3   0.573176 0.243810 0.230626 -0.125609
C27   C     C_3   0.449615 0.319898 0.231094 -0.168381
C28   C     C_3   0.286221 0.264183 0.187021 -0.122484
C29   C     C_3   0.193796 0.255575 0.269473 -0.153449
C30   C     C_3   0.357034 0.310626 0.312854 -0.060063
H12   H     H_    0.728880 0.238749 0.214248 0.105680
H13   H     H_    0.503047 0.378320 0.215544 0.113171
H14   H     H_    0.206973 0.275977 0.134425 0.110213
H15   H     H_    0.038168 0.260825 0.285915 0.116501
C31   C     C_R   0.432629 0.140720 0.833889 -0.067260
C32   C     C_R   0.333771 0.357926 0.664828 -0.070846
C33   C     C_R   0.143102 0.296013 0.761954 -0.197488
C34   C     C_R   0.161521 0.350910 0.709422 -0.163380
C35   C     C_R   0.488979 0.308570 0.674774 -0.241075
C36   C     C_R   0.470278 0.252227 0.727069 0.160824
C37   C     C_R   0.295731 0.245752 0.770939 0.159016
C38   C     C_R   0.277202 0.189718 0.823498 -0.239709
C39   C     C_R   0.604502 0.147207 0.788894 -0.165289
C40   C     C_R   0.622740 0.201806 0.736000 -0.200148
H16   H     H_    0.144245 0.185958 0.857807 0.122993
H17   H     H_    0.726663 0.110074 0.794906 0.124486
H18   H     H_    0.008661 0.292635 0.795300 0.124039
H19   H     H_    0.757021 0.204983 0.702498 0.121424
H20   H     H_    0.039196 0.387981 0.703502 0.128370
H21   H     H_    0.621950 0.312459 0.640505 0.122301
O11   O     O_R   0.266070 0.085680 0.087850 -0.539199
O12   O     O_R   0.590090 0.070660 0.921580 -0.545743
O13   O     O_R   0.754780 0.914400 0.912080 -0.540037
C41   C     C_R   0.425247 0.086839 0.894760 0.691168
O14   O     O_R   0.596110 0.095130 0.087880 -0.541259
O15   O     O_R   0.760850 0.939050 0.079570 -0.537130
C42   C     C_R   0.426600 0.118628 0.116642 0.685105
O16   O     O_R   0.260010 0.061030 0.920360 -0.538680
O17   O     O_3   0.425070 0.948840 0.997010 -0.362476
V3    V     V_3+5 0.702100 0.009490 0.000550 1.403800
O18   O     O_R   0.090200 0.929250 0.078500 -0.539889
C43   C     C_R   0.917022 0.913889 0.105396 0.710348
O19   O     O_R   0.084180 0.904770 0.912200 -0.539141
C44   C     C_R   0.914805 0.881772 0.883237 0.689193
V4    V     V_3+5 0.201420 0.990350 0.999580 1.415226
O20   O     O_3   0.928580 0.051150 0.002990 -0.370418
C45   C     C_3   0.589897 0.218980 0.384414 -0.369939
C46   C     C_3   0.695195 0.138381 0.363555 -0.773369
H22   H     H_    0.590631 0.086519 0.345710 0.222942
H23   H     H_    0.800878 0.139529 0.313369 0.219484
H24   H     H_    0.774279 0.128759 0.417044 0.221496
H25   H     H_    0.696930 0.269673 0.403362 0.190214
H26   H     H_    0.486924 0.217157 0.435398 0.169250
C47   C     C_2   0.283235 0.663566 0.184561 0.337794
H27   H     H_    0.402541 0.638065 0.210865 0.057823
O21   O     O_2   0.299302 0.672553 0.114861 -0.528597
C48   C     C_3   0.709671 0.891858 0.714709 -0.371039
C49   C     C_3   0.621196 0.875069 0.631182 -0.764379
H28   H     H_    0.733602 0.855265 0.584053 0.223870
H29   H     H_    0.505857 0.826774 0.627097 0.220983
H30   H     H_    0.556718 0.931748 0.619965 0.221847
H31   H     H_    0.594992 0.912060 0.760710 0.179607
H32   H     H_    0.821119 0.941684 0.718437 0.167139

loop_
_geom_bond_atom_site_label_1
_geom_bond_atom_site_label_2
_ccdc_geom_bond_type
C49   H28   S    
C1    C30   S    
C6    C9    A    
C4    C6    S    
O2    C1    A    
C7    C8    A    
C12   H1    S    
C1    O6    A    
C47   H27   S    
C7    C47   S    
C45   H25   S    
C8    H4    S    
C23   C24   S    
C13   H2    S    
C9    H5    S    
C48   H31   S    
C16   C21   S    
C5    C43   S    
C15   C18   S    
C22   C44   S    
C18   C19   S    
C19   C20   S    
C19   C22   S    
O5    C3    A    
C20   C21   S    
O14   C42   A    
C39   H17   S    
V2    O10   S    
C24   C29   S    
C28   H14   S    
C19   H8    S    
C31   C41   S    
O8    V2    S    
O14   V3    S    
C31   C39   A    
C25   C28   S    
C17   C18   S    
C11   C12   A    
C35   H21   S    
O1    V2    S    
C41   O16   A    
O7    V1    S    
C40   H19   S    
C39   C40   A    
C23   C30   S    
C49   H29   S    
O11   C42   A    
O9    C4    A    
C18   H7    S    
O13   V3    S    
C2    C32   S    
C47   O21   D    
C27   C28   S    
C24   C25   S    
V3    O20   S    
C36   C40   A    
C32   C34   A    
C5    C12   A    
O19   V4    S    
C28   C29   S    
C27   C30   S    
C17   C20   S    
O18   C43   A    
C46   H22   S    
O4    C2    A    
O19   C44   A    
C13   C14   A    
C15   C48   S    
C33   C34   A    
C7    C11   A    
C35   C36   A    
C46   H23   S    
C31   C38   A    
C23   C26   S    
C33   H18   S    
C38   H16   S    
C16   H6    S    
C3    C17   S    
C23   C45   S    
O12   C41   A    
O13   C44   A    
O3    C4    A    
C34   H20   S    
C25   C26   S    
O17   V3    S    
O6    V2    S    
O9    V2    S    
O2    V1    S    
O15   C43   A    
C29   C30   S    
C24   H11   S    
C32   C35   A    
O1    C2    A    
O18   V4    S    
O5    V1    S    
O8    C3    A    
C45   H26   S    
C21   H10   S    
C49   H30   S    
C48   H32   S    
C27   H13   S    
C33   C37   A    
C5    C13   A    
C15   C16   S    
C25   C42   S    
O7    V2    S    
C20   H9    S    
O3    V1    S    
V1    O10   S    
C37   C38   A    
C46   H24   S    
O15   V3    S    
O12   V3    S    
C45   C46   S    
O17   V4    S    
C48   C49   S    
C16   C17   S    
C6    C8    A    
C15   C22   S    
O16   V4    S    
C29   H15   S    
C36   C37   A    
C21   C22   S    
O4    V1    S    
V4    O20   S    
C14   H3    S    
C26   C27   S    
C10   C14   A    
C10   C11   A    
O11   V4    S    
C9    C10   A    
C26   H12   S    
