data_mof_unit_35416.cif
_audit_creation_date              2012-12-10T18:21:17-0500
_audit_creation_method            fapswitch 2.2
_symmetry_space_group_name_H-M    P1
_symmetry_Int_Tables_number       1
_space_group_crystal_system       triclinic
_cell_length_a                    14.930437
_cell_length_b                    14.11248
_cell_length_c                    10.621675
_cell_angle_alpha                 91.099054
_cell_angle_beta                  88.97813
_cell_angle_gamma                 90.942447
_cell_volume                      2236.98726989

loop_
_atom_site_label
_atom_site_type_symbol
_atom_type_description
_atom_site_fract_x
_atom_site_fract_y
_atom_site_fract_z
_atom_type_partial_charge
C1    C     C_R   0.326871 0.499340 0.500952 0.868990
C2    C     C_3   0.588951 0.483420 0.924380 -0.402535
C3    C     C_R   0.813889 0.429675 0.436781 -0.255896
C4    C     C_R   0.768665 0.499386 0.506331 -0.079794
C5    C     C_R   0.814217 0.565118 0.582182 -0.279480
C6    C     C_R   0.906996 0.565322 0.582862 0.128910
C7    C     C_R   0.953277 0.496190 0.510463 0.060349
C8    C     C_R   0.906319 0.427306 0.438432 0.113076
C9    C     C_R   0.954141 0.633757 0.653442 -0.231617
C10   C     C_R   0.047311 0.634716 0.650925 -0.222774
C11   C     C_R   0.093557 0.566497 0.579081 0.122707
C12   C     C_R   0.496121 0.499763 0.257782 0.829772
C13   C     C_R   0.046450 0.496115 0.509665 0.056525
C14   C     C_R   0.092565 0.426070 0.438645 0.122668
C15   C     C_R   0.045406 0.357110 0.368984 -0.222577
C16   C     C_R   0.952372 0.357973 0.368439 -0.217342
C17   C     C_R   0.186282 0.567419 0.574816 -0.267248
C18   C     C_R   0.231237 0.497867 0.504466 -0.059752
C19   C     C_R   0.185255 0.426877 0.437810 -0.271588
C20   C     C_R   0.565945 0.798631 0.434765 0.534593
C21   C     C_R   0.561700 0.201702 0.426713 0.550444
C22   C     C_R   0.436065 0.798339 0.568113 -0.179293
C23   C     C_R   0.437467 0.201439 0.570585 -0.182974
C24   C     C_R   0.434906 0.898812 0.570810 0.018704
C25   C     C_R   0.435268 0.100972 0.571358 0.017853
C26   C     C_R   0.673107 0.500356 0.502180 0.897854
C27   C     C_R   0.499598 0.949448 0.500234 0.057845
C28   C     C_R   0.499578 0.050513 0.500105 0.054893
C29   C     C_R   0.564163 0.899211 0.428962 -0.086153
C30   C     C_R   0.564662 0.100881 0.429642 -0.086204
C31   C     C_R   0.370561 0.949841 0.641527 -0.189376
C32   C     C_R   0.370874 0.049763 0.642037 -0.189022
C33   C     C_R   0.630180 0.049226 0.362250 -0.204554
C34   C     C_R   0.626301 0.950685 0.355277 -0.215740
C35   C     C_R   0.495869 0.500760 0.742083 0.813739
C36   C     C_3   0.460185 0.598576 0.075101 -0.377025
C37   C     C_3   0.427880 0.423324 0.071129 -0.412250
C38   C     C_3   0.461359 0.599416 0.931208 -0.404073
C39   C     C_3   0.428063 0.423646 0.926957 -0.395172
C40   C     C_3   0.589390 0.486290 0.068319 -0.410580
C41   C     C_3   0.493351 0.501167 0.121110 0.175716
C42   C     C_3   0.493383 0.502089 0.878356 0.194159
H1    H     H_    0.504129 0.657626 0.109979 0.202395
H2    H     H_    0.446501 0.351968 0.102496 0.164752
H3    H     H_    0.083159 0.688673 0.704801 0.143067
H4    H     H_    0.223602 0.621244 0.627211 0.141744
H5    H     H_    0.221750 0.373820 0.383322 0.149101
H6    H     H_    0.080448 0.303237 0.314282 0.145145
H7    H     H_    0.916475 0.304823 0.313212 0.151519
H8    H     H_    0.386085 0.758529 0.621063 0.152992
H9    H     H_    0.388925 0.241117 0.626120 0.157762
H10   H     H_    0.319997 0.912502 0.696651 0.133522
H11   H     H_    0.320632 0.086967 0.697719 0.135998
H12   H     H_    0.684300 0.084230 0.311997 0.177557
H13   H     H_    0.673955 0.915297 0.293326 0.173974
H14   H     H_    0.391072 0.611882 0.111637 0.164615
H15   H     H_    0.358916 0.436584 0.108264 0.158291
H16   H     H_    0.393054 0.614422 0.897018 0.160707
H17   H     H_    0.359106 0.436164 0.893397 0.155427
H18   H     H_    0.507099 0.657524 0.898892 0.185742
H19   H     H_    0.448554 0.352534 0.890720 0.183510
H20   H     H_    0.634470 0.544950 0.101411 0.177419
H21   H     H_    0.617302 0.419885 0.102238 0.176043
H22   H     H_    0.636905 0.537828 0.887303 0.158769
H23   H     H_    0.612009 0.412846 0.889420 0.177858
H24   H     H_    0.776975 0.377946 0.380669 0.191365
H25   H     H_    0.777521 0.615456 0.640623 0.131268
H26   H     H_    0.919015 0.687033 0.709088 0.143550
N1    N     N_R   0.500070 0.750030 0.500050 -0.138178
N2    N     N_R   0.500070 0.249970 0.500050 -0.138941
O1    O     O_R   0.367860 0.580280 0.500020 -0.626715
O2    O     O_R   0.367860 0.419720 0.500020 -0.630158
O3    O     O_R   0.500000 0.580270 0.314790 -0.590430
O4    O     O_R   0.500000 0.419730 0.314790 -0.623888
O5    O     O_R   0.632160 0.580270 0.499960 -0.597201
O6    O     O_R   0.632160 0.419730 0.499960 -0.565963
O7    O     O_R   0.500030 0.580270 0.685200 -0.638384
O8    O     O_R   0.500030 0.419730 0.685200 -0.629029
Zn1   Zn    Zn3+2 0.500020 0.607200 0.499990 0.964692
Zn2   Zn    Zn3+2 0.500020 0.392800 0.499990 0.967589
O9    O     O_3   0.631086 0.748418 0.368977 -0.594755
C43   C     C_3   0.714721 0.760391 0.429285 0.105425
H27   H     H_    0.713037 0.726725 0.522439 0.154597
H28   H     H_    0.734284 0.835385 0.448000 0.110788
C44   C     C_3   0.787754 0.716955 0.345881 -0.809123
H29   H     H_    0.794560 0.756868 0.257033 0.235925
H30   H     H_    0.852740 0.720237 0.395143 0.214915
H31   H     H_    0.770721 0.641949 0.322290 0.264097
O10   O     O_3   0.625016 0.252561 0.357621 -0.593811
C45   C     C_3   0.611118 0.239211 0.226621 0.081730
H32   H     H_    0.563012 0.291043 0.194843 0.167820
H33   H     H_    0.582439 0.168851 0.198580 0.117412
C46   C     C_3   0.699571 0.253461 0.155019 -0.894922
H34   H     H_    0.748020 0.198528 0.180382 0.247038
H35   H     H_    0.688013 0.248459 0.052089 0.219349
H36   H     H_    0.729249 0.324128 0.177904 0.250253

loop_
_geom_bond_atom_site_label_1
_geom_bond_atom_site_label_2
_ccdc_geom_bond_type
C46   H34   S    
C12   O4    A    
C27   C29   A    
C24   C27   A    
C31   H10   S    
C5    H25   S    
C2    H23   S    
C6    C9    A    
O1    Zn1   S    
O9    C43   S    
C7    C8    A    
C21   O10   S    
C44   H29   S    
C25   C28   A    
C1    C18   S    
C1    O1    A    
C40   H21   S    
C38   C42   S    
C5    C6    A    
C19   H5    S    
C15   C16   A    
C40   H20   S    
C18   C19   A    
C35   C42   S    
C20   O9    S    
C38   H16   S    
C45   H33   S    
C26   O6    A    
C9    C10   A    
C22   N1    A    
C22   H8    S    
C25   C32   A    
C44   H30   S    
C34   H13   S    
C8    C16   A    
O4    Zn2   S    
C12   O3    A    
C23   N2    A    
C36   C41   S    
C15   H6    S    
C2    H22   S    
C26   O5    A    
C39   C42   S    
C20   C29   A    
O7    Zn1   S    
C39   H19   S    
C1    O2    A    
N2    Zn2   S    
C16   H7    S    
C3    C8    A    
C29   C34   A    
C35   O7    A    
O2    Zn2   S    
C12   C41   S    
C36   H14   S    
C23   H9    S    
C31   C32   A    
C39   H17   S    
C10   H3    S    
C17   C18   A    
O3    Zn1   S    
C17   H4    S    
C38   H18   S    
C40   C41   S    
C46   H36   S    
C43   H28   S    
C22   C24   A    
C20   N1    A    
N1    Zn1   S    
C3    H24   S    
C3    C4    A    
C32   H11   S    
C45   C46   S    
C44   H31   S    
C33   H12   S    
C11   C17   A    
C30   C33   A    
C14   C19   A    
O6    Zn2   S    
C4    C5    A    
C4    C26   S    
C6    C7    A    
C43   C44   S    
C21   C30   A    
C35   O8    A    
C21   N2    A    
C37   H2    S    
C36   C38   S    
C9    H26   S    
C37   C39   S    
C11   C13   A    
C45   H32   S    
C2    C42   S    
C28   C30   A    
C33   C34   A    
O8    Zn2   S    
C23   C25   A    
C37   C41   S    
C24   C31   A    
C10   C11   A    
C2    C40   S    
C7    C13   A    
C46   H35   S    
C43   H27   S    
C27   C28   A    
C14   C15   A    
C36   H1    S    
O10   C45   S    
C13   C14   A    
O5    Zn1   S    
C37   H15   S    
