data_mof_unit_35554.cif
_audit_creation_date              2012-12-11T14:15:44-0500
_audit_creation_method            fapswitch 2.2
_symmetry_space_group_name_H-M    P1
_symmetry_Int_Tables_number       1
_space_group_crystal_system       triclinic
_cell_length_a                    11.104816
_cell_length_b                    12.703432
_cell_length_c                    23.487894
_cell_angle_alpha                 90.201602
_cell_angle_beta                  96.44893
_cell_angle_gamma                 69.055886
_cell_volume                      3072.52381433

loop_
_atom_site_label
_atom_site_type_symbol
_atom_type_description
_atom_site_fract_x
_atom_site_fract_y
_atom_site_fract_z
_atom_type_partial_charge
C1    C     C_R   0.149545 0.617175 0.428970 0.547501
C2    C     C_2   0.189020 0.231455 0.228392 0.290067
C3    C     C_2   0.154152 0.165684 0.263107 0.396365
C4    C     C_R   0.751841 0.602525 0.403005 0.581474
C5    C     C_1   0.132130 0.196746 0.321370 0.032108
C6    C     C_1   0.213926 0.195125 0.170422 0.002056
C7    C     C_1   0.116465 0.229909 0.369161 -0.021257
C8    C     C_1   0.167163 0.749825 0.123785 0.012013
C9    C     C_2   0.150748 0.686109 0.229130 -0.084756
C10   C     C_2   0.231101 0.699447 0.273589 0.280508
C11   C     C_1   0.216499 0.664104 0.330669 -0.045494
C12   C     C_R   0.676606 0.547391 0.307437 0.228960
C13   C     C_1   0.157163 0.720006 0.171201 -0.001236
C14   C     C_1   0.194767 0.639056 0.376951 -0.000980
C15   C     C_1   0.628670 0.759559 0.865296 0.060081
C16   C     C_R   0.101362 0.281371 0.423704 0.547779
C17   C     C_2   0.684451 0.731585 0.758706 -0.045172
C18   C     C_2   0.652454 0.654033 0.728151 0.276513
C19   C     C_1   0.674800 0.644694 0.668362 -0.037094
C20   C     C_1   0.659461 0.747010 0.817536 0.047740
C21   C     C_1   0.701447 0.629992 0.620029 -0.008024
C22   C     C_R   0.262961 0.063735 0.839056 -0.046427
C23   C     C_R   0.719979 0.723282 0.315481 0.292027
C24   C     C_R   0.110508 0.206963 0.635917 0.000433
C25   C     C_R   0.008654 0.170873 0.716040 -0.114783
C26   C     C_R   0.998284 0.214979 0.660823 -0.180846
C27   C     C_R   0.233073 0.143152 0.663933 0.407548
C28   C     C_R   0.148906 0.615961 0.591196 0.533929
C29   C     C_R   0.244466 0.103829 0.720555 0.020371
C30   C     C_R   0.131135 0.121327 0.747389 -0.069266
C31   C     C_R   0.141616 0.096329 0.805994 -0.187182
C32   C     C_R   0.376392 0.044320 0.811906 0.250922
C33   C     C_R   0.366697 0.056789 0.752394 0.408483
C34   C     C_R   0.714873 0.731169 0.255977 0.003623
C35   C     C_R   0.125561 0.749387 0.852211 -0.050597
C36   C     C_R   0.186883 0.634889 0.650523 -0.007360
C37   C     C_R   0.297462 0.559011 0.744245 -0.094354
C38   C     C_R   0.286938 0.551592 0.684806 -0.116458
C39   C     C_R   0.100782 0.726990 0.675850 -0.086617
C40   C     C_R   0.749817 0.601564 0.566028 0.547011
C41   C     C_R   0.104190 0.730347 0.734594 0.043242
C42   C     C_R   0.205233 0.647267 0.769353 -0.000743
C43   C     C_R   0.214704 0.656767 0.828430 -0.140334
C44   C     C_R   0.016157 0.822624 0.817887 -0.096063
C45   C     C_R   0.699323 0.642993 0.222859 -0.035153
C46   C     C_R   0.006625 0.814627 0.759072 0.347042
C47   C     C_R   0.265783 0.109924 0.069485 0.559017
C48   C     C_R   0.602829 0.774196 0.080286 0.546022
C49   C     C_R   0.189182 0.787700 0.069682 0.549119
C50   C     C_R   0.273700 0.052898 0.901886 0.598234
C51   C     C_R   0.575663 0.776432 0.918759 0.546428
C52   C     C_R   0.099549 0.277034 0.584807 0.570809
C53   C     C_R   0.163366 0.786597 0.907503 0.538230
C54   C     C_R   0.679094 0.751716 0.136667 -0.006612
C55   C     C_R   0.706521 0.629257 0.341737 -0.029864
C56   C     C_R   0.697957 0.649021 0.164000 -0.101090
C57   C     C_R   0.672148 0.555430 0.247886 0.264771
C58   C     C_3   0.635922 0.477249 0.731991 -0.114943
C59   C     C_3   0.548064 0.096158 0.844832 -0.059414
C60   C     C_3   0.506840 0.511582 0.201536 -0.097167
C61   C     C_3   0.743879 0.356107 0.326342 -0.025514
C62   C     C_3   0.261474 0.380077 0.214500 -0.130646
C63   C     C_3   0.368824 0.789996 0.312529 -0.061249
C64   C     C_R   0.698756 0.838865 0.168677 -0.140457
C65   C     C_R   0.721793 0.826609 0.228408 -0.085111
C66   C     C_1   0.236684 0.160993 0.123330 -0.009477
Cr1   Cr    Cr6+3 0.189770 0.415650 0.511620 1.083762
Cr2   Cr    Cr6+3 0.930400 0.667320 0.496770 1.105439
Cr3   Cr    Cr6+3 0.879870 0.417010 0.491650 1.036706
Cr4   Cr    Cr6+3 0.149500 0.973980 0.985330 1.032434
Cr5   Cr    Cr6+3 0.457000 0.976510 0.994660 1.038706
Cr6   Cr    Cr6+3 0.411170 0.724270 0.995270 1.019403
F1    F     F_    0.477122 0.028627 0.726696 -0.562189
F2    F     F_    0.340983 0.128820 0.637913 -0.548809
F3    F     F_    0.905612 0.892241 0.726200 -0.639778
F4    F     F_    0.740482 0.805830 0.347679 -0.620262
F5    F     F_    0.142402 0.067717 0.244680 -0.638682
H1    H     H_    0.690016 0.579556 0.138870 0.183849
H2    H     H_    0.374395 0.494186 0.770583 0.120555
H3    H     H_    0.352923 0.478885 0.665938 0.137693
H4    H     H_    0.023523 0.792358 0.649856 0.206957
H5    H     H_    0.733861 0.895459 0.252761 0.187469
H6    H     H_    0.743086 0.439039 0.731639 0.112880
H7    H     H_    0.584703 0.479847 0.688258 0.131414
H8    H     H_    0.607994 0.421569 0.759821 0.130695
H9    H     H_    0.475257 0.178829 0.854614 0.104177
H10   H     H_    0.586207 0.103617 0.803931 0.186776
H11   H     H_    0.630767 0.075088 0.879337 0.125940
H12   H     H_    0.077758 0.650401 0.236049 0.096996
H13   H     H_    0.460119 0.513560 0.241164 0.168467
H14   H     H_    0.483413 0.450049 0.173029 0.117508
H15   H     H_    0.465558 0.595483 0.178414 0.157415
H16   H     H_    0.842645 0.360116 0.326735 0.112803
H17   H     H_    0.718931 0.316691 0.286743 0.169319
H18   H     H_    0.748019 0.299770 0.363071 0.146992
H19   H     H_    0.200178 0.412935 0.173043 0.118025
H20   H     H_    0.359151 0.319418 0.207517 0.124933
H21   H     H_    0.276093 0.452219 0.236772 0.138760
H22   H     H_    0.427010 0.721525 0.344617 0.118751
H23   H     H_    0.726627 0.785731 0.739306 0.171461
H24   H     H_    0.287034 0.853499 0.331506 0.161813
H25   H     H_    0.433021 0.833638 0.300184 0.168307
H26   H     H_    0.054558 0.110636 0.826416 0.153535
H27   H     H_    0.920998 0.183147 0.735623 0.144455
H28   H     H_    0.902368 0.261810 0.639234 0.150651
H29   H     H_    0.297477 0.598145 0.855098 0.143630
H30   H     H_    0.686927 0.918704 0.148129 0.141418
H31   H     H_    0.944356 0.892879 0.835835 0.158470
O1    O     O_R   0.196340 0.303200 0.448500 -0.481252
O2    O     O_R   0.555390 0.700940 0.062700 -0.521362
O3    O     O_R   0.295020 0.731920 0.049950 -0.500624
O4    O     O_R   0.199310 0.519670 0.454880 -0.492984
O5    O     O_R   0.094290 0.884230 0.921550 -0.534121
O6    O     O_R   0.168980 0.069410 0.926940 -0.512800
O7    O     O_R   0.358400 0.089990 0.927950 -0.488419
O8    O     O_R   0.544850 0.873850 0.939920 -0.477199
O9    O     O_R   0.536020 0.701900 0.936430 -0.512084
O10   O     O_R   0.277070 0.732810 0.932890 -0.499923
O11   O     O_3   0.339220 0.891590 0.991750 -0.272925
O12   O     O_R   0.811960 0.658090 0.547150 -0.482028
O13   O     O_R   0.045660 0.691380 0.441680 -0.472891
O14   O     O_R   0.811930 0.659460 0.430950 -0.429809
O15   O     O_R   0.757900 0.507620 0.421760 -0.483154
O16   O     O_R   0.988630 0.322990 0.439840 -0.514077
O17   O     O_R   0.196380 0.301720 0.573850 -0.436465
O18   O     O_R   0.199350 0.518300 0.571080 -0.502401
O19   O     O_R   0.045700 0.689900 0.567030 -0.517313
O20   O     O_3   0.598533 0.585936 0.754586 -0.555059
O21   O     O_3   0.497657 0.008481 0.843643 -0.536745
O22   O     O_3   0.642890 0.476208 0.214119 -0.581059
O23   O     O_R   0.757930 0.506140 0.547110 -0.516220
O24   O     O_3   0.646242 0.462350 0.332256 -0.542773
O25   O     O_3   0.198943 0.331396 0.249677 -0.595146
O26   O     O_3   0.323652 0.745707 0.262977 -0.556510
O27   O     O_R   0.988670 0.321620 0.556040 -0.518798
O28   O     O_3   0.000020 0.499990 0.500010 -0.279562
O29   O     O_R   0.113660 0.883270 0.047820 -0.493847
O30   O     O_R   0.186930 0.068530 0.043990 -0.476608
O31   O     O_R   0.377770 0.089040 0.054220 -0.513304
O32   O     O_R   0.562800 0.872960 0.056970 -0.500068

loop_
_geom_bond_atom_site_label_1
_geom_bond_atom_site_label_2
_ccdc_geom_bond_type
C24   C52   S    
C48   O2    A    
C58   O20   S    
C8    C13   T    
C62   H19   S    
C35   C53   S    
C41   C42   A    
C24   C27   A    
C23   F4    S    
C63   H24   S    
C39   C41   A    
Cr4   O6    S    
C48   C54   S    
C37   H2    S    
C45   C57   A    
C29   C30   A    
C22   C32   A    
C62   O25   S    
C19   C21   T    
C24   C26   A    
C18   C19   S    
C49   O29   A    
Cr1   O17   S    
C1    O4    A    
C30   C31   A    
C11   C14   T    
C61   H16   S    
C27   C29   A    
Cr3   O15   S    
C29   C33   A    
C17   C20   S    
C56   H1    S    
C26   H28   S    
C50   O7    A    
C37   C42   A    
C9    C13   S    
C59   H11   S    
C46   F3    S    
C63   H22   S    
C53   O5    A    
C61   O24   S    
C18   O20   S    
C62   H21   S    
Cr1   O1    S    
C45   C56   A    
C44   C46   A    
C38   H3    S    
Cr6   O9    S    
C41   C46   A    
C15   C51   S    
C27   F2    S    
C35   C43   A    
C9    C10   D    
C47   C66   S    
C28   O19   A    
C49   O3    A    
C44   H31   S    
Cr6   O3    S    
Cr3   O27   S    
C2    C6    S    
C63   H25   S    
C34   C65   A    
C32   O21   S    
C28   O18   A    
C16   O1    A    
Cr6   O2    S    
C60   H15   S    
Cr4   O5    S    
C15   C20   T    
C54   C56   A    
C2    O25   S    
C22   C31   A    
C48   O32   A    
Cr5   O7    S    
C63   O26   S    
C57   O22   S    
Cr2   O28   S    
C39   H4    S    
Cr1   O18   S    
C9    H12   S    
C5    C7    T    
C53   O10   A    
Cr5   O31   S    
Cr3   O16   S    
C25   C26   A    
Cr6   O10   S    
C4    O15   A    
C50   O6    A    
C43   H29   S    
C31   H26   S    
C37   C38   A    
C58   H7    S    
C62   H20   S    
Cr4   O11   S    
Cr3   O23   S    
C23   C34   A    
C17   C18   D    
C4    O14   A    
C34   C45   A    
C35   C44   A    
Cr2   O19   S    
C12   C57   A    
C33   F1    S    
C7    C16   S    
C40   O12   A    
C40   O23   A    
Cr4   O30   S    
Cr3   O28   S    
Cr5   O11   S    
C4    C55   S    
C42   C43   A    
C60   O22   S    
C3    F5    S    
C58   H8    S    
C64   H30   S    
C60   H14   S    
C25   C30   A    
C59   O21   S    
C12   O24   S    
C1    O13   A    
C61   H17   S    
C36   C39   A    
C10   O26   S    
C3    C5    S    
Cr2   O13   S    
C52   O17   A    
C61   H18   S    
C25   H27   S    
C23   C55   A    
Cr5   O32   S    
C60   H13   S    
Cr2   O14   S    
C51   O8    A    
C22   C50   S    
C64   C65   A    
C36   C38   A    
Cr1   O28   S    
C16   O16   A    
C59   H9    S    
C58   H6    S    
Cr2   O12   S    
C65   H5    S    
C21   C40   S    
C54   C64   A    
C47   O30   A    
C51   O9    A    
Cr5   O8    S    
C2    C3    D    
C32   C33   A    
C17   H23   S    
C59   H10   S    
C12   C55   A    
Cr6   O11   S    
C10   C11   S    
Cr1   O4    S    
C6    C66   T    
C28   C36   S    
Cr4   O29   S    
C47   O31   A    
C52   O27   A    
C1    C14   S    
C8    C49   S    
