data_mof_unit_42050.cif
_audit_creation_date              2012-12-10T18:13:37-0500
_audit_creation_method            fapswitch 2.2
_symmetry_space_group_name_H-M    P1
_symmetry_Int_Tables_number       1
_space_group_crystal_system       triclinic
_cell_length_a                    12.597017
_cell_length_b                    13.149543
_cell_length_c                    16.701583
_cell_angle_alpha                 91.032805
_cell_angle_beta                  98.149801
_cell_angle_gamma                 97.374449
_cell_volume                      2714.09279833

loop_
_atom_site_label
_atom_site_type_symbol
_atom_type_description
_atom_site_fract_x
_atom_site_fract_y
_atom_site_fract_z
_atom_type_partial_charge
C1    C     C_R   0.559871 0.691298 0.512186 0.856381
C2    C     C_R   0.472632 0.483654 0.735118 -0.033319
C3    C     C_R   0.292609 0.066558 0.557200 -0.197249
C4    C     C_R   0.511225 0.491829 0.349107 0.887059
C5    C     C_R   0.403888 0.200608 0.499166 -0.047638
C6    C     C_R   0.699644 0.837288 0.500484 -0.192599
C7    C     C_R   0.729071 0.941670 0.493320 -0.147386
C8    C     C_R   0.654845 0.009485 0.501465 -0.190521
C9    C     C_R   0.550806 0.973706 0.520963 0.085673
C10   C     C_R   0.528165 0.870306 0.540625 0.083678
C11   C     C_R   0.468425 0.037021 0.521622 0.076773
C12   C     C_R   0.599790 0.455432 0.230486 -0.196555
C13   C     C_R   0.372617 0.002051 0.554199 0.173961
C14   C     C_R   0.359086 0.904042 0.584468 -0.250197
C15   C     C_R   0.435883 0.838783 0.577830 -0.199571
C16   C     C_R   0.439860 0.308760 0.492022 0.863938
C17   C     C_R   0.478050 0.133799 0.489210 -0.254134
C18   C     C_R   0.309121 0.166609 0.531014 -0.201415
C19   C     C_R   0.597967 0.800838 0.521435 -0.114409
C20   C     C_R   0.900943 0.347679 0.610691 -0.312443
C21   C     C_R   0.209611 0.628792 0.405740 0.020191
C22   C     C_R   0.107103 0.657398 0.386298 -0.254594
C23   C     C_R   0.544053 0.430851 0.867362 -0.153725
C24   C     C_R   0.022057 0.608741 0.422117 -0.201909
C25   C     C_R   0.039574 0.530668 0.477796 0.017505
C26   C     C_R   0.145677 0.504403 0.495463 0.237651
C27   C     C_R   0.956668 0.477926 0.516544 -0.013919
C28   C     C_R   0.485890 0.500322 0.650887 0.841368
C29   C     C_R   0.981512 0.400521 0.571954 0.199447
C30   C     C_R   0.086400 0.376397 0.588083 -0.303131
C31   C     C_R   0.167114 0.427607 0.550201 -0.228220
C32   C     C_R   0.849282 0.498426 0.502625 -0.053299
C33   C     C_R   0.796472 0.371676 0.594191 0.005300
C34   C     C_R   0.559670 0.459054 0.789917 -0.201284
C35   C     C_R   0.505442 0.456522 0.265431 -0.094044
C36   C     C_R   0.405876 0.409375 0.224436 -0.325757
C37   C     C_R   0.398485 0.366892 0.145933 0.574738
C38   C     C_R   0.493588 0.370904 0.110265 0.085750
C39   C     C_R   0.593802 0.412498 0.153205 -0.252913
C40   C     C_3   0.213029 0.367192 0.111854 -0.358500
C41   C     C_R   0.370196 0.482091 0.759401 -0.206587
C42   C     C_R   0.354599 0.453662 0.836927 -0.170414
C43   C     C_R   0.440748 0.426043 0.890737 0.177564
C44   C     C_2   0.487967 0.352514 0.023335 -0.167655
C45   C     C_2   0.423388 0.404665 0.973708 -0.186374
H1    H     H_    0.334940 0.403038 0.254662 0.169134
H2    H     H_    0.422858 0.763821 0.603130 0.172336
H3    H     H_    0.732690 0.331584 0.623273 0.136112
H4    H     H_    0.639633 0.460454 0.772824 0.155555
H5    H     H_    0.106264 0.317484 0.630156 0.154637
H6    H     H_    0.918568 0.288478 0.653021 0.144494
H7    H     H_    0.822373 0.555232 0.461687 0.121962
H8    H     H_    0.276260 0.666408 0.378321 0.143398
H9    H     H_    0.944202 0.633938 0.405082 0.133091
H10   H     H_    0.093598 0.717157 0.343734 0.151084
H11   H     H_    0.245777 0.405375 0.564994 0.212308
H12   H     H_    0.275138 0.452848 0.854890 0.130390
H13   H     H_    0.301559 0.500722 0.718204 0.163543
H14   H     H_    0.362481 0.443507 0.997186 0.164625
H15   H     H_    0.666632 0.416606 0.125128 0.151482
H16   H     H_    0.613612 0.415369 0.908912 0.121468
H17   H     H_    0.677712 0.488600 0.262610 0.157818
H18   H     H_    0.551059 0.315236 0.001700 0.136579
H19   H     H_    0.232603 0.451987 0.108666 0.147487
H20   H     H_    0.180273 0.346667 0.168611 0.179286
H21   H     H_    0.148159 0.341519 0.060786 0.198813
H22   H     H_    0.250954 0.218286 0.539306 0.150177
H23   H     H_    0.288227 0.877129 0.612016 0.150622
H24   H     H_    0.219648 0.040997 0.582623 0.135944
H25   H     H_    0.545290 0.160983 0.458307 0.151176
H26   H     H_    0.755079 0.784881 0.487180 0.151162
H27   H     H_    0.681991 0.089543 0.494237 0.135192
H28   H     H_    0.808031 0.969757 0.478018 0.142574
N1    N     N_R   0.774070 0.445420 0.541180 -0.100777
N2    N     N_R   0.226730 0.554050 0.459240 -0.131784
O1    O     O_R   0.631480 0.627510 0.519670 -0.612839
O2    O     O_R   0.455770 0.662400 0.493360 -0.614453
O3    O     O_R   0.598240 0.480510 0.398910 -0.614627
O4    O     O_R   0.422540 0.515400 0.372600 -0.618829
O5    O     O_R   0.544230 0.337600 0.506640 -0.613335
O6    O     O_R   0.368520 0.372490 0.480330 -0.635662
O7    O     O_R   0.577460 0.484600 0.627400 -0.613848
O8    O     O_R   0.401760 0.519490 0.601090 -0.642729
O9    O     O_3   0.302643 0.315180 0.104100 -0.601060
Zn1   Zn    Zn3+2 0.617320 0.476700 0.517570 0.938444
Zn2   Zn    Zn3+2 0.382680 0.523300 0.482430 0.921839

loop_
_geom_bond_atom_site_label_1
_geom_bond_atom_site_label_2
_ccdc_geom_bond_type
C27   C29   A    
C1    O2    A    
C41   C42   A    
C40   O9    S    
C35   C36   A    
C15   H2    S    
C7    C8    A    
C7    H28   S    
C4    O3    A    
C6    C19   A    
C29   C30   A    
C36   C37   A    
C3    H24   S    
C37   C38   A    
C41   H13   S    
C20   H6    S    
C10   C15   A    
C32   N1    A    
C30   C31   A    
C5    C17   A    
C2    C41   A    
C24   H9    S    
C23   C43   A    
C3    C18   A    
C32   H7    S    
C5    C16   S    
C11   C17   A    
C8    C9    A    
C37   O9    S    
C36   H1    S    
C31   H11   S    
C9    C10   A    
O6    Zn2   S    
C3    C13   A    
C2    C34   A    
C30   H5    S    
C4    C35   S    
C17   H25   S    
C40   H21   S    
C13   C14   A    
C28   O8    A    
C42   H12   S    
C20   C29   A    
C44   H18   S    
C6    H26   S    
C1    C19   S    
C8    H27   S    
C28   O7    A    
C24   C25   A    
C4    O4    A    
C5    C18   A    
C18   H22   S    
C16   O5    A    
C38   C44   S    
O5    Zn1   S    
C12   H17   S    
N2    Zn2   S    
C10   C19   A    
C23   C34   A    
C26   N2    A    
C12   C35   A    
C9    C11   A    
C6    C7    A    
C20   C33   A    
O3    Zn1   S    
O2    Zn2   S    
C40   H20   S    
C22   C24   A    
C42   C43   A    
C44   C45   D    
C45   H14   S    
C34   H4    S    
C27   C32   A    
C1    O1    A    
C26   C31   A    
C22   H10   S    
C25   C27   A    
O7    Zn1   S    
C21   N2    A    
C40   H19   S    
C12   C39   A    
C25   C26   A    
C43   C45   S    
C21   H8    S    
C11   C13   A    
C38   C39   A    
C39   H15   S    
C16   O6    A    
N1    Zn1   S    
C33   N1    A    
C23   H16   S    
O8    Zn2   S    
C33   H3    S    
C14   H23   S    
C14   C15   A    
C2    C28   S    
C21   C22   A    
O1    Zn1   S    
O4    Zn2   S    
