data_mof_unit_45434.cif
_audit_creation_date              2012-12-10T18:11:05-0500
_audit_creation_method            fapswitch 2.2
_symmetry_space_group_name_H-M    P1
_symmetry_Int_Tables_number       1
_space_group_crystal_system       triclinic
_cell_length_a                    10.780745
_cell_length_b                    9.418913
_cell_length_c                    10.619206
_cell_angle_alpha                 90.387444
_cell_angle_beta                  89.818425
_cell_angle_gamma                 90.134336
_cell_volume                      1078.27198645

loop_
_atom_site_label
_atom_site_type_symbol
_atom_type_description
_atom_site_fract_x
_atom_site_fract_y
_atom_site_fract_z
_atom_type_partial_charge
C1    C     C_R   0.260080 0.499636 0.497518 0.795687
C2    C     C_3   0.497054 0.498957 0.122375 -0.012353
C3    C     C_3   0.074746 0.547116 0.626553 -0.398243
C4    C     C_3   0.072671 0.346659 0.470579 -0.407564
C5    C     C_3   0.931898 0.533098 0.631798 0.289131
C6    C     C_3   0.930498 0.349167 0.454648 0.253575
C7    C     C_3   0.073429 0.602050 0.395143 -0.356711
C8    C     C_3   0.122894 0.498627 0.496723 -0.005178
C9    C     C_3   0.879023 0.499844 0.495694 -0.139755
C10   C     C_3   0.930569 0.610485 0.400854 -0.333439
C11   C     C_3   0.522926 0.084652 0.630405 -0.207422
C12   C     C_3   0.523064 0.917288 0.630351 -0.172700
C13   C     C_3   0.380122 0.083030 0.458925 -0.195073
C14   C     C_3   0.380034 0.915739 0.459130 -0.190322
C15   C     C_3   0.597847 0.083239 0.418688 -0.126119
C16   C     C_3   0.597686 0.915874 0.418391 -0.198673
C17   C     C_R   0.498124 0.499611 0.259302 0.809159
C18   C     C_R   0.740399 0.500036 0.497803 0.867946
C19   C     C_R   0.497495 0.500400 0.740747 0.847979
C20   C     C_3   0.392333 0.561535 0.043112 -0.173389
C21   C     C_3   0.502041 0.365064 0.039599 -0.136453
C22   C     C_3   0.397361 0.427747 0.957942 -0.193415
C23   C     C_3   0.496422 0.501251 0.877618 0.005209
C24   C     C_3   0.491280 0.635171 0.960341 -0.105235
C25   C     C_3   0.601014 0.438714 0.956993 -0.097379
C26   C     C_3   0.595933 0.572590 0.041876 -0.134084
Cu1   Cu    Cu3+1 0.499860 0.642410 0.500060 0.940249
Cu2   Cu    Cu3+1 0.499860 0.357590 0.500060 0.930753
H1    H     H_    0.316161 0.368755 0.920190 0.146592
H2    H     H_    0.902402 0.719547 0.427684 0.222369
H3    H     H_    0.891650 0.592691 0.305417 0.183027
H4    H     H_    0.449948 0.122372 0.696847 0.151920
H5    H     H_    0.450427 0.879665 0.696926 0.137606
H6    H     H_    0.613075 0.124767 0.667185 0.156030
H7    H     H_    0.613290 0.878643 0.666832 0.217446
H8    H     H_    0.303574 0.120462 0.521062 0.153694
H9    H     H_    0.303562 0.879165 0.521564 0.154226
H10   H     H_    0.584549 0.121576 0.320909 0.184633
H11   H     H_    0.583893 0.876427 0.320519 0.147175
H12   H     H_    0.690674 0.121103 0.449205 0.197319
H13   H     H_    0.690651 0.878181 0.447851 0.189920
H14   H     H_    0.359119 0.122052 0.362673 0.147901
H15   H     H_    0.358708 0.874925 0.363024 0.145988
H16   H     H_    0.307027 0.611539 0.081735 0.144741
H17   H     H_    0.506611 0.254464 0.074786 0.152290
H18   H     H_    0.486995 0.745795 0.925197 0.136817
H19   H     H_    0.686441 0.388688 0.918665 0.160940
H20   H     H_    0.677059 0.632281 0.078947 0.137737
H21   H     H_    0.104969 0.658800 0.643213 0.228550
H22   H     H_    0.119914 0.300106 0.386735 0.226291
H23   H     H_    0.116547 0.481904 0.702493 0.141963
H24   H     H_    0.096303 0.276288 0.550891 0.136451
H25   H     H_    0.909600 0.439986 0.691913 0.070936
H26   H     H_    0.891272 0.267799 0.519193 0.086917
H27   H     H_    0.112191 0.710508 0.409877 0.175463
H28   H     H_    0.103898 0.566025 0.300061 0.200904
N1    N     N_3   0.500250 0.143650 0.502780 -0.142911
N2    N     N_3   0.500250 0.856350 0.502780 -0.133803
O1    O     O_R   0.317570 0.620260 0.500070 -0.606958
O2    O     O_R   0.317570 0.379740 0.500070 -0.603888
O3    O     O_R   0.499850 0.620240 0.316900 -0.609885
O4    O     O_R   0.499850 0.379760 0.316900 -0.561665
O5    O     O_R   0.682190 0.620260 0.500030 -0.542712
O6    O     O_R   0.682190 0.379740 0.500030 -0.577178
O7    O     O_R   0.499910 0.620280 0.683200 -0.563735
O8    O     O_R   0.499910 0.379720 0.683200 -0.611344
S1    S     S_3+6 0.869405 0.684439 0.716085 -0.044410
O9    O     O_2   0.867615 0.815025 0.635725 -0.337113
O10   O     O_2   0.740769 0.651737 0.761168 -0.340435
O11   O     O_3   0.958758 0.716333 0.842800 -0.538059
H29   H     H_    0.915981 0.793457 0.889480 0.375834
S2    S     S_3+6 0.892101 0.290754 0.295862 -0.036383
O12   O     O_2   0.981278 0.352649 0.201680 -0.319122
O13   O     O_2   0.902924 0.131813 0.290139 -0.289568
O14   O     O_3   0.747491 0.335047 0.254286 -0.541461
H30   H     H_    0.756572 0.424072 0.206278 0.332768

loop_
_geom_bond_atom_site_label_1
_geom_bond_atom_site_label_2
_ccdc_geom_bond_type
C7    C10   S    
C22   H1    S    
C1    C8    S    
Cu2   O8    S    
C7    H27   S    
C5    S1    S    
C6    C9    S    
C3    H21   S    
C7    C8    S    
Cu2   N1    S    
C6    S2    S    
C4    H24   S    
C5    H25   S    
C24   C26   S    
C1    O1    A    
C18   O5    A    
C13   N1    S    
C15   C16   S    
C19   O8    A    
C4    C8    S    
Cu1   O3    S    
C17   O3    A    
C10   H3    S    
C20   C24   S    
C23   C24   S    
O11   H29   S    
C13   C14   S    
C9    C10   S    
C25   H19   S    
C26   H20   S    
C12   N2    S    
C21   C22   S    
C2    C17   S    
C15   N1    S    
C7    H28   S    
C6    H26   S    
S2    O14   S    
C13   H14   S    
C20   H16   S    
C21   H17   S    
Cu2   O2    S    
C14   N2    S    
C2    C20   S    
S1    O9    D    
C13   H8    S    
C4    C6    S    
C3    C8    S    
C1    O2    A    
C3    H23   S    
C25   C26   S    
C4    H22   S    
S1    O10   D    
C19   C23   S    
O14   H30   S    
C15   H10   S    
C5    C9    S    
Cu1   O7    S    
C17   O4    A    
C10   H2    S    
C2    C21   S    
C2    C26   S    
C16   N2    S    
C12   H7    S    
Cu1   O5    S    
Cu2   O6    S    
S2    O13   D    
C20   C22   S    
C11   H4    S    
C21   C25   S    
C11   H6    S    
S2    O12   D    
C3    C5    S    
Cu1   N2    S    
C11   C12   S    
S1    O11   S    
C24   H18   S    
Cu1   O1    S    
C14   H9    S    
C18   O6    A    
C19   O7    A    
C23   C25   S    
C15   H12   S    
C16   H11   S    
C9    C18   S    
Cu1   Cu2   S    
C22   C23   S    
C12   H5    S    
C11   N1    S    
C16   H13   S    
C14   H15   S    
Cu2   O4    S    
