data_mof_unit_62906.cif
_audit_creation_date              2013-03-05T16:31:42-0500
_audit_creation_method            fapswitch 2.2
_symmetry_space_group_name_H-M    P1
_symmetry_Int_Tables_number       1
_space_group_crystal_system       triclinic
_cell_length_a                    41.735797
_cell_length_b                    35.645007
_cell_length_c                    21.600497
_cell_angle_alpha                 89.950235
_cell_angle_beta                  58.623662
_cell_angle_gamma                 90.018158
_cell_volume                      27435.2940715

loop_
_atom_site_label
_atom_site_type_symbol
_atom_site_description
_atom_site_fract_x
_atom_site_fract_y
_atom_site_fract_z
_atom_type_partial_charge
O1    O     O_R   0.945620 0.531450 0.554380 -0.576198
O2    O     O_R   0.054380 0.531450 0.445620 -0.576183
O3    O     O_R   0.445620 0.031450 0.554380 -0.576198
O4    O     O_R   0.554380 0.031450 0.445620 -0.576181
O5    O     O_R   0.945570 0.468490 0.554430 -0.579320
O6    O     O_R   0.054430 0.468490 0.445570 -0.579261
O7    O     O_R   0.445570 0.968490 0.554430 -0.579321
O8    O     O_R   0.554430 0.968490 0.445570 -0.579272
C1    C     C_R   0.927601 0.499951 0.572614 0.833870
C2    C     C_R   0.072400 0.499980 0.427388 0.833730
C3    C     C_R   0.427601 0.999951 0.572613 0.833890
C4    C     C_R   0.572400 0.999981 0.427389 0.833773
O9    O     O_R   0.999990 0.531450 0.408860 -0.575463
O10   O     O_R   0.000010 0.531450 0.591140 -0.575676
O11   O     O_R   0.499990 0.031450 0.408860 -0.575502
O12   O     O_R   0.500010 0.031450 0.591140 -0.575676
O13   O     O_R   0.999940 0.468490 0.408900 -0.555308
O14   O     O_R   0.000060 0.468490 0.591100 -0.555435
O15   O     O_R   0.499940 0.968490 0.408900 -0.555330
O16   O     O_R   0.500060 0.968490 0.591100 -0.555443
C5    C     C_R   0.998835 0.500116 0.381034 0.826128
C6    C     C_R   0.001176 0.500093 0.618954 0.826329
C7    C     C_R   0.498835 0.000116 0.381035 0.826179
C8    C     C_R   0.501176 0.000093 0.618954 0.826319
Cu1   Cu    Cu3+1 0.000000 0.537250 0.500000 1.068469
Cu2   Cu    Cu3+1 0.500000 0.037250 0.500000 1.068438
Cu3   Cu    Cu3+1 0.000000 0.462700 0.500000 1.069508
Cu4   Cu    Cu3+1 0.500000 0.962700 0.500000 1.069487
C9    C     C_3   0.985782 0.540633 0.300766 0.177126
C10   C     C_3   0.014374 0.540559 0.698963 0.177047
C11   C     C_3   0.485757 0.040625 0.300794 0.177112
C12   C     C_3   0.514373 0.040559 0.698964 0.177050
H1    H     H_    0.007231 0.560883 0.296505 0.112554
H2    H     H_    0.993005 0.560851 0.703072 0.112732
H3    H     H_    0.507189 0.060890 0.296558 0.112583
H4    H     H_    0.493004 0.060851 0.703074 0.112727
C13   C     C_3   0.986705 0.542238 0.226652 0.209489
C14   C     C_3   0.013437 0.542182 0.773079 0.209669
C15   C     C_3   0.486688 0.042235 0.226672 0.209498
C16   C     C_3   0.513436 0.042182 0.773080 0.209670
H5    H     H_    0.056472 0.519773 0.242255 0.091921
H6    H     H_    0.943611 0.519821 0.757598 0.092011
H7    H     H_    0.556458 0.019810 0.242263 0.091951
H8    H     H_    0.443611 0.019819 0.757599 0.092007
H9    H     H_    0.061406 0.510206 0.134067 0.177334
H10   H     H_    0.938630 0.510251 0.865861 0.177288
H11   H     H_    0.561402 0.010231 0.134067 0.177343
H12   H     H_    0.438630 0.010250 0.865861 0.177288
C17   C     C_3   0.039556 0.494557 0.246793 0.128967
C18   C     C_3   0.960436 0.494574 0.753224 0.128779
C19   C     C_3   0.539560 0.994581 0.246790 0.128919
C20   C     C_3   0.460436 0.994573 0.753224 0.128777
C21   C     C_3   0.972398 0.469953 0.312554 -0.337587
C22   C     C_3   0.027505 0.469855 0.687639 -0.337338
C23   C     C_3   0.472417 0.969937 0.312534 -0.337573
C24   C     C_3   0.527505 0.969856 0.687638 -0.337382
C25   C     C_3   0.998711 0.500911 0.312318 -0.130741
C26   C     C_3   0.001304 0.500856 0.687667 -0.130661
C27   C     C_3   0.498710 0.000910 0.312319 -0.130744
C28   C     C_3   0.501304 0.000856 0.687667 -0.130636
H13   H     H_    0.981444 0.441740 0.319100 0.234107
H14   H     H_    0.018353 0.441657 0.681297 0.234147
H15   H     H_    0.481483 0.941729 0.319049 0.234109
H16   H     H_    0.518354 0.941658 0.681295 0.234128
H17   H     H_    0.943423 0.472668 0.359611 0.211070
H18   H     H_    0.056488 0.472512 0.640555 0.210948
H19   H     H_    0.443441 0.972630 0.359600 0.211069
H20   H     H_    0.556488 0.972514 0.640555 0.210934
C29   C     C_3   0.999424 0.501994 0.189676 0.040877
C30   C     C_3   0.000587 0.501960 0.810308 0.041714
C31   C     C_3   0.499423 0.001996 0.189677 0.040863
C32   C     C_3   0.500587 0.001959 0.810308 0.041737
C33   C     C_3   0.039139 0.491792 0.175840 -0.432639
C34   C     C_3   0.960841 0.491808 0.824199 -0.432794
C35   C     C_3   0.539142 0.991810 0.175838 -0.432591
C36   C     C_3   0.460841 0.991807 0.824199 -0.432792
C37   C     C_3   0.972321 0.471021 0.241488 -0.414294
C38   C     C_3   0.027592 0.470944 0.758697 -0.415234
C39   C     C_3   0.472333 0.971012 0.241475 -0.414309
C40   C     C_3   0.527592 0.970944 0.758696 -0.415257
H21   H     H_    0.943216 0.475040 0.253843 0.201144
H22   H     H_    0.056711 0.474931 0.746307 0.200693
H23   H     H_    0.443225 0.975023 0.253841 0.201157
H24   H     H_    0.556711 0.974931 0.746306 0.200681
H25   H     H_    0.981286 0.443124 0.214616 0.187363
H26   H     H_    0.018543 0.443062 0.785756 0.186795
H27   H     H_    0.481305 0.943119 0.214587 0.187345
H28   H     H_    0.518544 0.943063 0.785755 0.186773
H29   H     H_    0.046691 0.462947 0.153007 0.225318
H30   H     H_    0.953199 0.462972 0.847203 0.225109
H31   H     H_    0.546705 0.962966 0.153001 0.225356
H32   H     H_    0.453200 0.962972 0.847202 0.225108
C41   C     C_R   0.672013 0.482619 0.876802 -0.141884
C42   C     C_R   0.327930 0.482599 0.123527 -0.141920
C43   C     C_R   0.172014 0.982608 0.876778 -0.141912
C44   C     C_R   0.827929 0.982583 0.123556 -0.141922
H33   H     H_    0.686223 0.467618 0.899312 0.152437
H34   H     H_    0.313663 0.467475 0.101286 0.152358
H35   H     H_    0.186225 0.967595 0.899272 0.152437
H36   H     H_    0.813660 0.967444 0.101336 0.152366
C45   C     C_R   0.632871 0.482880 0.914285 -0.180661
C46   C     C_R   0.367073 0.482801 0.086023 -0.180771
C47   C     C_R   0.132872 0.982868 0.914265 -0.180652
C48   C     C_R   0.867073 0.982785 0.086047 -0.180736
H37   H     H_    0.617516 0.467846 0.965243 0.167836
H38   H     H_    0.382375 0.467607 0.035318 0.167776
H39   H     H_    0.117518 0.967822 0.965209 0.167826
H40   H     H_    0.882373 0.967576 0.035360 0.167765
C49   C     C_R   0.613667 0.501722 0.885955 -0.017850
C50   C     C_R   0.386345 0.501791 0.114026 -0.017988
C51   C     C_R   0.113666 0.001724 0.885955 -0.017836
C52   C     C_R   0.886347 0.001794 0.114026 -0.017972
C53   C     C_R   0.634630 0.521256 0.819044 0.142988
C54   C     C_R   0.365462 0.521545 0.180592 0.144341
C55   C     C_R   0.134627 0.021275 0.819063 0.142911
C56   C     C_R   0.865466 0.021569 0.180567 0.144277
C57   C     C_R   0.674025 0.520748 0.782125 -0.121073
C58   C     C_R   0.326064 0.521095 0.217541 -0.121001
C59   C     C_R   0.174022 0.020768 0.782140 -0.121073
C60   C     C_R   0.826067 0.021119 0.217521 -0.120977
H41   H     H_    0.690369 0.535453 0.730938 0.144119
H42   H     H_    0.309779 0.535964 0.268476 0.144109
H43   H     H_    0.190364 0.035485 0.730967 0.144141
H44   H     H_    0.809784 0.036003 0.268438 0.144135
C61   C     C_R   0.692598 0.501435 0.810662 0.091567
C62   C     C_R   0.307415 0.501625 0.189351 0.091432
C63   C     C_R   0.192597 0.001439 0.810655 0.091557
C64   C     C_R   0.807417 0.001629 0.189358 0.091415
C65   C     C_1   0.732911 0.500850 0.771466 -0.028155
C66   C     C_1   0.267099 0.501076 0.228588 -0.028023
C67   C     C_1   0.232910 0.000853 0.771455 -0.028165
C68   C     C_1   0.767100 0.001079 0.228599 -0.028012
C69   C     C_1   0.766699 0.500334 0.737804 -0.025060
C70   C     C_1   0.233309 0.500562 0.262262 -0.024942
C71   C     C_1   0.266699 0.000337 0.737793 -0.025061
C72   C     C_1   0.733309 0.000565 0.262275 -0.024931
C73   C     C_R   0.826871 0.465260 0.679319 0.179576
C74   C     C_R   0.173114 0.465430 0.320730 0.179793
C75   C     C_R   0.326870 0.965262 0.679339 0.179573
C76   C     C_R   0.673115 0.965432 0.320744 0.179794
C77   C     C_R   0.866273 0.465732 0.638495 -0.115901
C78   C     C_R   0.133712 0.465853 0.361531 -0.116091
C79   C     C_R   0.366273 0.965733 0.638517 -0.115887
C80   C     C_R   0.633713 0.965854 0.361540 -0.116083
H45   H     H_    0.881472 0.439447 0.625138 0.171665
H46   H     H_    0.118500 0.439552 0.374876 0.171682
H47   H     H_    0.381471 0.939450 0.625184 0.171684
H48   H     H_    0.618502 0.939553 0.374886 0.171666
C81   C     C_R   0.886105 0.499802 0.615106 -0.062979
C82   C     C_R   0.113897 0.499894 0.384911 -0.063188
C83   C     C_R   0.386105 0.999802 0.615102 -0.063001
C84   C     C_R   0.613897 0.999894 0.384916 -0.063150
C85   C     C_R   0.865981 0.533626 0.633101 -0.149327
C86   C     C_R   0.134040 0.533740 0.366930 -0.149251
C87   C     C_R   0.365982 0.033626 0.633069 -0.149307
C88   C     C_R   0.634040 0.033741 0.366933 -0.149224
H49   H     H_    0.880475 0.560293 0.615837 0.180072
H50   H     H_    0.119559 0.560385 0.384190 0.180218
H51   H     H_    0.380476 0.060292 0.615784 0.180090
H52   H     H_    0.619558 0.060386 0.384189 0.180213
C89   C     C_R   0.826824 0.533426 0.673571 -0.178950
C90   C     C_R   0.173200 0.533589 0.326481 -0.178776
C91   C     C_R   0.326824 0.033427 0.673535 -0.178957
C92   C     C_R   0.673200 0.033591 0.326488 -0.178760
H53   H     H_    0.811842 0.559846 0.686697 0.157211
H54   H     H_    0.188198 0.560024 0.313363 0.157458
H55   H     H_    0.311842 0.059846 0.686638 0.157208
H56   H     H_    0.688197 0.060026 0.313368 0.157464
C93   C     C_R   0.807126 0.499503 0.696815 0.121799
C94   C     C_R   0.192880 0.499693 0.303247 0.121655
C95   C     C_R   0.307125 0.999505 0.696805 0.121796
C96   C     C_R   0.692880 0.999695 0.303259 0.121653
O17   O     O_R   0.968510 0.554330 0.031500 -0.589584
O18   O     O_R   0.031490 0.554330 0.968500 -0.589610
O19   O     O_R   0.468510 0.054330 0.031500 -0.589588
O20   O     O_R   0.531490 0.054330 0.968500 -0.589609
C97   C     C_R   0.000014 0.572335 0.999991 0.762619
C98   C     C_R   0.500014 0.072335 0.999991 0.762620
O21   O     O_R   0.968510 0.499950 0.122650 -0.592254
O22   O     O_R   0.031490 0.499950 0.877350 -0.592827
O23   O     O_R   0.468510 0.999950 0.122650 -0.592232
O24   O     O_R   0.531490 0.999950 0.877350 -0.592816
O25   O     O_R   0.031450 0.499990 0.059700 -0.585611
O26   O     O_R   0.968550 0.499990 0.940300 -0.585964
O27   O     O_R   0.531450 0.999990 0.059700 -0.585619
O28   O     O_R   0.468550 0.999990 0.940300 -0.585986
C99   C     C_R   0.999907 0.500358 0.120298 0.812210
C100  C     C_R   0.000095 0.500341 0.879700 0.811395
C101  C     C_R   0.499906 0.000360 0.120298 0.812223
C102  C     C_R   0.500095 0.000341 0.879700 0.811379
Cu5   Cu    Cu3+1 0.962700 0.499940 0.037300 0.968107
Cu6   Cu    Cu3+1 0.037300 0.499940 0.962700 0.967737
Cu7   Cu    Cu3+1 0.462700 0.999940 0.037300 0.968114
Cu8   Cu    Cu3+1 0.537300 0.999940 0.962700 0.967731
O29   O     O_R   0.968500 0.445560 0.031500 -0.580077
O30   O     O_R   0.031500 0.445560 0.968500 -0.579845
O31   O     O_R   0.468500 0.945560 0.031500 -0.580080
O32   O     O_R   0.531500 0.945560 0.968500 -0.579860
C103  C     C_R   0.999971 0.427595 0.999891 0.842279
C104  C     C_R   0.499971 0.927595 0.999886 0.842302
O33   O     O_R   0.499920 0.445680 0.947340 -0.549527
O34   O     O_R   0.500080 0.445680 0.052660 -0.549516
O35   O     O_R   0.999920 0.945680 0.947340 -0.549529
O36   O     O_R   0.000080 0.945680 0.052660 -0.549516
C105  C     C_R   0.500005 0.427941 0.000018 0.927457
C106  C     C_R   0.000005 0.927941 0.000018 0.927453
O37   O     O_R   0.554340 0.500070 0.892900 -0.556867
O38   O     O_R   0.445660 0.500070 0.107100 -0.557074
O39   O     O_R   0.054340 0.000070 0.892900 -0.556896
O40   O     O_R   0.945660 0.000070 0.107100 -0.557095
O41   O     O_R   0.554350 0.500090 0.998410 -0.592962
O42   O     O_R   0.445650 0.500090 0.001590 -0.593240
O43   O     O_R   0.054350 0.000090 0.998410 -0.592949
O44   O     O_R   0.945650 0.000090 0.001590 -0.593201
C107  C     C_R   0.572134 0.500877 0.927682 0.821366
C108  C     C_R   0.427871 0.500887 0.072309 0.820839
C109  C     C_R   0.072134 0.000878 0.927682 0.821330
C110  C     C_R   0.927871 0.000888 0.072309 0.820845
Cu9   Cu    Cu3+1 0.499970 0.500070 0.937560 1.034340
Cu10  Cu    Cu3+1 0.500030 0.500070 0.062440 1.034457
Cu11  Cu    Cu3+1 0.999970 0.000070 0.937560 1.034333
Cu12  Cu    Cu3+1 0.000030 0.000070 0.062440 1.034484
O45   O     O_R   0.500010 0.554450 0.947200 -0.589646
O46   O     O_R   0.499990 0.554450 0.052800 -0.589057
O47   O     O_R   0.000010 0.054450 0.947200 -0.589620
O48   O     O_R   0.999990 0.054450 0.052800 -0.588991
C111  C     C_R   0.499908 0.572251 0.000044 0.805391
C112  C     C_R   0.999913 0.072250 0.000039 0.805313
C113  C     C_R   0.525520 0.327025 0.937535 -0.192733
C114  C     C_R   0.474596 0.326939 0.062606 -0.192810
C115  C     C_R   0.025521 0.827025 0.937535 -0.192734
C116  C     C_R   0.974595 0.826939 0.062605 -0.192808
H57   H     H_    0.545547 0.311593 0.889538 0.186291
H58   H     H_    0.454582 0.311439 0.110610 0.186261
H59   H     H_    0.045547 0.811593 0.889539 0.186287
H60   H     H_    0.954582 0.811439 0.110609 0.186259
C117  C     C_R   0.526270 0.366394 0.936913 0.289093
C118  C     C_R   0.473806 0.366307 0.063199 0.289075
C119  C     C_R   0.026270 0.866394 0.936914 0.289092
C120  C     C_R   0.973806 0.866307 0.063199 0.289073
C121  C     C_R   0.500027 0.386455 0.000047 -0.276228
C122  C     C_R   0.000027 0.886455 0.000047 -0.276227
C123  C     C_R   0.500068 0.307405 0.000076 0.005118
C124  C     C_R   0.000068 0.807405 0.000076 0.005121
C125  C     C_1   0.500080 0.267013 0.000074 0.020798
C126  C     C_1   0.000080 0.767012 0.000075 0.020799
C127  C     C_1   0.000084 0.733187 0.000063 -0.046613
C128  C     C_1   0.500084 0.233187 0.000063 -0.046614
C129  C     C_R   0.034029 0.673138 0.964243 -0.138223
C130  C     C_R   0.966104 0.673104 0.035831 -0.138380
C131  C     C_R   0.534029 0.173138 0.964243 -0.138221
C132  C     C_R   0.466104 0.173104 0.035831 -0.138386
H61   H     H_    0.060490 0.688119 0.936354 0.144401
H62   H     H_    0.939655 0.688056 0.063735 0.144325
H63   H     H_    0.560490 0.188119 0.936354 0.144403
H64   H     H_    0.439655 0.188056 0.063734 0.144323
C133  C     C_R   0.034051 0.633911 0.964190 -0.182212
C134  C     C_R   0.966048 0.633879 0.035838 -0.182160
C135  C     C_R   0.534051 0.133911 0.964190 -0.182210
C136  C     C_R   0.466048 0.133879 0.035838 -0.182164
H65   H     H_    0.060686 0.619334 0.936059 0.160822
H66   H     H_    0.939398 0.619278 0.063956 0.160849
H67   H     H_    0.560686 0.119334 0.936059 0.160824
H68   H     H_    0.439398 0.119278 0.063956 0.160847
C137  C     C_R   0.000040 0.613847 1.000000 -0.045678
C138  C     C_R   0.500040 0.113847 1.000000 -0.045678
C139  C     C_R   0.000074 0.692809 0.000049 0.132625
C140  C     C_R   0.500074 0.192809 0.000049 0.132625
C141  C     C_R   0.494748 0.673097 0.060716 0.316739
C142  C     C_R   0.498978 0.672667 0.943077 0.324434
C143  C     C_R   0.994156 0.173086 0.061190 0.316648
C144  C     C_R   0.999613 0.172670 0.942455 0.324631
C145  C     C_R   0.496429 0.633778 0.058817 -0.227863
C146  C     C_R   0.500578 0.633402 0.942912 -0.230073
C147  C     C_R   0.995855 0.133767 0.059308 -0.227905
C148  C     C_R   0.001193 0.133406 0.942342 -0.230290
H69   H     H_    0.494933 0.618783 0.103878 0.205252
H70   H     H_    0.502424 0.618159 0.897817 0.205673
H71   H     H_    0.993877 0.118761 0.104792 0.205113
H72   H     H_    0.003516 0.118167 0.896825 0.205478
C149  C     C_R   0.499209 0.613715 0.000436 -0.155158
C150  C     C_R   0.999226 0.113712 0.000413 -0.154882
C151  C     C_R   0.496402 0.692688 0.002061 -0.126813
C152  C     C_R   0.996426 0.192684 0.001977 -0.126847
C153  C     C_1   0.497848 0.733067 0.999998 0.204771
C154  C     C_1   0.997860 0.233065 0.999970 0.204723
C155  C     C_1   0.998715 0.266806 0.997765 0.205566
C156  C     C_1   0.498713 0.766808 0.997760 0.205606
C157  C     C_R   0.033751 0.326764 0.959723 0.320007
C158  C     C_R   0.964896 0.327220 0.031321 0.328150
C159  C     C_R   0.533769 0.826760 0.960227 0.320155
C160  C     C_R   0.464904 0.827227 0.030749 0.328024
C161  C     C_R   0.033567 0.366084 0.962636 -0.222945
C162  C     C_R   0.965721 0.366487 0.033159 -0.225530
C163  C     C_R   0.533576 0.866080 0.963131 -0.222992
C164  C     C_R   0.465720 0.866493 0.032611 -0.225362
H73   H     H_    0.060006 0.381089 0.935406 0.204913
H74   H     H_    0.939472 0.381763 0.060759 0.205283
H75   H     H_    0.560020 0.881079 0.936322 0.204931
H76   H     H_    0.439470 0.881775 0.059793 0.205361
C165  C     C_R   0.999792 0.386148 0.998911 -0.165495
C166  C     C_R   0.499793 0.886149 0.998892 -0.165596
C167  C     C_R   0.999155 0.307185 0.994949 -0.126446
C168  C     C_R   0.499169 0.807186 0.994911 -0.126444
N1    N     N_R   0.058209 0.461857 0.255939 0.154031
O49   O     O_R   0.047840 0.427788 0.253065 -0.339497
O50   O     O_R   0.087154 0.466843 0.262614 -0.366043
N2    N     N_R   0.941672 0.461907 0.744273 0.153914
O51   O     O_R   0.951916 0.427820 0.747378 -0.338482
O52   O     O_R   0.912751 0.466945 0.737547 -0.365943
N3    N     N_R   0.558234 0.961896 0.255921 0.154021
O53   O     O_R   0.547887 0.927819 0.253037 -0.339379
O54   O     O_R   0.587177 0.966905 0.262594 -0.366033
N4    N     N_R   0.441673 0.961906 0.744273 0.153925
O55   O     O_R   0.451918 0.927819 0.747377 -0.338450
O56   O     O_R   0.412752 0.966943 0.737547 -0.365939
C169  C     C_3   0.615971 0.543678 0.787233 -0.780902
H77   H     H_    0.595496 0.563631 0.828228 0.226190
H78   H     H_    0.636659 0.560292 0.739376 0.229346
H79   H     H_    0.601457 0.524571 0.769113 0.261064
C170  C     C_3   0.384221 0.544144 0.211964 -0.784674
H80   H     H_    0.404759 0.563975 0.170599 0.225036
H81   H     H_    0.363602 0.560905 0.259537 0.229364
H82   H     H_    0.398684 0.525149 0.230384 0.260977
C171  C     C_3   0.115964 0.043714 0.787280 -0.780800
H83   H     H_    0.095489 0.063659 0.828298 0.226109
H84   H     H_    0.136650 0.060340 0.739439 0.229450
H85   H     H_    0.101449 0.024619 0.769145 0.261035
C172  C     C_3   0.884229 0.044188 0.211904 -0.784559
H86   H     H_    0.904768 0.064009 0.170513 0.224955
H87   H     H_    0.863612 0.060962 0.259458 0.229464
H88   H     H_    0.898693 0.025207 0.230344 0.260947
C173  C     C_3   0.806353 0.428352 0.703690 -0.807671
H89   H     H_    0.826046 0.404232 0.685487 0.239573
H90   H     H_    0.788806 0.427613 0.763810 0.242601
H91   H     H_    0.788027 0.424975 0.680926 0.239276
C174  C     C_3   0.193608 0.428550 0.296370 -0.808702
H92   H     H_    0.173900 0.404410 0.314562 0.239416
H93   H     H_    0.211164 0.427886 0.236251 0.242498
H94   H     H_    0.211924 0.425142 0.319152 0.239250
C175  C     C_3   0.306351 0.928356 0.703740 -0.807669
H95   H     H_    0.326045 0.904236 0.685558 0.239579
H96   H     H_    0.288803 0.927630 0.763860 0.242609
H97   H     H_    0.288027 0.924967 0.680975 0.239261
C176  C     C_3   0.693610 0.928552 0.296388 -0.808690
H98   H     H_    0.673903 0.904411 0.314582 0.239419
H99   H     H_    0.711167 0.927886 0.236270 0.242522
H100  H     H_    0.711925 0.925146 0.319174 0.239227
N5    N     N_R   0.949903 0.553128 0.364216 0.131014
O57   O     O_R   0.919131 0.533808 0.389269 -0.390220
O58   O     O_R   0.948715 0.584602 0.395846 -0.339342
N6    N     N_R   0.050305 0.552979 0.635438 0.130868
O59   O     O_R   0.081008 0.533610 0.610566 -0.390398
O60   O     O_R   0.051613 0.584434 0.603552 -0.339393
N7    N     N_R   0.449866 0.053092 0.364248 0.130974
O61   O     O_R   0.419106 0.033755 0.389259 -0.390221
O62   O     O_R   0.448654 0.084557 0.395924 -0.339366
N8    N     N_R   0.550304 0.052980 0.635439 0.130871
O63   O     O_R   0.581007 0.033612 0.610566 -0.390406
O64   O     O_R   0.551611 0.084436 0.603555 -0.339388
N9    N     N_R   0.554684 0.385355 0.872776 0.138667
O65   O     O_R   0.566074 0.371212 0.809076 -0.327615
O66   O     O_R   0.573212 0.413305 0.877958 -0.372029
N10   N     N_R   0.445371 0.385176 0.127320 0.138617
O67   O     O_R   0.433973 0.370967 0.191030 -0.327755
O68   O     O_R   0.426842 0.413109 0.122114 -0.372020
N11   N     N_R   0.054685 0.885355 0.872777 0.138668
O69   O     O_R   0.066076 0.871212 0.809077 -0.327622
O70   O     O_R   0.073212 0.913305 0.877959 -0.372028
N12   N     N_R   0.945371 0.885176 0.127320 0.138619
O71   O     O_R   0.933972 0.870967 0.191030 -0.327756
O72   O     O_R   0.926841 0.913109 0.122113 -0.372025
N13   N     N_R   0.491497 0.692460 0.122317 0.137761
O73   O     O_R   0.504480 0.677198 0.159646 -0.318723
O74   O     O_R   0.472197 0.723318 0.146154 -0.320251
N14   N     N_R   0.500170 0.691566 0.882868 0.144308
O75   O     O_R   0.517356 0.676183 0.818897 -0.317708
O76   O     O_R   0.480772 0.721948 0.892913 -0.295734
N15   N     N_R   0.990243 0.192440 0.123355 0.137548
O77   O     O_R   0.002621 0.177154 0.161687 -0.318993
O78   O     O_R   0.970916 0.223309 0.146630 -0.319451
N16   N     N_R   0.001446 0.191579 0.881655 0.144770
O79   O     O_R   0.019170 0.176221 0.817670 -0.317481
O80   O     O_R   0.982126 0.221943 0.891045 -0.296546
N17   N     N_R   0.069210 0.307389 0.921081 0.137521
O81   O     O_R   0.099216 0.322671 0.914258 -0.318856
O82   O     O_R   0.072655 0.276503 0.886054 -0.320998
N18   N     N_R   0.929100 0.308334 0.066862 0.145126
O83   O     O_R   0.900118 0.323731 0.122401 -0.317466
O84   O     O_R   0.924160 0.277945 0.039488 -0.298054
N19   N     N_R   0.569240 0.807378 0.922165 0.137738
O85   O     O_R   0.599101 0.822646 0.916014 -0.318522
O86   O     O_R   0.572875 0.776496 0.886995 -0.321893
N20   N     N_R   0.429107 0.808348 0.065730 0.144684
O87   O     O_R   0.399971 0.823768 0.120922 -0.317801
O88   O     O_R   0.424354 0.777943 0.038136 -0.297195
C177  C     C_3   0.948306 0.554863 0.237519 -0.655120
H101  H     H_    0.950549 0.560614 0.184897 0.214422
H102  H     H_    0.925793 0.533912 0.267123 0.242438
H103  H     H_    0.938978 0.581667 0.268125 0.248245
C178  C     C_3   0.051869 0.554770 0.762156 -0.655015
H104  H     H_    0.049629 0.560562 0.814746 0.214476
H105  H     H_    0.074315 0.533780 0.732742 0.242303
H106  H     H_    0.061292 0.581546 0.731339 0.248228
C179  C     C_3   0.448288 0.054850 0.237530 -0.655074
H107  H     H_    0.450536 0.060612 0.184905 0.214419
H108  H     H_    0.425782 0.033888 0.267105 0.242441
H109  H     H_    0.438946 0.081646 0.268160 0.248234
C180  C     C_3   0.551868 0.054770 0.762157 -0.655008
H110  H     H_    0.549628 0.060563 0.814747 0.214475
H111  H     H_    0.574315 0.033781 0.732741 0.242299
H112  H     H_    0.561290 0.081546 0.731340 0.248232
C181  C     C_3   0.015269 0.572935 0.177272 -0.890265
H113  H     H_    0.043270 0.569040 0.170516 0.219692
H114  H     H_    0.018784 0.573255 0.122652 0.239054
H115  H     H_    0.005327 0.601180 0.201610 0.255674
C182  C     C_3   0.984962 0.572918 0.822249 -0.890555
H116  H     H_    0.956954 0.569056 0.829005 0.219662
H117  H     H_    0.981434 0.573250 0.876879 0.239089
H118  H     H_    0.994994 0.601148 0.797735 0.255650
C183  C     C_3   0.515244 0.072941 0.177312 -0.890328
H119  H     H_    0.543243 0.069057 0.170571 0.219699
H120  H     H_    0.518767 0.073262 0.122685 0.239049
H121  H     H_    0.505290 0.101183 0.201658 0.255674
C184  C     C_3   0.484961 0.072918 0.822251 -0.890563
H122  H     H_    0.456952 0.069055 0.829007 0.219659
H123  H     H_    0.481433 0.073250 0.876881 0.239092
H124  H     H_    0.494992 0.101148 0.797737 0.255651

loop_
_geom_bond_atom_site_label_1
_geom_bond_atom_site_label_2
_geom_bond_distance
_ccdc_geom_bond_type
C161  H73   1.082989 S    
C129  H61   1.083496 S    
C23   C27   1.554705 S    
C184  H122  1.108559 S    
C78   H46   1.083358 S    
O28   Cu7   1.979134 S    
C136  H68   1.082817 S    
C39   H27   1.113931 S    
C174  H92   1.110773 S    
C173  H89   1.110775 S    
O41   Cu10  1.946144 S    
C1    C81   1.478703 S    
N16   O79   1.301559 A    
C143  N15   1.441898 S    
C133  H65   1.082819 S    
C130  C139  1.399340 A    
C162  H74   1.083010 S    
C135  H67   1.082816 S    
C177  H102  1.105706 S    
C43   H35   1.083550 S    
C16   C180  1.560461 S    
Cu11  O47   1.949797 S    
O47   C112  1.304502 A    
C53   C169  1.508003 S    
C10   C14   1.582042 S    
C11   C27   1.580586 S    
C147  C150  1.401583 A    
C142  C146  1.401116 A    
C103  C165  1.477628 S    
N8    O63   1.300637 A    
C148  H72   1.082966 S    
C43   C47   1.395378 A    
C30   C34   1.566462 S    
C75   C95   1.410281 A    
O24   Cu8   1.980707 S    
C83   C87   1.404147 A    
O4    C4    1.292998 A    
C15   C179  1.560431 S    
C77   H45   1.083360 S    
C120  N12   1.438602 S    
C181  H114  1.110581 S    
C66   C70   1.204190 T    
C159  C168  1.416069 A    
H5    C17   1.115048 S    
O3    Cu2   1.948527 S    
C51   C55   1.421374 A    
Cu5   Cu6   2.658210 S    
C92   H56   1.083707 S    
C144  N16   1.441769 S    
C133  C137  1.407056 A    
O33   Cu9   1.949911 S    
C41   C45   1.395377 A    
C163  H75   1.082985 S    
O16   Cu4   1.980072 S    
N4    O55   1.301388 A    
O17   Cu5   1.949573 S    
C157  C161  1.402876 A    
O7    Cu4   1.950629 S    
C85   C89   1.395503 A    
O28   C102  1.285433 A    
C169  H79   1.109502 S    
C50   C108  1.480031 S    
C97   C137  1.479685 S    
O43   Cu12  1.946144 S    
C38   H22   1.109027 S    
O4    Cu2   1.948896 S    
N7    O61   1.300634 A    
C88   H52   1.082880 S    
N6    O59   1.300634 A    
O26   Cu5   1.979134 S    
O9    C5    1.281531 A    
C176  H100  1.110392 S    
O18   C97   1.292711 A    
C13   C177  1.560426 S    
C163  C166  1.401379 A    
C65   C69   1.204157 T    
C59   H43   1.084399 S    
C44   C48   1.395396 A    
O8    Cu4   1.950261 S    
C184  H124  1.111839 S    
C17   C33   1.544998 S    
C113  C117  1.403537 A    
C174  H94   1.110391 S    
C132  C136  1.398173 A    
C47   H39   1.083338 S    
C173  H91   1.110392 S    
C157  N17   1.441905 S    
C14   C182  1.558596 S    
C6    C26   1.487289 S    
C86   H50   1.082880 S    
C11   N7    1.477655 S    
O39   C109  1.303007 A    
C34   H30   1.113078 S    
C40   H28   1.113935 S    
C73   C173  1.506604 S    
C179  H107  1.109788 S    
C148  C150  1.401476 A    
C183  H120  1.110582 S    
C114  H58   1.083964 S    
C63   C67   1.436915 S    
O3    C3    1.292897 A    
N20   O87   1.301559 A    
C61   C65   1.436913 S    
O21   Cu5   1.980703 S    
C42   C46   1.395395 A    
C170  H80   1.110753 S    
C125  C128  1.205721 T    
C62   C66   1.436971 S    
C141  C151  1.415994 A    
O32   C104  1.292656 A    
C158  C167  1.415438 A    
O24   C102  1.284678 A    
C180  H110  1.109792 S    
C45   C49   1.406508 A    
O19   Cu7   1.949573 S    
C89   H53   1.083713 S    
N17   O82   1.301322 A    
C144  C152  1.415348 A    
N5    O57   1.300631 A    
O40   Cu12  1.949435 S    
C9    H1    1.115574 S    
H12   C36   1.110887 S    
C29   C37   1.558751 S    
C31   C39   1.558749 S    
N12   O71   1.301378 A    
C7    C27   1.487259 S    
C75   C175  1.506605 S    
C12   H4    1.115579 S    
C18   C34   1.545028 S    
O45   C111  1.304529 A    
C116  H60   1.083964 S    
C17   C25   1.564916 S    
N10   O67   1.301379 A    
C58   H42   1.084395 S    
O34   Cu10  1.950278 S    
C171  H84   1.110873 S    
C162  C165  1.401274 A    
C81   C85   1.404145 A    
C20   C28   1.564848 S    
O5    Cu3   1.950629 S    
C75   C79   1.404349 A    
N18   O83   1.301556 A    
N1    O50   1.301150 A    
C23   H15   1.108799 S    
C24   H16   1.108788 S    
C21   H17   1.106902 S    
C29   C99   1.489419 S    
C30   C100  1.489376 S    
C89   C93   1.399497 A    
H8    C20   1.115047 S    
O20   C98   1.292711 A    
C37   H25   1.113929 S    
C9    N5    1.477656 S    
C172  H87   1.110871 S    
C134  H66   1.082817 S    
O30   C103  1.292662 A    
C105  C121  1.478794 S    
C32   C102  1.489376 S    
C182  H117  1.110594 S    
N2    O52   1.301151 A    
O7    C3    1.291841 A    
O29   C103  1.291847 A    
C175  H96   1.110416 S    
C10   H2    1.115580 S    
C87   H51   1.082878 S    
O13   Cu3   1.979720 S    
C84   C88   1.404156 A    
C160  C164  1.401174 A    
O44   C110  1.305619 A    
C179  H109  1.111199 S    
C48   C52   1.406415 A    
C87   C91   1.395505 A    
C24   H20   1.106904 S    
C56   C60   1.405147 A    
O5    C1    1.291841 A    
Cu11  Cu12  2.698773 S    
C13   C29   1.593266 S    
C68   C72   1.204193 T    
C170  H82   1.109498 S    
C180  H112  1.111195 S    
N8    O64   1.301517 A    
O15   Cu4   1.979720 S    
H6    C18   1.115047 S    
C53   C57   1.405112 A    
C3    C83   1.478710 S    
N7    O62   1.301518 A    
Cu7   Cu8   2.658210 S    
C183  H121  1.111840 S    
C55   C59   1.405118 A    
N3    O54   1.301148 A    
O10   C6    1.281376 A    
C92   C96   1.399540 A    
N5    O58   1.301518 A    
C161  C165  1.401391 A    
C41   H33   1.083553 S    
C52   C56   1.421279 A    
C178  H106  1.111198 S    
O23   Cu7   1.980703 S    
N19   O86   1.301317 A    
C126  C127  1.205721 T    
C52   C110  1.480012 S    
C16   C32   1.593214 S    
O14   C6    1.289765 A    
C86   C90   1.395588 A    
C20   C36   1.545028 S    
C18   N2    1.471047 S    
C98   C138  1.479685 S    
O27   C101  1.285413 A    
C22   H18   1.106904 S    
C142  N14   1.441780 S    
C24   C40   1.537296 S    
C117  C121  1.420380 A    
C129  C139  1.399397 A    
C152  C154  1.440255 S    
C115  C124  1.395022 A    
H11   C35   1.110884 S    
C32   C40   1.558825 S    
C135  C138  1.407056 A    
C177  H101  1.109783 S    
Cu8   O32   1.949177 S    
C160  N20   1.441798 S    
C104  C166  1.477615 S    
C44   H36   1.083551 S    
C79   C83   1.406409 A    
C124  C126  1.439788 S    
C113  H57   1.083968 S    
Cu5   O29   1.949546 S    
C70   C94   1.440911 S    
O33   C105  1.302886 A    
C115  H59   1.083969 S    
C51   C109  1.480195 S    
C57   C61   1.397094 A    
C119  N11   1.438573 S    
O18   Cu6   1.949943 S    
C117  N9    1.438570 S    
C130  H62   1.083502 S    
C14   C30   1.593213 S    
C14   C178  1.560461 S    
C15   C183  1.558563 S    
C181  H113  1.108556 S    
O39   Cu11  1.949435 S    
C74   C174  1.506623 S    
H10   C34   1.110884 S    
O27   Cu8   1.979134 S    
C40   H24   1.109026 S    
O25   Cu6   1.979134 S    
N15   O77   1.301582 A    
N14   O75   1.301551 A    
N9    O66   1.301124 A    
C118  C121  1.420376 A    
C183  H119  1.108554 S    
C20   N4    1.471048 S    
Cu6   O30   1.949177 S    
C17   N1    1.471052 S    
N13   O74   1.301308 A    
C12   N8    1.477669 S    
O21   C99   1.284719 A    
C42   H34   1.083547 S    
N4    O56   1.301153 A    
C23   H19   1.106909 S    
C44   C64   1.396072 A    
C47   C51   1.406502 A    
C169  H78   1.110874 S    
C69   C93   1.440846 S    
O22   C100  1.284678 A    
C131  C135  1.398252 A    
C90   H54   1.083707 S    
O23   C101  1.284718 A    
C132  C140  1.399343 A    
C72   C96   1.440919 S    
O34   C105  1.302971 A    
N6    O60   1.301518 A    
C29   C33   1.566433 S    
C54   C170  1.508002 S    
C71   C95   1.440850 S    
O8    C4    1.291767 A    
C176  H99   1.110417 S    
C91   C95   1.399500 A    
C80   H48   1.083358 S    
C158  C162  1.401168 A    
C184  H123  1.110591 S    
C146  C149  1.401494 A    
C111  C149  1.478209 S    
C174  H93   1.110418 S    
C178  H104  1.109791 S    
O19   C98   1.292587 A    
C19   N3    1.471051 S    
C173  H90   1.110417 S    
O12   Cu2   1.979528 S    
O35   C106  1.302886 A    
C18   C26   1.564849 S    
O1    C1    1.292897 A    
C74   C78   1.404311 A    
C177  H103  1.111199 S    
Cu9   Cu10  2.698773 S    
C21   C25   1.554701 S    
C22   H14   1.108787 S    
C145  H69   1.082948 S    
C24   C28   1.554653 S    
O31   C104  1.291846 A    
C164  C166  1.401260 A    
O44   Cu11  1.946152 S    
O25   C99   1.285408 A    
C23   C39   1.537165 S    
C131  H63   1.083496 S    
C90   C94   1.399540 A    
C37   H21   1.109030 S    
C144  C148  1.401102 A    
O37   C107  1.303012 A    
N11   O70   1.301122 A    
C31   C101  1.489425 S    
N20   O88   1.301281 A    
C9    C25   1.580593 S    
C181  H115  1.111840 S    
C157  C167  1.416083 A    
C11   H3    1.115576 S    
C46   C50   1.406422 A    
C12   C28   1.580681 S    
O46   C111  1.305376 A    
C76   C176  1.506622 S    
C48   H40   1.083347 S    
N17   O81   1.301568 A    
C112  C150  1.478151 S    
C73   C77   1.404343 A    
C10   N6    1.477668 S    
O36   Cu12  1.950278 S    
C116  C124  1.395064 A    
O37   Cu9   1.949435 S    
C76   C80   1.404317 A    
C129  C133  1.398252 A    
O6    C2    1.291764 A    
N12   O72   1.301140 A    
C60   C64   1.397152 A    
O42   Cu9   1.946152 S    
C141  C145  1.402870 A    
C145  C149  1.401591 A    
C78   C82   1.406417 A    
C33   H29   1.113077 S    
C2    C82   1.478758 S    
C39   H23   1.109033 S    
H7    C19   1.115046 S    
C16   C184  1.558593 S    
N10   O68   1.301137 A    
O2    Cu1   1.948896 S    
O10   Cu1   1.979528 S    
C85   H49   1.082880 S    
C171  H83   1.110730 S    
C41   C61   1.396016 A    
Cu9   O45   1.949797 S    
C4    C84   1.478764 S    
C43   C63   1.396020 A    
C164  H76   1.083004 S    
N18   O84   1.301301 A    
N1    O49   1.301390 A    
C9    C13   1.582169 S    
C159  C163  1.402854 A    
O20   Cu8   1.949943 S    
C131  C140  1.399397 A    
C80   C84   1.406416 A    
C74   C94   1.410273 A    
C22   C38   1.537297 S    
O13   C5    1.289588 A    
O38   Cu10  1.949435 S    
O41   C107  1.305704 A    
N3    O53   1.301388 A    
C30   C38   1.558826 S    
C172  H86   1.110752 S    
O12   C8    1.281376 A    
O15   C7    1.289585 A    
N11   O69   1.301377 A    
C32   C36   1.566461 S    
C182  H116  1.108556 S    
C77   C81   1.406409 A    
N19   O85   1.301575 A    
C175  H95   1.110777 S    
C79   H47   1.083360 S    
C115  C119  1.403533 A    
C19   C35   1.544997 S    
C143  C147  1.402902 A    
C153  C156  1.203385 T    
C67   C71   1.204161 T    
C179  H108  1.105706 S    
C154  C155  1.203392 T    
C113  C123  1.395020 A    
N15   O78   1.301317 A    
Cu12  O48   1.949438 S    
O35   Cu11  1.949911 S    
H9    C33   1.110883 S    
C57   H41   1.084400 S    
C114  C123  1.395063 A    
O16   C8    1.289765 A    
C170  H81   1.110871 S    
C160  C168  1.415454 A    
C147  H71   1.082958 S    
C142  C151  1.415349 A    
C180  H111  1.105709 S    
C73   C93   1.410284 A    
C49   C53   1.421383 A    
C132  H64   1.083500 S    
C38   H26   1.113935 S    
O11   C7    1.281534 A    
O38   C108  1.302994 A    
C15   C31   1.593273 S    
O1    Cu1   1.948527 S    
C156  C168  1.440246 S    
O9    Cu1   1.979892 S    
C106  C122  1.478794 S    
C21   H13   1.108803 S    
C64   C68   1.436976 S    
C178  H105  1.105707 S    
C118  N10   1.438603 S    
C42   C62   1.396069 A    
C45   H37   1.083339 S    
O42   C108  1.305627 A    
O22   Cu6   1.980707 S    
C159  N19   1.441884 S    
O43   C109  1.305699 A    
O11   Cu2   1.979892 S    
C123  C125  1.439788 S    
O26   C100  1.285433 A    
N14   O76   1.301300 A    
C171  H85   1.109501 S    
C91   H55   1.083708 S    
C5    C25   1.487265 S    
O6    Cu3   1.950261 S    
O17   C97   1.292587 A    
C8    C28   1.487289 S    
C120  C122  1.420375 A    
C54   C58   1.405144 A    
C36   H32   1.113076 S    
O36   C106  1.302971 A    
O48   C112  1.305367 A    
C21   C37   1.537167 S    
C172  H88   1.109495 S    
C114  C118  1.403590 A    
C19   C27   1.564911 S    
O2    C2    1.293001 A    
Cu10  O46   1.949438 S    
C182  H118  1.111842 S    
N2    O51   1.301391 A    
C22   C26   1.554654 S    
C175  H97   1.110391 S    
C13   C181  1.558561 S    
C50   C54   1.421291 A    
N16   O80   1.301302 A    
C146  H70   1.082947 S    
O14   Cu3   1.980072 S    
C49   C107  1.480212 S    
C141  N13   1.441850 S    
C128  C140  1.439271 S    
C35   H31   1.113076 S    
Cu1   Cu3   2.657332 S    
N9    O65   1.301376 A    
Cu2   Cu4   2.657332 S    
O40   C110  1.302990 A    
C56   C172  1.508011 S    
C127  C139  1.439271 S    
N13   O73   1.301594 A    
C31   C35   1.566440 S    
C55   C171  1.508008 S    
C143  C152  1.416034 A    
Cu7   O31   1.949546 S    
C10   C26   1.580680 S    
C11   C15   1.582177 S    
C46   H38   1.083346 S    
C119  C122  1.420379 A    
C12   C16   1.582041 S    
C169  H77   1.110729 S    
C158  N18   1.441779 S    
C88   C92   1.395590 A    
C76   C96   1.410274 A    
C82   C86   1.404153 A    
C116  C120  1.403590 A    
C155  C167  1.440257 S    
C58   C62   1.397144 A    
C176  H98   1.110775 S    
C134  C137  1.407071 A    
C136  C138  1.407071 A    
C130  C134  1.398173 A    
C60   H44   1.084395 S    
C59   C63   1.397101 A    
C151  C153  1.440248 S    
