data_mof_unit_42296.cif
_audit_creation_date              2012-10-26T21:24:44-0400
_audit_creation_method            fapswitch 2.2
_symmetry_space_group_name_H-M    P1
_symmetry_Int_Tables_number       1
_space_group_crystal_system       triclinic
_cell_length_a                    9.563482
_cell_length_b                    10.832514
_cell_length_c                    15.593717
_cell_angle_alpha                 89.482501
_cell_angle_beta                  74.084348
_cell_angle_gamma                 90.238258
_cell_volume                      1553.42881442

loop_
_atom_site_label
_atom_site_type_symbol
_atom_type_description
_atom_site_fract_x
_atom_site_fract_y
_atom_site_fract_z
_atom_type_partial_charge
C1    C     C_R   0.998545 0.262452 0.502506 0.547470
C2    C     C_R   0.222436 0.469843 0.044239 0.050585
C3    C     C_R   0.325171 0.496445 0.092010 0.034033
C4    C     C_R   0.917971 0.500816 0.671739 0.540833
C5    C     C_R   0.074315 0.456507 0.089289 -0.140157
C6    C     C_R   0.026555 0.469544 0.181524 -0.136042
C7    C     C_R   0.275129 0.500968 0.185422 -0.134273
C8    C     C_R   0.118012 0.064785 0.514856 0.018354
C9    C     C_R   0.993244 0.129513 0.513111 0.007469
C10   C     C_R   0.862010 0.063798 0.525570 -0.157748
C11   C     C_R   0.862660 0.934917 0.525779 -0.137219
C12   C     C_R   0.671179 0.510859 0.905481 0.034954
C13   C     C_R   0.994595 0.870952 0.512686 0.011553
C14   C     C_R   0.118934 0.937742 0.514701 0.013942
C15   C     C_3   0.270256 0.934788 0.454572 -0.267547
C16   C     C_R   0.999206 0.737774 0.502254 0.560297
C17   C     C_3   0.268738 0.074742 0.454846 -0.254736
C18   C     C_R   0.607699 0.527738 0.423990 0.150357
C19   C     C_R   0.541563 0.459975 0.572297 -0.022976
C20   C     C_R   0.392989 0.460318 0.572387 -0.020310
C21   C     C_R   0.460436 0.527052 0.423882 0.111720
C22   C     C_3   0.476548 0.643587 0.370710 -0.241477
C23   C     C_R   0.770587 0.551771 0.952223 0.049994
C24   C     C_3   0.635634 0.645361 0.370461 0.098433
C25   C     C_R   0.081995 0.497715 0.328090 0.548772
C26   C     C_R   0.871997 0.510186 0.769056 0.001482
C27   C     C_R   0.127306 0.490755 0.230209 -0.000360
C28   C     C_R   0.917645 0.571503 0.907350 -0.143704
C29   C     C_R   0.968129 0.551075 0.816194 -0.141440
C30   C     C_R   0.726275 0.486948 0.814036 -0.129885
C31   C     C_R   0.520711 0.496664 0.951422 0.034709
C32   C     C_R   0.474367 0.515249 0.045239 0.034547
C33   C     C_R   0.577688 0.556079 0.088818 -0.137108
C34   C     C_R   0.722320 0.574465 0.043039 -0.138906
C35   C     C_R   0.414464 0.468218 0.906526 -0.136996
C36   C     C_R   0.268431 0.456089 0.952184 -0.138934
Cu1   Cu    Cu3+1 0.140670 0.499980 0.500000 0.934113
Cu2   Cu    Cu3+1 0.859330 0.500020 0.500000 0.967490
H1    H     H_    0.796920 0.607357 0.079201 0.107074
H2    H     H_    0.311238 0.429712 0.631517 0.116172
H3    H     H_    0.461154 0.630112 0.303841 0.083457
H4    H     H_    0.349942 0.508210 0.225236 0.116235
H5    H     H_    0.410776 0.718599 0.408790 0.151027
H6    H     H_    0.712588 0.633767 0.303262 0.136574
H7    H     H_    0.911696 0.459501 0.214815 0.119721
H8    H     H_    0.190947 0.435087 0.914953 0.107829
H9    H     H_    0.993102 0.605258 0.942527 0.111712
H10   H     H_    0.081173 0.570183 0.782348 0.124327
H11   H     H_    0.658373 0.449943 0.775671 0.108159
H12   H     H_    0.995434 0.435332 0.053190 0.112582
H13   H     H_    0.549940 0.579294 0.158128 0.091260
H14   H     H_    0.439154 0.458030 0.835368 0.093146
H15   H     H_    0.600718 0.750010 0.476375 0.320390
H16   H     H_    0.760591 0.111208 0.530715 0.136560
H17   H     H_    0.761345 0.886335 0.532024 0.160433
H18   H     H_    0.348185 0.896222 0.488953 0.136516
H19   H     H_    0.275574 0.895436 0.388130 0.139584
H20   H     H_    0.345541 0.115710 0.488996 0.143184
H21   H     H_    0.272637 0.116454 0.388781 0.145874
H22   H     H_    0.569525 0.428500 0.631363 0.111459
N1    N     N_R   0.648210 0.500930 0.499430 -0.224722
N2    N     N_R   0.352300 0.500890 0.499430 -0.233386
O1    O     O_R   0.118810 0.319640 0.500000 -0.497963
O2    O     O_R   0.881230 0.319680 0.499990 -0.508959
O3    O     O_R   0.055580 0.499970 0.629840 -0.513849
O4    O     O_R   0.818000 0.500010 0.629830 -0.519944
O5    O     O_R   0.118770 0.680320 0.500010 -0.507437
O6    O     O_R   0.881190 0.680360 0.500000 -0.456187
O7    O     O_R   0.182000 0.499990 0.370170 -0.508270
O8    O     O_R   0.944420 0.500030 0.370160 -0.493947
O9    O     O_3   0.671704 0.746395 0.416490 -0.679895

loop_
_geom_bond_atom_site_label_1
_geom_bond_atom_site_label_2
_ccdc_geom_bond_type
C4    C26   S    
Cu2   O8    S    
C18   N1    A    
C36   H8    S    
Cu1   Cu2   S    
C16   O6    A    
C6    H7    S    
Cu1   O7    S    
C19   H22   S    
C25   C27   S    
C18   C21   A    
C11   C13   A    
C9    C10   A    
C25   O7    A    
C3    C7    A    
C6    C27   A    
C14   C15   S    
C17   H20   S    
C23   C34   A    
C15   H18   S    
Cu2   N1    S    
C33   C34   A    
C1    C9    S    
C28   H9    S    
C16   O5    A    
C13   C14   A    
C32   C33   A    
C8    C17   S    
C4    O4    A    
C15   H19   S    
C12   C23   A    
C21   N2    A    
C5    C6    A    
C35   C36   A    
C17   H21   S    
C18   C24   S    
Cu1   O5    S    
C22   C24   S    
Cu1   O3    S    
C28   C29   A    
Cu1   O1    S    
C30   H11   S    
C19   N1    A    
C2    C3    A    
Cu2   O2    S    
C12   C31   A    
C20   N2    A    
C3    C32   A    
C20   H2    S    
C31   C35   A    
C5    H12   S    
C13   C16   S    
C2    C5    A    
C33   H13   S    
C10   C11   A    
C10   H16   S    
C34   H1    S    
C22   H3    S    
C1    O2    A    
Cu2   O4    S    
C11   H17   S    
C7    C27   A    
C24   H6    S    
C26   C29   A    
C7    H4    S    
C2    C36   A    
C35   H14   S    
C15   C17   S    
Cu1   N2    S    
C4    O3    A    
C1    O1    A    
C8    C14   A    
C25   O8    A    
C29   H10   S    
C12   C30   A    
C21   C22   S    
C31   C32   A    
C23   C28   A    
C19   C20   A    
C24   O9    S    
Cu2   O6    S    
C8    C9    A    
C26   C30   A    
C22   H5    S    
H15   O9    S    
