data_mof_unit_22317.cif
_audit_creation_date              2013-03-05T16:06:47-0500
_audit_creation_method            fapswitch 2.2
_symmetry_space_group_name_H-M    P1
_symmetry_Int_Tables_number       1
_space_group_crystal_system       triclinic
_cell_length_a                    10.836327
_cell_length_b                    9.628693
_cell_length_c                    19.44637
_cell_angle_alpha                 90.624852
_cell_angle_beta                  93.549288
_cell_angle_gamma                 90.461868
_cell_volume                      2024.93788582

loop_
_atom_site_label
_atom_site_type_symbol
_atom_site_description
_atom_site_fract_x
_atom_site_fract_y
_atom_site_fract_z
_atom_type_partial_charge
O1    O     O_R   0.319640 0.618740 0.500000 -0.574253
O2    O     O_R   0.680360 0.381260 0.500000 -0.588175
O3    O     O_R   0.680360 0.618740 0.500000 -0.551365
O4    O     O_R   0.319640 0.381260 0.500000 -0.580811
C1    C     C_R   0.871395 0.500775 0.497973 -0.013503
C2    C     C_R   0.128370 0.500203 0.500765 -0.034108
C3    C     C_R   0.262395 0.499817 0.500314 0.850804
C4    C     C_R   0.737451 0.500347 0.498677 0.889907
O5    O     O_R   0.500020 0.618830 0.400190 -0.563768
O6    O     O_R   0.499980 0.381170 0.599810 -0.552552
O7    O     O_R   0.499980 0.618830 0.599810 -0.568335
O8    O     O_R   0.500020 0.381170 0.400190 -0.511780
C5    C     C_R   0.507149 0.499239 0.367918 0.854177
C6    C     C_R   0.501910 0.500717 0.631811 0.935991
Cu1   Cu    Cu3+1 0.500000 0.640660 0.500000 1.068238
Cu2   Cu    Cu3+1 0.500000 0.359340 0.500000 1.070867
C7    C     C_R   0.062632 0.374614 0.499299 -0.123267
C8    C     C_R   0.937054 0.626717 0.499757 -0.054398
C9    C     C_R   0.934926 0.374747 0.496822 -0.097004
C10   C     C_R   0.064901 0.626443 0.501868 -0.107017
H1    H     H_    0.109466 0.276283 0.500338 0.207170
H2    H     H_    0.890181 0.725440 0.499444 0.213874
H3    H     H_    0.886517 0.276027 0.493954 0.209147
H4    H     H_    0.113494 0.725130 0.504551 0.217140
C11   C     C_R   0.626335 0.507143 0.744298 0.231698
C12   C     C_R   0.584898 0.614744 0.262964 0.328485
C13   C     C_R   0.478191 0.390412 0.248296 0.294207
C14   C     C_R   0.399373 0.507676 0.742688 0.296016
C15   C     C_R   0.630755 0.519370 0.816071 -0.136427
C16   C     C_R   0.586512 0.624327 0.191227 -0.131315
C17   C     C_R   0.474684 0.407400 0.177091 -0.148635
C18   C     C_R   0.407443 0.517308 0.814638 -0.123606
H5    H     H_    0.719363 0.524737 0.845076 0.194656
H6    H     H_    0.634825 0.709923 0.168721 0.187529
H7    H     H_    0.434979 0.325861 0.143570 0.193243
H8    H     H_    0.323807 0.517674 0.842436 0.190017
C19   C     C_R   0.522430 0.523274 0.851288 0.027618
C20   C     C_R   0.529881 0.522406 0.148260 0.024044
C21   C     C_R   0.416207 0.071327 0.458204 0.065592
C22   C     C_R   0.573460 0.927622 0.547186 0.010126
C23   C     C_R   0.576407 0.075832 0.545834 0.010655
C24   C     C_R   0.425344 0.924070 0.453613 0.044988
C25   C     C_R   0.509386 0.503362 0.707074 -0.216505
C26   C     C_R   0.525124 0.499559 0.292615 -0.268248
C27   C     C_R   0.479957 0.641382 0.962786 -0.081732
C28   C     C_R   0.592604 0.419468 0.037121 -0.084134
C29   C     C_R   0.481036 0.641010 0.035546 -0.079535
C30   C     C_R   0.586300 0.416673 0.964445 -0.077323
N1    N     N_R   0.500000 0.852070 0.500000 -0.251848
N2    N     N_R   0.500000 0.147930 0.500000 -0.242701
C31   C     C_R   0.536010 0.529116 0.072464 -0.026263
C32   C     C_R   0.529803 0.527507 0.927486 -0.033279
C33   C     C_2   0.299593 0.132308 0.427983 0.889326
O9    O     O_2   0.201094 0.078011 0.440407 -0.604007
O10   O     O_R   0.299306 0.244953 0.383863 -0.683794
H9    H     H_    0.212857 0.273680 0.367101 0.331150
C34   C     C_2   0.649377 0.857316 0.601594 0.935136
O11   O     O_2   0.755183 0.823966 0.591420 -0.555745
O12   O     O_R   0.604475 0.844233 0.667094 -0.714157
H10   H     H_    0.667296 0.802426 0.701507 0.359662
C35   C     C_2   0.653636 0.149782 0.599929 0.918844
O13   O     O_2   0.758924 0.185513 0.589142 -0.563039
O14   O     O_R   0.610439 0.163668 0.665902 -0.715323
H11   H     H_    0.673843 0.208140 0.699963 0.356882
C36   C     C_2   0.357602 0.852132 0.395068 0.934176
O15   O     O_2   0.398918 0.856462 0.338049 -0.521905
O16   O     O_R   0.242349 0.790989 0.403072 -0.748011
H12   H     H_    0.204793 0.748053 0.358677 0.338015
N3    N     N_R   0.741210 0.495803 0.711063 0.120277
O17   O     O_R   0.838095 0.444231 0.744163 -0.275182
O18   O     O_R   0.753500 0.546627 0.650263 -0.354804
N4    N     N_R   0.652609 0.717219 0.304651 0.157404
O19   O     O_R   0.729961 0.678171 0.354393 -0.372785
O20   O     O_R   0.655360 0.845916 0.284980 -0.265585
N5    N     N_R   0.442312 0.257641 0.273332 0.167707
O21   O     O_R   0.524616 0.182958 0.307170 -0.277774
O22   O     O_R   0.344166 0.195705 0.245291 -0.306643
N6    N     N_R   0.279171 0.500772 0.706916 0.127146
O23   O     O_R   0.257413 0.413940 0.655825 -0.343432
O24   O     O_R   0.186692 0.566314 0.731488 -0.271856
C37   C     C_2   0.425379 0.759729 0.923010 0.909323
O25   O     O_2   0.322196 0.801465 0.934318 -0.525422
O26   O     O_R   0.491870 0.822000 0.872028 -0.721973
H13   H     H_    0.444974 0.900457 0.848229 0.368559
C38   C     C_2   0.657506 0.307078 0.076754 0.901640
O27   O     O_2   0.633273 0.185125 0.063278 -0.510727
O28   O     O_R   0.744516 0.341602 0.130448 -0.722857
H14   H     H_    0.780946 0.256742 0.154204 0.364672
C39   C     C_2   0.424823 0.757504 0.073296 0.910097
O29   O     O_2   0.455805 0.877416 0.062670 -0.507768
O30   O     O_R   0.337413 0.729574 0.121393 -0.718946
H15   H     H_    0.307167 0.816996 0.144250 0.372152
C40   C     C_2   0.637965 0.297214 0.926647 0.907564
O31   O     O_2   0.745329 0.262650 0.939060 -0.526224
O32   O     O_R   0.563826 0.225769 0.876312 -0.719227
H16   H     H_    0.609488 0.147752 0.853719 0.363153

loop_
_geom_bond_atom_site_label_1
_geom_bond_atom_site_label_2
_geom_bond_distance
_ccdc_geom_bond_type
O10   H9    1.014223 S    
C40   O31   1.223034 D    
C12   N4    1.437476 S    
O32   H16   1.013849 S    
C23   C35   1.476160 S    
O28   H14   1.013774 S    
C11   C25   1.420024 A    
C37   O25   1.223038 D    
C12   C26   1.425024 A    
C33   O9    1.223379 D    
C18   H8    1.083645 S    
Cu2   N2    2.035603 S    
C20   C31   1.481652 S    
O7    C6    1.302038 A    
N6    O24   1.301450 A    
C34   O12   1.397948 S    
Cu1   Cu2   2.708744 S    
C15   H5    1.083637 S    
C16   C20   1.395260 A    
C35   O14   1.398041 S    
N3    O18   1.298548 A    
O5    C5    1.310510 A    
O7    Cu1   1.954579 S    
C13   C26   1.422425 A    
C10   H4    1.081841 S    
C36   O16   1.394564 S    
C24   C36   1.478498 S    
O1    Cu1   1.964111 S    
C39   O30   1.398354 S    
O2    Cu2   1.964111 S    
C28   C38   1.490995 S    
C33   O10   1.390169 S    
O12   H10   1.013502 S    
C40   O32   1.398508 S    
O1    C3    1.298152 A    
C29   C39   1.488820 S    
N3    O17   1.301860 A    
O4    C3    1.303734 A    
C13   N5    1.432304 S    
C37   O26   1.398564 S    
C21   C24   1.424356 A    
C27   C29   1.414272 A    
C11   C15   1.397229 A    
C28   C30   1.410652 A    
C30   C40   1.489853 S    
C16   H6    1.083595 S    
C38   O28   1.398311 S    
C13   C17   1.394290 A    
O16   H12   1.013840 S    
O8    Cu2   1.954581 S    
C14   C18   1.398485 A    
N4    O20   1.301508 A    
O3    C4    1.302163 A    
O6    C6    1.301947 A    
O30   H15   1.013835 S    
C19   C32   1.479090 S    
N6    O23   1.300550 A    
C29   C31   1.416099 A    
C1    C8    1.400024 A    
C27   C32   1.415723 A    
C38   O27   1.223229 D    
C28   C31   1.417712 A    
C7    H1    1.077633 S    
O4    Cu2   1.967494 S    
C9    H3    1.081203 S    
N5    O21   1.301361 A    
O26   H13   1.013817 S    
C18   C19   1.397095 A    
N5    O22   1.301919 A    
C22   C23   1.427727 A    
C12   C16   1.400258 A    
C17   H7    1.084029 S    
C11   N3    1.442043 S    
C15   C19   1.395712 A    
C23   N2    1.375961 A    
C14   N6    1.438878 S    
C2    C7    1.397649 A    
C22   C34   1.473553 S    
C8    H2    1.081274 S    
C27   C37   1.489989 S    
N4    O19   1.300880 A    
C1    C4    1.452350 S    
C2    C3    1.452936 S    
C1    C9    1.400636 A    
C2    C10   1.402043 A    
C14   C25   1.415969 A    
C17   C20   1.393818 A    
O5    Cu1   1.950024 S    
O6    Cu2   1.950022 S    
C34   O11   1.220439 D    
C21   C33   1.488139 S    
C7    C9    1.381732 A    
C8    C10   1.383479 A    
Cu1   N1    2.035602 S    
C35   O13   1.220240 D    
C24   N1    1.371539 A    
O14   H11   1.013345 S    
C30   C32   1.415283 A    
C21   N2    1.383426 A    
O8    C5    1.308584 A    
C36   O15   1.222226 D    
O2    C4    1.299766 A    
O3    Cu1   1.967494 S    
C39   O29   1.223132 D    
C5    C26   1.489204 S    
C22   N1    1.374962 A    
C6    C25   1.460753 S    
