data_mof_unit_61092.cif
_audit_creation_date              2012-12-10T16:35:54-0500
_audit_creation_method            fapswitch 2.2
_symmetry_space_group_name_H-M    P1
_symmetry_Int_Tables_number       1
_space_group_crystal_system       triclinic
_cell_length_a                    14.119113
_cell_length_b                    16.4944
_cell_length_c                    12.94744
_cell_angle_alpha                 89.989558
_cell_angle_beta                  106.322777
_cell_angle_gamma                 90.094264
_cell_volume                      2893.74231262

loop_
_atom_site_label
_atom_site_type_symbol
_atom_type_description
_atom_site_fract_x
_atom_site_fract_y
_atom_site_fract_z
_atom_type_partial_charge
C1    C     C_R   0.313931 0.844635 0.476269 0.864354
C2    C     C_R   0.685745 0.843835 0.523292 0.889892
C3    C     C_R   0.185717 0.656209 0.523394 0.888897
C4    C     C_R   0.185739 0.343828 0.523305 0.891295
C5    C     C_R   0.546040 0.999450 0.787079 0.811351
C6    C     C_R   0.045990 0.498852 0.787218 0.840720
C7    C     C_R   0.456774 0.000085 0.214101 0.851090
C8    C     C_R   0.956668 0.500128 0.214077 0.861667
C9    C     C_2   0.456135 0.001185 0.099846 -0.340464
C10   C     C_2   0.955788 0.501780 0.099771 -0.344052
C11   C     C_2   0.501035 0.942778 0.058533 -0.208940
C12   C     C_R   0.313959 0.155399 0.476333 0.866494
C13   C     C_2   0.993392 0.440805 0.054912 -0.265145
C14   C     C_2   0.560224 0.993956 0.905709 -0.104622
C15   C     C_2   0.059728 0.490564 0.905737 -0.064134
C16   C     C_2   0.500684 0.942542 0.943112 0.217298
C17   C     C_2   0.994401 0.443443 0.940425 0.211949
C18   C     C_2   0.760435 0.218288 0.531553 -0.349243
C19   C     C_2   0.760339 0.781735 0.531557 -0.347038
C20   C     C_2   0.260225 0.718534 0.531979 -0.349888
C21   C     C_2   0.260326 0.281721 0.531590 -0.346872
C22   C     C_3   0.378470 0.830220 0.913050 -0.755596
C23   C     C_R   0.813952 0.344625 0.476314 0.868564
C24   C     C_3   0.966225 0.317726 0.840326 -0.788123
C25   C     C_3   0.634776 0.048165 0.984213 -0.458758
C26   C     C_3   0.697493 0.102973 0.933172 -0.314935
C27   C     C_3   0.762860 0.159732 0.016561 -0.886538
C28   C     C_3   0.140897 0.536356 0.988165 -0.476153
C29   C     C_3   0.213908 0.583528 0.942469 -0.315935
C30   C     C_3   0.287505 0.630931 0.030825 -0.890356
C31   C     C_R   0.813956 0.655397 0.476329 0.865495
C32   C     C_2   0.240029 0.783266 0.468064 -0.298450
C33   C     C_2   0.240015 0.216683 0.468102 -0.303016
C34   C     C_2   0.740013 0.283302 0.468183 -0.301347
C35   C     C_2   0.740012 0.716681 0.468099 -0.303808
C36   C     C_R   0.685752 0.156167 0.523324 0.889617
H1    H     H_    0.532924 0.890770 0.107408 0.173412
H2    H     H_    0.668276 0.707466 0.410487 0.160056
H3    H     H_    0.168580 0.792009 0.409800 0.160487
H4    H     H_    0.168297 0.207488 0.410449 0.160061
H5    H     H_    0.472591 0.856765 0.818613 0.207144
H6    H     H_    0.332278 0.792864 0.846320 0.232561
H7    H     H_    0.328480 0.865610 0.948544 0.259399
H8    H     H_    0.425174 0.789206 0.974573 0.224381
H9    H     H_    0.861381 0.382386 0.889450 0.235273
H10   H     H_    0.908411 0.283897 0.779648 0.236145
H11   H     H_    0.992940 0.279329 0.913270 0.229406
H12   H     H_    0.018048 0.385498 0.099890 0.186181
H13   H     H_    0.028188 0.330322 0.805469 0.231598
H14   H     H_    0.716864 0.200097 0.051359 0.265271
H15   H     H_    0.813374 0.124203 0.082149 0.264696
H16   H     H_    0.807881 0.197925 0.977626 0.251894
H17   H     H_    0.746055 0.065118 0.898609 0.249015
H18   H     H_    0.648742 0.140389 0.868314 0.217321
H19   H     H_    0.593931 0.087740 0.026342 0.223401
H20   H     H_    0.685272 0.009001 0.045383 0.214677
H21   H     H_    0.248657 0.677415 0.065746 0.267473
H22   H     H_    0.328357 0.589369 0.095539 0.264895
H23   H     H_    0.425227 0.053471 0.050969 0.159185
H24   H     H_    0.341483 0.661815 0.996305 0.249729
H25   H     H_    0.256075 0.540540 0.906314 0.249868
H26   H     H_    0.173447 0.626984 0.879977 0.220350
H27   H     H_    0.105401 0.579948 0.031099 0.223141
H28   H     H_    0.183511 0.492031 0.048093 0.220728
H29   H     H_    0.931308 0.556734 0.053761 0.158513
H30   H     H_    0.331974 0.711692 0.590615 0.145558
H31   H     H_    0.332280 0.288981 0.589753 0.147470
H32   H     H_    0.832500 0.211045 0.589449 0.144016
H33   H     H_    0.832307 0.789010 0.589688 0.147740
H34   H     H_    0.668178 0.292516 0.410838 0.160237
N1    N     N_2   0.440086 0.884183 0.871651 -0.272475
N2    N     N_2   0.925089 0.392454 0.867217 -0.270613
O1    O     O_3   0.500010 0.000000 0.500000 -0.484558
O2    O     O_R   0.103010 0.337110 0.452470 -0.641398
O3    O     O_R   0.316670 0.095240 0.537470 -0.635161
O4    O     O_R   0.316670 0.904760 0.537470 -0.633544
O5    O     O_R   0.816670 0.595240 0.537470 -0.638454
O6    O     O_R   0.816670 0.404760 0.537470 -0.630299
O7    O     O_R   0.703490 0.904800 0.585920 -0.645251
O8    O     O_R   0.703490 0.095200 0.585920 -0.649242
O9    O     O_R   0.203490 0.404800 0.585920 -0.645711
O10   O     O_R   0.203490 0.595200 0.585920 -0.649875
O11   O     O_R   0.458050 0.000000 0.725250 -0.625810
O12   O     O_3   0.000010 0.500000 0.500000 -0.484818
O13   O     O_R   0.958050 0.500000 0.725250 -0.615183
O14   O     O_R   0.461630 0.932310 0.264690 -0.636818
O15   O     O_R   0.461630 0.067690 0.264690 -0.641832
O16   O     O_R   0.961630 0.432310 0.264690 -0.637611
O17   O     O_R   0.961630 0.567690 0.264690 -0.643962
O18   O     O_R   0.618750 0.000000 0.745380 -0.651814
O19   O     O_R   0.118750 0.500000 0.745380 -0.659894
O20   O     O_R   0.376880 0.837120 0.424150 -0.634762
O21   O     O_R   0.376880 0.162880 0.424150 -0.634850
O22   O     O_R   0.876880 0.337120 0.424150 -0.634521
O23   O     O_R   0.876880 0.662880 0.424150 -0.634711
O24   O     O_R   0.603010 0.162890 0.452470 -0.639184
O25   O     O_R   0.603010 0.837110 0.452470 -0.642132
O26   O     O_R   0.103010 0.662890 0.452470 -0.639094
Zn1   Zn    Zn3+2 0.485630 0.096680 0.411850 0.963077
Zn2   Zn    Zn3+2 0.485630 0.903320 0.411850 0.960179
Zn3   Zn    Zn3+2 0.985630 0.596680 0.411850 0.962069
Zn4   Zn    Zn3+2 0.985630 0.403320 0.411850 0.963184
Zn5   Zn    Zn3+2 0.399590 0.000000 0.573760 0.975296
Zn6   Zn    Zn3+2 0.899590 0.500000 0.573760 0.978095
Zn7   Zn    Zn3+2 0.629190 0.000000 0.602520 0.952543
Zn8   Zn    Zn3+2 0.129190 0.500000 0.602520 0.952576

loop_
_geom_bond_atom_site_label_1
_geom_bond_atom_site_label_2
_ccdc_geom_bond_type
O1    Zn2   S    
C30   H21   S    
O12   Zn4   S    
C25   H20   S    
O20   Zn2   S    
C26   C27   S    
C6    O13   A    
O11   Zn5   S    
C20   H30   S    
C28   C29   S    
C5    O11   A    
C7    O14   A    
C21   C33   D    
C18   H32   S    
C6    O19   A    
O24   Zn1   S    
O7    Zn7   S    
O1    Zn1   S    
C32   H3    S    
C11   H1    S    
C2    O7    A    
C6    C15   S    
O9    Zn8   S    
C22   H8    S    
C4    O9    A    
C2    O25   A    
C30   H24   S    
O12   Zn8   S    
O14   Zn2   S    
O21   Zn1   S    
C4    O2    A    
C5    O18   A    
C27   H14   S    
O2    Zn4   S    
O4    Zn5   S    
C23   O6    A    
C21   H31   S    
H9    N2    S    
O3    Zn5   S    
O12   Zn3   S    
C24   H11   S    
O19   Zn8   S    
C16   N1    S    
C26   H18   S    
C27   H15   S    
C31   O5    A    
O15   Zn1   S    
C29   H25   S    
C33   H4    S    
O6    Zn6   S    
C35   H2    S    
C36   O8    A    
C25   C26   S    
O8    Zn7   S    
C1    C32   S    
C9    H23   S    
C29   C30   S    
C18   C34   D    
C11   C16   S    
C36   O24   A    
O1    Zn7   S    
C22   H7    S    
C23   C34   S    
C3    O10   A    
H5    N1    S    
C3    C20   S    
C9    C11   D    
C5    C14   S    
O13   Zn6   S    
C28   H28   S    
C1    O20   A    
O12   Zn6   S    
C31   C35   S    
C12   O21   A    
C19   H33   S    
C26   H17   S    
C22   N1    S    
O25   Zn2   S    
C27   H16   S    
C24   N2    S    
C20   C32   D    
C10   H29   S    
C24   H13   S    
C15   C17   D    
C34   H34   S    
C29   H26   S    
O17   Zn3   S    
C2    C19   S    
C1    O4    A    
C25   H19   S    
O18   Zn7   S    
C10   C13   D    
C13   H12   S    
O16   Zn4   S    
O26   Zn3   S    
C23   O22   A    
C13   C17   S    
C24   H10   S    
C19   C35   D    
C4    C21   S    
C3    O26   A    
C15   C28   S    
C22   H6    S    
C31   O23   A    
C30   H22   S    
C14   C16   D    
O10   Zn8   S    
C14   C25   S    
C28   H27   S    
C7    C9    S    
O1    Zn5   S    
C7    O15   A    
O22   Zn4   S    
C17   N2    S    
C8    C10   S    
C12   O3    A    
O5    Zn6   S    
C8    O17   A    
C8    O16   A    
C12   C33   S    
C18   C36   S    
O23   Zn3   S    
