data_mof_unit_33525.cif
_audit_creation_date              2012-10-26T20:32:00-0400
_audit_creation_method            fapswitch 2.2
_symmetry_space_group_name_H-M    P1
_symmetry_Int_Tables_number       1
_space_group_crystal_system       triclinic
_cell_length_a                    10.650436
_cell_length_b                    10.835682
_cell_length_c                    9.555265
_cell_angle_alpha                 89.19455
_cell_angle_beta                  90.10114
_cell_angle_gamma                 89.55227
_cell_volume                      1102.5782883

loop_
_atom_site_label
_atom_site_type_symbol
_atom_type_description
_atom_site_fract_x
_atom_site_fract_y
_atom_site_fract_z
_atom_type_partial_charge
C1    C     C_R   0.509291 0.262697 0.501265 0.539989
C2    C     C_R   0.488217 0.939283 0.618082 -0.000070
C3    C     C_3   0.397928 0.944567 0.739448 0.172836
C4    C     C_R   0.259615 0.494682 0.499922 0.563332
C5    C     C_3   0.453578 0.072316 0.765090 0.186994
C6    C     C_R   0.598941 0.547580 0.073237 0.147129
C7    C     C_R   0.406844 0.444777 0.075078 -0.024233
C8    C     C_R   0.406136 0.445874 0.926426 -0.046793
C9    C     C_R   0.599164 0.547376 0.925783 0.152723
C10   C     C_3   0.643909 0.677344 0.918827 -0.258431
C11   C     C_3   0.642796 0.677533 0.077146 -0.279044
C12   C     C_3   0.958178 0.546992 0.381920 -0.150278
C13   C     C_R   0.498947 0.737960 0.498927 0.534930
C14   C     C_R   0.740674 0.497244 0.500362 0.565514
C15   C     C_3   0.043010 0.433295 0.618867 -0.141588
C16   C     C_3   0.957941 0.372473 0.507267 -0.164026
C17   C     C_3   0.877537 0.491856 0.501084 0.017800
C18   C     C_3   0.961586 0.550752 0.610843 0.284441
C19   C     C_3   0.041954 0.607553 0.493854 -0.171529
C20   C     C_3   0.600867 0.176323 0.902037 0.006716
C21   C     C_3   0.733872 0.168861 0.841789 -0.258798
C22   C     C_3   0.808746 0.284348 0.874831 -0.481010
C23   C     C_3   0.039880 0.429431 0.390392 0.280042
C24   C     C_3   0.012994 0.662268 0.809096 -0.002950
C25   C     C_3   0.024012 0.591086 0.948073 -0.266038
C26   C     C_3   0.121802 0.649215 0.043339 -0.473954
C27   C     C_3   0.002511 0.302346 0.200943 -0.002434
C28   C     C_3   0.017030 0.164758 0.235444 -0.260616
C29   C     C_3   0.936248 0.085492 0.141161 -0.486274
C30   C     C_3   0.220888 0.888285 0.602424 0.000984
C31   C     C_3   0.210590 0.963418 0.465172 -0.258016
C32   C     C_3   0.190924 0.882938 0.337023 -0.487300
C33   C     C_3   0.122976 0.489714 0.500055 0.022364
C34   C     C_R   0.521495 0.059867 0.627925 0.007841
C35   C     C_R   0.530493 0.130047 0.504106 -0.037140
C36   C     C_R   0.554105 0.066436 0.378792 -0.165304
C37   C     C_R   0.546549 0.937241 0.376728 -0.156941
C38   C     C_R   0.505998 0.871844 0.496697 -0.014405
Cu1   Cu    Cu3+1 0.499990 0.499980 0.640670 0.916005
Cu2   Cu    Cu3+1 0.500010 0.500020 0.359330 0.933107
H1    H     H_    0.918041 0.278414 0.514608 0.092646
H2    H     H_    0.550934 0.258014 0.858736 0.163491
H3    H     H_    0.782542 0.086309 0.886382 0.170841
H4    H     H_    0.730455 0.158986 0.726484 0.166337
H5    H     H_    0.908054 0.270978 0.843145 0.136269
H6    H     H_    0.805235 0.303807 0.988346 0.126515
H7    H     H_    0.769841 0.365000 0.816635 0.205147
H8    H     H_    0.330687 0.401065 0.131056 0.164348
H9    H     H_    0.739474 0.685403 0.874966 0.185777
H10   H     H_    0.574164 0.741677 0.871433 0.153333
H11   H     H_    0.081698 0.387588 0.714342 0.101883
H12   H     H_    0.414565 0.875588 0.824450 0.140844
H13   H     H_    0.989482 0.760132 0.831294 0.147666
H14   H     H_    0.106424 0.662228 0.756456 0.127479
H15   H     H_    0.931717 0.590432 0.002049 0.158237
H16   H     H_    0.052026 0.494180 0.927774 0.152441
H17   H     H_    0.214495 0.652861 0.990380 0.159185
H18   H     H_    0.132051 0.593364 0.140900 0.191120
H19   H     H_    0.092218 0.744221 0.071362 0.141190
H20   H     H_    0.077230 0.702345 0.492095 0.089064
H21   H     H_    0.921431 0.591590 0.284747 0.106908
H22   H     H_    0.021094 0.316818 0.087687 0.140190
H23   H     H_    0.382988 0.148699 0.769982 0.145105
H24   H     H_    0.903928 0.333583 0.219983 0.124592
H25   H     H_    0.117018 0.137471 0.222587 0.182195
H26   H     H_    0.989287 0.147131 0.345473 0.150021
H27   H     H_    0.835864 0.112866 0.149902 0.151027
H28   H     H_    0.945930 0.987009 0.173236 0.144516
H29   H     H_    0.967825 0.095314 0.030961 0.154104
H30   H     H_    0.124465 0.861976 0.633628 0.139609
H31   H     H_    0.274094 0.800562 0.591368 0.131790
H32   H     H_    0.131462 0.029872 0.474218 0.154348
H33   H     H_    0.295980 0.019038 0.448551 0.190775
H34   H     H_    0.329565 0.402727 0.871600 0.117176
H35   H     H_    0.253518 0.800501 0.340338 0.169580
H36   H     H_    0.212977 0.936579 0.240510 0.150916
H37   H     H_    0.091526 0.853850 0.330234 0.138147
H38   H     H_    0.737721 0.685460 0.124491 0.113139
H39   H     H_    0.570289 0.740741 0.119276 0.153633
H40   H     H_    0.572821 0.115973 0.281922 0.140001
H41   H     H_    0.566382 0.890375 0.280365 0.134954
H42   H     H_    0.607617 0.190401 0.016746 0.143308
N1    N     N_R   0.500800 0.500930 0.147930 -0.236465
N2    N     N_R   0.500800 0.500890 0.852020 -0.245807
O1    O     O_R   0.500000 0.319640 0.618810 -0.530898
O2    O     O_3   0.914098 0.614092 0.727450 -0.576953
O3    O     O_3   0.093804 0.369182 0.274989 -0.576031
O4    O     O_3   0.268261 0.963774 0.708843 -0.608712
O5    O     O_R   0.500010 0.319680 0.381230 -0.499929
O6    O     O_R   0.316850 0.499950 0.618770 -0.527369
O7    O     O_R   0.316860 0.499990 0.381190 -0.476212
O8    O     O_R   0.499990 0.680320 0.618770 -0.506480
O9    O     O_R   0.500000 0.680360 0.381190 -0.510165
O10   O     O_R   0.683140 0.500010 0.618810 -0.475263
O11   O     O_R   0.683150 0.500050 0.381230 -0.517316
O12   O     O_3   0.536635 0.064419 0.881162 -0.607825

loop_
_geom_bond_atom_site_label_1
_geom_bond_atom_site_label_2
_ccdc_geom_bond_type
C15   C18   S    
C7    N1    A    
C20   H42   S    
C14   O11   A    
C35   C36   A    
C14   C17   S    
C25   H16   S    
Cu2   O9    S    
C32   H35   S    
C30   H31   S    
C7    C8    A    
C12   C23   S    
C18   O2    S    
C36   C37   A    
C11   H38   S    
Cu1   N2    S    
C18   C19   S    
C30   C31   S    
C31   H33   S    
C24   H14   S    
C15   C16   S    
C21   H4    S    
C5    H23   S    
C34   C35   A    
C32   H37   S    
C21   H3    S    
C16   C17   S    
C23   C33   S    
C12   C17   S    
C15   H11   S    
Cu2   O5    S    
C9    C10   S    
Cu1   O6    S    
C29   H29   S    
C4    O7    A    
C2    C34   A    
C22   H7    S    
C20   O12   S    
C23   O3    S    
C21   C22   S    
Cu2   N1    S    
C37   H41   S    
C6    C9    A    
C30   H30   S    
C4    O6    A    
C1    O1    A    
C24   C25   S    
C36   H40   S    
C6    C11   S    
C25   C26   S    
C13   O9    A    
C28   H26   S    
Cu1   O10   S    
C37   C38   A    
C27   H22   S    
C29   H28   S    
C2    C38   A    
C31   C32   S    
C5    C34   S    
C8    H34   S    
C17   C18   S    
C27   O3    S    
C26   H18   S    
C13   C38   S    
C11   H39   S    
C31   H32   S    
C22   H6    S    
C16   C23   S    
C10   C11   S    
C13   O8    A    
C19   C33   S    
Cu1   O1    S    
Cu2   O11   S    
C30   O4    S    
C10   H10   S    
Cu1   O8    S    
Cu1   Cu2   S    
C5    O12   S    
C1    C35   S    
C26   H19   S    
C4    C33   S    
C28   C29   S    
C1    O5    A    
C6    N1    A    
C3    O4    S    
C8    N2    A    
C25   H15   S    
C3    C5    S    
C32   H36   S    
C20   H2    S    
C3    H12   S    
C19   H20   S    
C7    H8    S    
C2    C3    S    
C24   H13   S    
C29   H27   S    
C12   H21   S    
C12   C19   S    
C15   C33   S    
C28   H25   S    
Cu2   O7    S    
C26   H17   S    
C27   H24   S    
C9    N2    A    
C22   H5    S    
C20   C21   S    
C27   C28   S    
C10   H9    S    
C24   O2    S    
C16   H1    S    
C14   O10   A    
