data_mof_unit_30024.cif
_audit_creation_date              2013-03-05T15:41:44-0500
_audit_creation_method            fapswitch 2.2
_symmetry_space_group_name_H-M    P1
_symmetry_Int_Tables_number       1
_space_group_crystal_system       triclinic
_cell_length_a                    11.180465
_cell_length_b                    12.70813
_cell_length_c                    23.539345
_cell_angle_alpha                 90.757591
_cell_angle_beta                  96.732829
_cell_angle_gamma                 68.450071
_cell_volume                      3087.6803296

loop_
_atom_site_label
_atom_site_type_symbol
_atom_site_description
_atom_site_fract_x
_atom_site_fract_y
_atom_site_fract_z
_atom_type_partial_charge
O1    O     O_R   0.196340 0.303200 0.448500 -0.496286
O2    O     O_R   0.199310 0.519670 0.454880 -0.469746
C1    C     C_R   0.148722 0.616746 0.428685 0.554592
O3    O     O_R   0.045660 0.691380 0.441680 -0.521034
O4    O     O_R   0.811930 0.659460 0.430950 -0.521050
C2    C     C_R   0.747474 0.605757 0.405119 0.578221
O5    O     O_R   0.757900 0.507620 0.421760 -0.447625
O6    O     O_R   0.988630 0.322990 0.439840 -0.492320
C3    C     C_R   0.101357 0.281982 0.423497 0.540108
O7    O     O_R   0.196380 0.301720 0.573850 -0.518748
O8    O     O_R   0.199350 0.518300 0.571080 -0.500697
C4    C     C_R   0.146763 0.615432 0.592077 0.544109
O9    O     O_R   0.045700 0.689900 0.567030 -0.515019
O10   O     O_R   0.811960 0.658090 0.547150 -0.500621
C5    C     C_R   0.749667 0.602545 0.565967 0.553542
O11   O     O_R   0.757930 0.506140 0.547110 -0.490101
O12   O     O_R   0.988670 0.321620 0.556040 -0.502154
C6    C     C_R   0.099393 0.280846 0.585530 0.541096
Cr1   Cr    Cr6+3 0.189770 0.415650 0.511620 1.060165
Cr2   Cr    Cr6+3 0.930400 0.667320 0.496770 1.032248
Cr3   Cr    Cr6+3 0.879870 0.417010 0.491650 1.079710
O13   O     O_3   0.000020 0.499990 0.500010 -0.270084
C7    C     C_R   0.642272 0.762475 0.142667 0.010353
C8    C     C_R   0.681783 0.649778 0.348847 0.006234
C9    C     C_R   0.551505 0.635556 0.262449 -0.120721
C10   C     C_R   0.586576 0.612611 0.320902 0.206706
C11   C     C_R   0.732578 0.716321 0.319262 -0.161738
C12   C     C_R   0.699098 0.737075 0.260999 -0.012020
C13   C     C_R   0.608990 0.695312 0.232776 -0.014134
C14   C     C_R   0.579139 0.711004 0.174685 -0.156158
C15   C     C_R   0.733204 0.805281 0.170228 0.195611
C16   C     C_R   0.759522 0.793207 0.230096 -0.112641
H1    H     H_    0.504920 0.682167 0.154240 0.142857
H2    H     H_    0.481639 0.604393 0.239806 0.141100
H3    H     H_    0.830606 0.823470 0.252332 0.150674
H4    H     H_    0.806504 0.744491 0.340499 0.144057
C17   C     C_1   0.236193 0.161282 0.123300 0.013772
C18   C     C_2   0.181441 0.227132 0.227626 -0.097168
C19   C     C_2   0.157962 0.158043 0.264268 0.110747
C20   C     C_1   0.134295 0.194180 0.321670 0.031259
C21   C     C_1   0.211002 0.194394 0.170333 -0.033544
C22   C     C_1   0.117199 0.229563 0.369054 0.001063
H5    H     H_    0.180616 0.309465 0.241172 0.122635
C23   C     C_1   0.166468 0.748537 0.122965 0.050976
C24   C     C_2   0.146058 0.678337 0.225832 -0.112224
C25   C     C_2   0.217508 0.696928 0.271915 -0.098811
C26   C     C_1   0.206629 0.662075 0.328675 0.030661
C27   C     C_1   0.154994 0.716338 0.169389 0.004157
C28   C     C_1   0.189494 0.637246 0.375608 0.066688
H6    H     H_    0.280682 0.743155 0.267526 0.136652
H7    H     H_    0.080326 0.634544 0.230249 0.133365
C29   C     C_1   0.627991 0.754951 0.864947 0.067546
C30   C     C_2   0.700313 0.703101 0.761845 -0.106602
C31   C     C_2   0.611122 0.706059 0.717911 -0.110564
C32   C     C_1   0.649880 0.671314 0.662182 -0.036041
C33   C     C_1   0.663706 0.732869 0.818327 0.007032
C34   C     C_1   0.689444 0.640798 0.616905 0.004477
H8    H     H_    0.509328 0.733000 0.723774 0.146442
H9    H     H_    0.802138 0.673971 0.755995 0.132309
C35   C     C_R   0.192878 0.184441 0.855326 0.002227
C36   C     C_R   0.104769 0.240154 0.642940 0.018209
C37   C     C_R   0.010944 0.171503 0.714151 -0.097858
C38   C     C_R   0.017210 0.192540 0.657065 -0.140547
C39   C     C_R   0.182609 0.270397 0.685687 -0.109544
C40   C     C_R   0.176335 0.250920 0.742452 0.009027
C41   C     C_R   0.092972 0.197665 0.757404 0.037648
C42   C     C_R   0.097990 0.167765 0.814837 0.195963
C43   C     C_R   0.263180 0.249097 0.840494 -0.157750
C44   C     C_R   0.254664 0.282469 0.784210 -0.142329
H10   H     H_    0.333042 0.265605 0.871665 0.149505
H11   H     H_    0.942142 0.134745 0.723838 0.183320
H12   H     H_    0.315672 0.326237 0.772803 0.123304
H13   H     H_    0.952575 0.173584 0.624100 0.132038
H14   H     H_    0.245813 0.312823 0.674974 0.138990
C45   C     C_R   0.119094 0.732024 0.857711 0.008152
C46   C     C_R   0.178546 0.632400 0.652654 -0.016755
C47   C     C_R   0.313475 0.570056 0.743453 0.093994
C48   C     C_R   0.296051 0.566162 0.683728 -0.098540
C49   C     C_R   0.079190 0.706020 0.681199 -0.125495
C50   C     C_R   0.091846 0.708447 0.740267 -0.045866
C51   C     C_R   0.207759 0.637868 0.772828 0.065111
C52   C     C_R   0.212838 0.640615 0.833018 0.058663
C53   C     C_R   0.998257 0.790429 0.825697 0.217023
C54   C     C_R   0.986426 0.778498 0.766730 -0.123135
H15   H     H_    0.895689 0.826517 0.741155 0.149680
H16   H     H_    0.374322 0.511033 0.661609 0.149744
H17   H     H_    0.987342 0.757888 0.657555 0.145570
O14   O     O_R   0.113660 0.883270 0.047820 -0.459641
O15   O     O_R   0.186930 0.068530 0.043990 -0.500887
C55   C     C_R   0.265792 0.110005 0.069429 0.529403
O16   O     O_R   0.377770 0.089040 0.054220 -0.498023
O17   O     O_R   0.562800 0.872960 0.056970 -0.451639
C56   C     C_R   0.596575 0.776036 0.081953 0.588963
O18   O     O_R   0.555390 0.700940 0.062700 -0.526076
O19   O     O_R   0.295020 0.731920 0.049950 -0.526459
C57   C     C_R   0.189505 0.787780 0.069713 0.545989
O20   O     O_R   0.094290 0.884230 0.921550 -0.400353
O21   O     O_R   0.168980 0.069410 0.926940 -0.444833
C58   C     C_R   0.240252 0.115448 0.907916 0.546266
O22   O     O_R   0.358400 0.089990 0.927950 -0.513722
O23   O     O_R   0.544850 0.873850 0.939920 -0.456769
C59   C     C_R   0.573581 0.776215 0.918118 0.572191
O24   O     O_R   0.536020 0.701900 0.936430 -0.502652
O25   O     O_R   0.277070 0.732810 0.932890 -0.506098
C60   C     C_R   0.161869 0.783291 0.908857 0.581917
Cr4   Cr    Cr6+3 0.149500 0.973980 0.985330 1.157070
Cr5   Cr    Cr6+3 0.457000 0.976510 0.994660 1.121188
Cr6   Cr    Cr6+3 0.411170 0.724270 0.995270 1.043154
O26   O     O_3   0.339220 0.891590 0.991750 -0.295816
N1    N     N_R   0.018187 0.109399 0.830451 0.083236
O27   O     O_R   0.926032 0.158028 0.861941 -0.285266
O28   O     O_R   0.035670 0.008692 0.811879 -0.342246
N2    N     N_3   0.305633 0.548253 0.868404 -0.604544
H18   H     H_    0.293804 0.474513 0.853457 0.209208
H19   H     H_    0.279418 0.551576 0.909735 0.244684
N3    N     N_R   0.801473 0.856877 0.138782 0.079014
O29   O     O_R   0.849809 0.926993 0.163634 -0.333232
O30   O     O_R   0.828404 0.824886 0.087537 -0.313581
N4    N     N_R   0.888567 0.862215 0.852386 0.113462
O31   O     O_R   0.794705 0.943054 0.822908 -0.291943
O32   O     O_R   0.874087 0.837934 0.904071 -0.319887
N5    N     N_3   0.441840 0.512073 0.771683 -0.618320
H20   H     H_    0.445702 0.440415 0.794053 0.253526
H21   H     H_    0.467977 0.566813 0.799600 0.272420
N6    N     N_R   0.526955 0.550745 0.350809 0.082780
O33   O     O_R   0.495408 0.579065 0.401884 -0.337929
O34   O     O_R   0.491615 0.473867 0.324898 -0.337700
N7    N     N_3   0.158910 0.048181 0.248478 -0.595102
H22   H     H_    0.090068 0.058055 0.212781 0.262905
H23   H     H_    0.250172 0.000075 0.236737 0.231683

loop_
_geom_bond_atom_site_label_1
_geom_bond_atom_site_label_2
_geom_bond_distance
_ccdc_geom_bond_type
O23   Cr5   1.907368 S    
O14   C57   1.270964 A    
O11   Cr3   2.022321 S    
C36   C39   1.395635 A    
Cr5   O26   1.980965 S    
O19   C57   1.271532 A    
C8    C11   1.408465 A    
C50   C54   1.398727 A    
C35   C58   1.454507 S    
N7    H22   1.046162 S    
C49   H17   1.084982 S    
C51   C52   1.411799 A    
C30   H9    1.085306 S    
C26   C28   1.208320 T    
O4    Cr2   1.943408 S    
C30   C31   1.340520 D    
N3    O29   1.301576 A    
C29   C59   1.434725 S    
C3    C22   1.435785 S    
C56   O18   1.261197 A    
C17   C55   1.435403 S    
C12   C13   1.401609 A    
C8    C10   1.409193 A    
C18   C19   1.351355 D    
C30   C33   1.441817 S    
C24   H7    1.086530 S    
C5    O11   1.272240 A    
O21   C58   1.269198 A    
Cr6   O26   1.976791 S    
C53   N4    1.440334 S    
C36   C38   1.397070 A    
N1    O27   1.300833 A    
C47   N5    1.434121 S    
C42   N1    1.432336 S    
C31   C32   1.442587 S    
C15   C16   1.404068 A    
C35   C42   1.414751 A    
C43   C44   1.378364 A    
O15   Cr4   1.927575 S    
C46   C49   1.398446 A    
O24   Cr6   2.024620 S    
C14   H1    1.086080 S    
C9    H2    1.084044 S    
O20   C60   1.279216 A    
C48   H16   1.083761 S    
C20   C22   1.206815 T    
C41   C42   1.398348 A    
C2    C8    1.447958 S    
Cr3   O13   1.982033 S    
C5    C34   1.435558 S    
O18   Cr6   2.066012 S    
O25   C60   1.273684 A    
O23   C59   1.278689 A    
O6    Cr3   1.906683 S    
N4    O32   1.301688 A    
C9    C13   1.398382 A    
O1    Cr1   2.036531 S    
C37   C41   1.408673 A    
C1    C28   1.437371 S    
C7    C14   1.403949 A    
O10   Cr2   1.913032 S    
C12   C16   1.406205 A    
Cr1   O13   1.981308 S    
O1    C3    1.267461 A    
C54   H15   1.084304 S    
C18   C21   1.445619 S    
C19   C20   1.443882 S    
O6    C3    1.278250 A    
C38   H13   1.083427 S    
C9    C10   1.389993 A    
C47   C48   1.399257 A    
O12   Cr3   1.944108 S    
C7    C56   1.450471 S    
C10   N6    1.437963 S    
C7    C15   1.411636 A    
C44   H12   1.082747 S    
C16   H3    1.084058 S    
C13   C14   1.368338 A    
C23   C57   1.439789 S    
O16   Cr5   2.025566 S    
O14   Cr4   2.043421 S    
O17   Cr5   1.944971 S    
C53   C54   1.390415 A    
C47   C51   1.430173 A    
O7    Cr1   2.049289 S    
N4    O31   1.301654 A    
O8    Cr1   1.921301 S    
C37   C38   1.388320 A    
O12   C6    1.272657 A    
C45   C52   1.419976 A    
O20   Cr4   2.047078 S    
Cr2   O13   1.976844 S    
C45   C60   1.475053 S    
C4    C46   1.461319 S    
N6    O33   1.301576 A    
N5    H21   1.045634 S    
C1    O3    1.262144 A    
C15   N3    1.439934 S    
O25   Cr6   1.945327 S    
N2    H18   1.044434 S    
C31   H8    1.086683 S    
C24   C27   1.446372 S    
C25   C26   1.445504 S    
O22   Cr5   2.060809 S    
C19   N7    1.436592 S    
O9    Cr2   2.058813 S    
O2    Cr1   1.930376 S    
C52   N2    1.441012 S    
C46   C48   1.395749 A    
C50   C51   1.415215 A    
N7    H23   1.046252 S    
O8    C4    1.277691 A    
C6    C36   1.440098 S    
C2    O5    1.271921 A    
C11   H4    1.084880 S    
C25   H6    1.085442 S    
O21   Cr4   1.927592 S    
C58   O22   1.271219 A    
C39   C40   1.376619 A    
C32   C34   1.206477 T    
O2    C1    1.283655 A    
O15   C55   1.273994 A    
C18   H5    1.086866 S    
O5    Cr3   2.064608 S    
C45   C53   1.408358 A    
C55   O16   1.274398 A    
O4    C2    1.265859 A    
C29   C33   1.206161 T    
O7    C6    1.266858 A    
C40   C44   1.392692 A    
O17   C56   1.277096 A    
N3    O30   1.301270 A    
C37   H11   1.081597 S    
C17   C21   1.206577 T    
C59   O24   1.264370 A    
N1    O28   1.299489 A    
O19   Cr6   1.910085 S    
C49   C50   1.382097 A    
O3    Cr2   2.031640 S    
C24   C25   1.341392 D    
C4    O9    1.262118 A    
C35   C43   1.400420 A    
C43   H10   1.083704 S    
C40   C41   1.413213 A    
C11   C12   1.381028 A    
N6    O34   1.301508 A    
C39   H14   1.085780 S    
O10   C5    1.273284 A    
N5    H20   1.042537 S    
C23   C27   1.208855 T    
N2    H19   1.044459 S    
Cr4   O26   1.978863 S    
