data_mof_unit_17960.cif
_audit_creation_date              2013-03-05T15:41:12-0500
_audit_creation_method            fapswitch 2.2
_symmetry_space_group_name_H-M    P1
_symmetry_Int_Tables_number       1
_space_group_crystal_system       triclinic
_cell_length_a                    16.860237
_cell_length_b                    16.71777
_cell_length_c                    16.788794
_cell_angle_alpha                 68.263515
_cell_angle_beta                  68.530575
_cell_angle_gamma                 68.490489
_cell_volume                      3941.79988184

loop_
_atom_site_label
_atom_site_type_symbol
_atom_site_description
_atom_site_fract_x
_atom_site_fract_y
_atom_site_fract_z
_atom_type_partial_charge
O1    O     O_R   0.124540 0.978640 0.385460 -0.605044
O2    O     O_R   0.875460 0.021360 0.614540 -0.536382
O3    O     O_R   0.978640 0.385460 0.124540 -0.560757
O4    O     O_R   0.021360 0.614540 0.875460 -0.610724
O5    O     O_R   0.385460 0.124540 0.978640 -0.609021
O6    O     O_R   0.614540 0.875460 0.021360 -0.604105
O7    O     O_R   0.614540 0.021360 0.875460 -0.575845
O8    O     O_R   0.385460 0.978640 0.124540 -0.543781
O9    O     O_R   0.875460 0.614540 0.021360 -0.534365
O10   O     O_R   0.124540 0.385460 0.978640 -0.527665
O11   O     O_R   0.021360 0.875460 0.614540 -0.568336
O12   O     O_R   0.978640 0.124540 0.385460 -0.582244
C1    C     C_R   0.314825 0.992945 0.437864 -0.062698
C2    C     C_R   0.680983 0.037059 0.548403 -0.089228
C3    C     C_R   0.953020 0.453558 0.323490 -0.084598
C4    C     C_R   0.046396 0.546090 0.677859 -0.018781
C5    C     C_R   0.452698 0.330700 0.937356 -0.071845
C6    C     C_R   0.551222 0.678435 0.036059 -0.023407
C7    C     C_R   0.569034 0.995036 0.687810 -0.068312
C8    C     C_R   0.451539 0.958461 0.320886 -0.094823
C9    C     C_R   0.691847 0.578576 0.975200 -0.096485
C10   C     C_R   0.319446 0.453672 0.957139 -0.090571
C11   C     C_R   0.044333 0.676650 0.548717 -0.094153
C12   C     C_R   0.956105 0.322563 0.451416 -0.030020
Cu1   Cu    Cu3+1 0.995180 0.995180 0.424630 1.055824
Cu2   Cu    Cu3+1 0.004820 0.004820 0.575370 1.112746
Cu3   Cu    Cu3+1 0.995180 0.424630 0.995180 1.125294
Cu4   Cu    Cu3+1 0.004820 0.575370 0.004820 1.078416
Cu5   Cu    Cu3+1 0.424630 0.995180 0.995180 1.082225
Cu6   Cu    Cu3+1 0.575370 0.004820 0.004820 1.065118
C13   C     C_R   0.028011 0.828161 0.564756 0.842603
C14   C     C_R   0.976216 0.170983 0.433893 0.875228
C15   C     C_R   0.830984 0.569640 0.014040 0.884546
C16   C     C_R   0.170373 0.433597 0.977821 0.862563
C17   C     C_R   0.568341 0.018520 0.829953 0.882804
C18   C     C_R   0.435266 0.972598 0.171343 0.853077
C19   C     C_R   0.434825 0.171794 0.973670 0.830081
C20   C     C_R   0.564248 0.828040 0.029062 0.880632
C21   C     C_R   0.974935 0.434657 0.171197 0.844042
C22   C     C_R   0.030372 0.563849 0.828098 0.879030
C23   C     C_R   0.170387 0.979817 0.432389 0.850179
C24   C     C_R   0.828711 0.028146 0.564200 0.856920
O13   O     O_R   0.013780 0.867370 0.487190 -0.577595
O14   O     O_R   0.986220 0.132630 0.512810 -0.525295
O15   O     O_R   0.867370 0.487190 0.013780 -0.563609
O16   O     O_R   0.132630 0.512810 0.986220 -0.591014
O17   O     O_R   0.487190 0.013780 0.867370 -0.564474
O18   O     O_R   0.512810 0.986220 0.132630 -0.589160
O19   O     O_R   0.512810 0.132630 0.986220 -0.544537
O20   O     O_R   0.487190 0.867370 0.013780 -0.519240
O21   O     O_R   0.986220 0.512810 0.132630 -0.572521
O22   O     O_R   0.013780 0.487190 0.867370 -0.499301
O23   O     O_R   0.132630 0.986220 0.512810 -0.555933
O24   O     O_R   0.867370 0.013780 0.487190 -0.572881
C25   C     C_R   0.407639 0.978209 0.403426 -0.012651
C26   C     C_R   0.601586 0.011502 0.594132 -0.004978
C27   C     C_R   0.961748 0.411146 0.410798 -0.004467
C28   C     C_R   0.035251 0.589068 0.591475 -0.008003
C29   C     C_R   0.409778 0.415877 0.952435 -0.017899
C30   C     C_R   0.597987 0.605798 0.998316 0.009285
C31   C     C_R   0.266403 0.976925 0.393215 -0.121684
C32   C     C_R   0.731346 0.039437 0.599101 -0.048745
C33   C     C_R   0.965325 0.399179 0.268614 -0.073388
C34   C     C_R   0.047712 0.597652 0.728960 -0.081609
C35   C     C_R   0.398744 0.270882 0.960661 -0.103653
C36   C     C_R   0.600142 0.729359 0.040589 -0.093043
C37   C     C_R   0.609782 0.017799 0.734564 -0.113597
C38   C     C_R   0.400454 0.958832 0.269608 -0.033775
C39   C     C_R   0.736498 0.611608 0.010146 -0.084598
C40   C     C_R   0.267035 0.398600 0.967917 -0.051023
C41   C     C_R   0.045657 0.728511 0.598835 -0.043943
C42   C     C_R   0.966937 0.268465 0.397411 -0.081658
C43   C     C_R   0.496708 0.955730 0.730918 0.332161
C44   C     C_R   0.545634 0.939275 0.292721 0.336606
C45   C     C_R   0.056951 0.707107 0.455315 0.340890
C46   C     C_R   0.938686 0.291649 0.545277 0.352712
C47   C     C_R   0.735630 0.522115 0.916587 0.337162
C48   C     C_R   0.285649 0.546383 0.950784 0.345153
C49   C     C_R   0.274740 0.024366 0.515633 0.338145
C50   C     C_R   0.706592 0.061570 0.453381 0.331757
C51   C     C_R   0.545978 0.313232 0.896615 0.345689
C52   C     C_R   0.457557 0.697622 0.069350 0.332735
C53   C     C_R   0.931123 0.548581 0.295560 0.321344
C54   C     C_R   0.063374 0.451420 0.707198 0.380256
C55   C     C_R   0.311611 0.956950 0.310070 0.073089
C56   C     C_R   0.691520 0.040004 0.688506 0.080181
C57   C     C_R   0.981937 0.306074 0.304655 0.088639
C58   C     C_R   0.053459 0.686846 0.686422 0.080777
C59   C     C_R   0.305203 0.306183 0.981619 0.082707
C60   C     C_R   0.689121 0.687994 0.042042 0.072972
C61   C     C_R   0.670302 0.032098 0.407997 -0.033773
C62   C     C_R   0.326586 0.000594 0.575237 -0.008765
C63   C     C_R   0.032423 0.408274 0.669720 0.002959
C64   C     C_R   0.956685 0.594023 0.335698 -0.032011
C65   C     C_R   0.409865 0.660563 0.043765 0.003244
C66   C     C_R   0.593634 0.372551 0.889341 -0.022373
C67   C     C_R   0.587048 0.975351 0.326041 -0.013950
C68   C     C_R   0.436509 0.973127 0.681900 -0.011539
C69   C     C_R   0.322670 0.582178 0.988356 -0.012180
C70   C     C_R   0.687463 0.479144 0.898474 -0.011766
C71   C     C_R   0.970779 0.327667 0.588441 -0.027736
C72   C     C_R   0.017806 0.673577 0.417350 -0.016983
C73   C     C_R   0.707681 0.029584 0.317536 0.105767
C74   C     C_R   0.290602 0.990391 0.667787 0.145582
C75   C     C_R   0.022279 0.320398 0.711144 0.121646
C76   C     C_R   0.960451 0.684583 0.297994 0.109940
C77   C     C_R   0.316471 0.691947 0.055734 0.127175
C78   C     C_R   0.679971 0.373058 0.832940 0.092240
C79   C     C_R   0.667067 0.999058 0.277635 0.127399
C80   C     C_R   0.345875 0.975586 0.721560 0.149488
C81   C     C_R   0.273659 0.653711 0.026216 0.129290
C82   C     C_R   0.724506 0.429823 0.834159 0.121494
C83   C     C_R   0.990944 0.280785 0.671185 0.107619
C84   C     C_R   0.990918 0.723778 0.338991 0.125544
C85   C     C_R   0.545278 0.989009 0.410638 -0.023301
C86   C     C_R   0.469448 0.988320 0.589251 -0.023578
C87   C     C_R   0.985669 0.413236 0.544886 -0.026676
C88   C     C_R   0.004015 0.588138 0.460649 -0.022621
C89   C     C_R   0.412441 0.545259 0.985190 -0.023095
C90   C     C_R   0.596683 0.491668 0.940477 -0.029009
C91   C     C_R   0.590737 0.006947 0.454926 -0.017365
C92   C     C_R   0.417592 0.991042 0.538882 -0.020564
C93   C     C_R   0.457676 0.588911 0.004490 -0.008607
C94   C     C_R   0.549821 0.441136 0.932475 -0.027915
C95   C     C_R   0.010997 0.455167 0.587570 -0.023522
C96   C     C_R   0.978781 0.546572 0.417812 -0.018349
C97   C     C_R   0.456991 0.985719 0.451100 0.014883
C98   C     C_R   0.554430 0.001542 0.546167 0.018734
C99   C     C_R   0.973004 0.457941 0.458790 0.014008
C100  C     C_R   0.018729 0.543198 0.545794 0.017430
C101  C     C_R   0.457775 0.466557 0.957718 0.010814
C102  C     C_R   0.550854 0.560754 0.983206 0.020761
N1    N     N_3   0.269440 0.932529 0.265418 -0.476413
H1    H     H_    0.245156 0.877663 0.307131 0.318972
H2    H     H_    0.220280 0.987414 0.242396 0.235211
N2    N     N_3   0.735978 0.064758 0.730388 -0.477246
H3    H     H_    0.757267 0.010859 0.781469 0.246180
H4    H     H_    0.695539 0.121182 0.751443 0.332453
N3    N     N_3   0.022903 0.250225 0.244725 -0.559119
H5    H     H_    0.080036 0.202712 0.260079 0.226366
H6    H     H_    0.977504 0.221459 0.244401 0.282401
N4    N     N_3   0.071086 0.735770 0.729805 -0.529498
H7    H     H_    0.124742 0.697360 0.756410 0.305961
H8    H     H_    0.014360 0.757139 0.777884 0.247632
N5    N     N_3   0.246541 0.248993 0.024713 -0.561074
H9    H     H_    0.263730 0.201338 0.081339 0.216960
H10   H     H_    0.244742 0.220515 0.979712 0.281224
N6    N     N_3   0.730911 0.720882 0.079645 -0.467710
H11   H     H_    0.753791 0.774750 0.032376 0.250374
H12   H     H_    0.686634 0.739451 0.136375 0.314292
N7    N     N_3   0.308342 0.972959 0.813991 -0.538123
H13   H     H_    0.261719 0.033953 0.819064 0.204933
H14   H     H_    0.276155 0.922095 0.845852 0.236410
N8    N     N_3   0.701851 0.000906 0.185213 -0.541439
H15   H     H_    0.701441 0.066610 0.147228 0.208724
H16   H     H_    0.767067 0.961076 0.174401 0.229070
N9    N     N_3   0.986978 0.817280 0.305913 -0.544777
H17   H     H_    0.023529 0.831250 0.239329 0.224966
H18   H     H_    0.921018 0.853656 0.310044 0.202711
N10   N     N_3   0.985282 0.190487 0.712597 -0.501107
H19   H     H_    0.047150 0.149092 0.720060 0.242523
H20   H     H_    0.940512 0.186584 0.775542 0.206180
N11   N     N_3   0.802059 0.444531 0.763926 -0.505604
H21   H     H_    0.848338 0.382967 0.763171 0.219427
H22   H     H_    0.785754 0.472932 0.703177 0.224105
N12   N     N_3   0.179233 0.682175 0.041273 -0.551512
H23   H     H_    0.149989 0.670237 0.109751 0.203289
H24   H     H_    0.159868 0.750681 0.011144 0.228325
N13   N     N_3   0.200371 0.986825 0.707815 -0.545138
H25   H     H_    0.199942 0.922816 0.750499 0.232781
H26   H     H_    0.168342 0.032440 0.745925 0.207826
N14   N     N_3   0.789605 0.051867 0.267629 -0.518901
H27   H     H_    0.836151 0.996710 0.247239 0.194343
H28   H     H_    0.779691 0.104833 0.211350 0.233201
N15   N     N_3   0.719114 0.323490 0.767868 -0.463116
H29   H     H_    0.728288 0.367723 0.704187 0.252598
H30   H     H_    0.780325 0.281022 0.777040 0.249248
N16   N     N_3   0.265654 0.766904 0.091074 -0.493385
H31   H     H_    0.238094 0.818990 0.042565 0.209818
H32   H     H_    0.214792 0.748494 0.146338 0.254715
N17   N     N_3   0.939141 0.735671 0.215307 -0.508721
H33   H     H_    0.887800 0.792863 0.224606 0.241560
H34   H     H_    0.994704 0.754748 0.168489 0.195125
N18   N     N_3   0.034990 0.274154 0.798219 -0.501946
H35   H     H_    0.975514 0.261870 0.842448 0.218507
H36   H     H_    0.083229 0.213448 0.796341 0.222148
N19   N     N_R   0.502690 0.878318 0.807597 0.148817
O25   O     O_R   0.576644 0.841313 0.830559 -0.404746
O26   O     O_R   0.445785 0.831242 0.839109 -0.346465
N20   N     N_R   0.597051 0.864877 0.254378 0.150633
O27   O     O_R   0.557170 0.813662 0.250006 -0.344936
O28   O     O_R   0.681657 0.833747 0.246766 -0.335321
N21   N     N_R   0.129394 0.747012 0.399809 0.157555
O29   O     O_R   0.156639 0.754909 0.314764 -0.355123
O30   O     O_R   0.182642 0.752820 0.436130 -0.358442
N22   N     N_R   0.863600 0.254544 0.592718 0.104342
O31   O     O_R   0.794944 0.286299 0.561064 -0.321383
O32   O     O_R   0.866221 0.183403 0.659617 -0.318661
N23   N     N_R   0.826462 0.514746 0.869417 0.128396
O33   O     O_R   0.850328 0.585355 0.813213 -0.410858
O34   O     O_R   0.882889 0.436237 0.874622 -0.354785
N24   N     N_R   0.244735 0.604882 0.879791 0.153656
O35   O     O_R   0.245033 0.572552 0.819994 -0.359732
O36   O     O_R   0.224802 0.691316 0.863304 -0.368538
N25   N     N_R   0.201018 0.104018 0.514821 0.154230
O37   O     O_R   0.176303 0.148715 0.441965 -0.409341
O38   O     O_R   0.174662 0.144665 0.576401 -0.362693
N26   N     N_R   0.740894 0.138992 0.408089 0.139256
O39   O     O_R   0.699798 0.211118 0.434695 -0.302377
O40   O     O_R   0.817564 0.135379 0.349981 -0.324612
N27   N     N_R   0.590061 0.242517 0.854496 0.142122
O41   O     O_R   0.658723 0.181329 0.877130 -0.369780
O42   O     O_R   0.559403 0.237195 0.796391 -0.365726
N28   N     N_R   0.417519 0.729604 0.147706 0.133332
O43   O     O_R   0.445150 0.683237 0.218604 -0.290231
O44   O     O_R   0.364087 0.809067 0.145685 -0.287835
N29   N     N_R   0.858328 0.594236 0.255389 0.153310
O45   O     O_R   0.866996 0.651325 0.177251 -0.291596
O46   O     O_R   0.785881 0.568585 0.292335 -0.303067
N30   N     N_R   0.138190 0.402371 0.744203 0.120699
O47   O     O_R   0.212629 0.423875 0.703214 -0.315959
O48   O     O_R   0.130834 0.345539 0.822541 -0.316327

loop_
_geom_bond_atom_site_label_1
_geom_bond_atom_site_label_2
_geom_bond_distance
_ccdc_geom_bond_type
C7    C26   1.417309 A    
O10   Cu3   1.976579 S    
C11   C28   1.409962 A    
C2    C26   1.410011 A    
C1    C49   1.427980 A    
N20   O27   1.302077 A    
C68   C80   1.417595 A    
O5    C19   1.306234 A    
C93   C102  1.410205 A    
C15   O15   1.287905 A    
N13   H25   1.045259 S    
C13   O13   1.290038 A    
C21   O21   1.275932 A    
N11   H21   1.040092 S    
C23   C31   1.497445 S    
C17   O17   1.298611 A    
Cu1   O13   1.963285 S    
N30   O48   1.299734 A    
N5    H9    1.045888 S    
Cu2   O14   1.963284 S    
C14   C42   1.483010 S    
N25   O37   1.302278 A    
Cu3   O22   1.970341 S    
C59   N5    1.439826 S    
C32   C56   1.404295 A    
Cu4   O16   1.982825 S    
N9    H17   1.044909 S    
N24   O36   1.301263 A    
C76   C84   1.416573 A    
C85   C91   1.407527 A    
O8    Cu5   1.966854 S    
C75   C83   1.418733 A    
N11   H22   1.045006 S    
N6    H12   1.043722 S    
C53   N29   1.442726 S    
Cu4   O21   1.970340 S    
N28   O44   1.299568 A    
C34   C58   1.417543 A    
C65   C93   1.416792 A    
C2    C32   1.423358 A    
C78   N15   1.434384 S    
C4    C54   1.422323 A    
C85   C97   1.404413 A    
N18   H35   1.045054 S    
C47   C70   1.427761 A    
O8    C18   1.301843 A    
C92   C97   1.399396 A    
C60   N6    1.436680 S    
C54   N30   1.444753 S    
C63   C75   1.418297 A    
C52   N28   1.441642 S    
O4    Cu4   1.964815 S    
C95   C100  1.408543 A    
C20   C36   1.497477 S    
N26   O39   1.301253 A    
N21   O30   1.302197 A    
C19   C35   1.500723 S    
Cu6   O18   1.975636 S    
C45   C72   1.414196 A    
C89   C101  1.407834 A    
N7    H13   1.045205 S    
O6    C20   1.304186 A    
C7    C37   1.428520 A    
C69   C81   1.403862 A    
C16   O16   1.277952 A    
C2    C50   1.428522 A    
C67   C85   1.398352 A    
C87   C99   1.415011 A    
C16   C40   1.483402 S    
N8    H16   1.044922 S    
C72   C88   1.404783 A    
C15   C39   1.502323 S    
Cu3   O15   1.982826 S    
C50   N26   1.444285 S    
N17   H34   1.044776 S    
C66   C78   1.417670 A    
O3    C21   1.302938 A    
N23   O33   1.300407 A    
N9    H18   1.044146 S    
O7    Cu6   1.966856 S    
C44   N20   1.451457 S    
C65   C77   1.426815 A    
N7    H14   1.045321 S    
O1    Cu1   1.976961 S    
C38   C55   1.407144 A    
N13   H26   1.043565 S    
C30   C102  1.410970 A    
N12   H23   1.044947 S    
C77   C81   1.417741 A    
C8    C25   1.409248 A    
C83   N10   1.432154 S    
C6    C52   1.422820 A    
C58   N4    1.437268 S    
N30   O47   1.301305 A    
C43   N19   1.451761 S    
N14   H28   1.045054 S    
N16   H31   1.045209 S    
C44   C67   1.417337 A    
O5    Cu5   1.957614 S    
Cu5   O20   1.967172 S    
C64   C96   1.420497 A    
C43   C68   1.417638 A    
N24   O35   1.302382 A    
N5    H10   1.045039 S    
C11   C41   1.424234 A    
C7    C43   1.425457 A    
N12   H24   1.044855 S    
C49   N25   1.450360 S    
Cu1   O24   1.984245 S    
C10   C48   1.418708 A    
C91   C98   1.407486 A    
N15   H30   1.044467 S    
C80   N7    1.435813 S    
C57   N3    1.440593 S    
C10   C29   1.402960 A    
C51   C66   1.437615 A    
C66   C94   1.409638 A    
N28   O43   1.300923 A    
C12   C46   1.416286 A    
C3    C53   1.422909 A    
O11   Cu2   1.955950 S    
C46   N22   1.446948 S    
Cu1   Cu2   2.660720 S    
N17   H33   1.045256 S    
C53   C64   1.431374 A    
C69   C89   1.398216 A    
O6    Cu6   1.957614 S    
C78   C82   1.418788 A    
C94   C101  1.391748 A    
C9    C39   1.443624 A    
N10   H20   1.044956 S    
C35   C59   1.422839 A    
C84   N9    1.436708 S    
O4    C22   1.299889 A    
Cu5   Cu6   2.670623 S    
C88   C100  1.413103 A    
C62   C92   1.399767 A    
C19   O19   1.292757 A    
C68   C86   1.403882 A    
N27   O41   1.302562 A    
C17   C37   1.497351 S    
O2    C24   1.303616 A    
C29   C101  1.411236 A    
C14   O14   1.284542 A    
C8    C44   1.425965 A    
O10   C16   1.298083 A    
C81   N12   1.436642 S    
C4    C28   1.408392 A    
N6    H11   1.044481 S    
C72   C84   1.407243 A    
C79   N8    1.436722 S    
C47   N23   1.426120 S    
C23   O23   1.291351 A    
N8    H15   1.045033 S    
C31   C55   1.421543 A    
C86   C92   1.401814 A    
C9    C30   1.419573 A    
C70   C90   1.402871 A    
C45   N21   1.452297 S    
C56   N2    1.433997 S    
C51   N27   1.428343 S    
Cu6   O19   1.967172 S    
Cu5   O17   1.975638 S    
C70   C82   1.422671 A    
C77   N16   1.430977 S    
C61   C91   1.411274 A    
N1    H1    1.043614 S    
N4    H8    1.044904 S    
C40   C59   1.403605 A    
C6    C36   1.421165 A    
C39   C60   1.414538 A    
Cu2   O23   1.984245 S    
C48   C69   1.409721 A    
C42   C57   1.409776 A    
C11   C45   1.416799 A    
N14   H27   1.043942 S    
C12   C42   1.427723 A    
N2    H4    1.038521 S    
C49   C62   1.419296 A    
C12   C27   1.405344 A    
C27   C99   1.408858 A    
C46   C71   1.424661 A    
N27   O42   1.301484 A    
C82   N11   1.432809 S    
C24   C32   1.491448 S    
C64   C76   1.424102 A    
C37   C56   1.420353 A    
N20   O28   1.301332 A    
C52   C65   1.424837 A    
C33   C57   1.405021 A    
C90   C102  1.413889 A    
O7    C17   1.297044 A    
C8    C38   1.420555 A    
C48   N24   1.447993 S    
C61   C73   1.425733 A    
N22   O31   1.301877 A    
O9    C15   1.299779 A    
C22   C34   1.497792 S    
O2    Cu2   1.976960 S    
C25   C97   1.409713 A    
O1    C23   1.298890 A    
N16   H32   1.044305 S    
N3    H5    1.046091 S    
C18   C38   1.492711 S    
C20   O20   1.295668 A    
C89   C93   1.408335 A    
N29   O46   1.301212 A    
C21   C33   1.486916 S    
C76   N17   1.430935 S    
C5    C35   1.448241 A    
C96   C99   1.407136 A    
O12   Cu1   1.955950 S    
C73   C79   1.422432 A    
C71   C87   1.413615 A    
N10   H19   1.041528 S    
C50   C61   1.427618 A    
O3    Cu3   1.964813 S    
C67   C79   1.410201 A    
C5    C29   1.411635 A    
N19   O25   1.302163 A    
C88   C96   1.411400 A    
N15   H29   1.044532 S    
C22   O22   1.287413 A    
C24   O24   1.285479 A    
C74   C80   1.423354 A    
N3    H6    1.045033 S    
C73   N14   1.430977 S    
C28   C100  1.415096 A    
C3    C27   1.408738 A    
N29   O45   1.299139 A    
C13   C41   1.498793 S    
C36   C60   1.408169 A    
N18   H36   1.045033 S    
C18   O18   1.292404 A    
C5    C51   1.431886 A    
C54   C63   1.428668 A    
C26   C98   1.404767 A    
C75   N18   1.432299 S    
C71   C83   1.415470 A    
C63   C95   1.415431 A    
N19   O26   1.301347 A    
N22   O32   1.298579 A    
C62   C74   1.414576 A    
O11   C13   1.300883 A    
C41   C58   1.407323 A    
C1    C31   1.434287 A    
C6    C30   1.414153 A    
N26   O40   1.299863 A    
N21   O29   1.300712 A    
C86   C98   1.407193 A    
C9    C47   1.431597 A    
Cu3   Cu4   2.650452 S    
N23   O34   1.302161 A    
N1    H2    1.045194 S    
C3    C33   1.435425 A    
N4    H7    1.042878 S    
N2    H3    1.045008 S    
C4    C34   1.433618 A    
N25   O38   1.300273 A    
C87   C95   1.415233 A    
C10   C40   1.420362 A    
O12   C14   1.298353 A    
C90   C94   1.416745 A    
O9    Cu4   1.976579 S    
C55   N1    1.436639 S    
C74   N13   1.434586 S    
C1    C25   1.415733 A    
