data_mof_unit_20491.cif
_audit_creation_date              2012-12-10T19:09:38-0500
_audit_creation_method            fapswitch 2.2
_symmetry_space_group_name_H-M    P1
_symmetry_Int_Tables_number       1
_space_group_crystal_system       triclinic
_cell_length_a                    9.570146
_cell_length_b                    10.792889
_cell_length_c                    17.078965
_cell_angle_alpha                 89.01974
_cell_angle_beta                  94.811388
_cell_angle_gamma                 89.831737
_cell_volume                      1757.58772714

loop_
_atom_site_label
_atom_site_type_symbol
_atom_type_description
_atom_site_fract_x
_atom_site_fract_y
_atom_site_fract_z
_atom_type_partial_charge
C1    C     C_R   0.500060 0.262622 0.500439 0.791106
C2    C     C_R   0.652607 0.440127 0.777236 -0.333857
C3    C     C_R   0.590693 0.455546 0.144063 -0.172246
C4    C     C_R   0.594070 0.464166 0.225319 -0.299259
C5    C     C_R   0.463412 0.471905 0.097573 0.323403
C6    C     C_R   0.471925 0.492564 0.262036 -0.140743
C7    C     C_R   0.344763 0.513128 0.215083 0.452335
C8    C     C_R   0.341221 0.495811 0.133664 -0.292805
C9    C     C_R   0.580686 0.062262 0.559206 0.118173
C10   C     C_R   0.497479 0.129473 0.502522 -0.079381
C11   C     C_R   0.396738 0.066326 0.454006 -0.213738
C12   C     C_R   0.518628 0.497212 0.650803 0.813418
C13   C     C_R   0.396471 0.937035 0.454529 -0.230832
C14   C     C_R   0.496113 0.870651 0.503878 -0.091970
C15   C     C_R   0.578966 0.934957 0.560588 0.120217
C16   C     C_3   0.730181 0.926297 0.589558 -0.477465
C17   C     C_3   0.732785 0.067402 0.586134 -0.484855
C18   C     C_R   0.072254 0.608421 0.493162 0.183907
C19   C     C_R   0.076768 0.394579 0.515212 -0.057886
C20   C     C_R   0.928487 0.394685 0.515350 -0.069230
C21   C     C_R   0.925124 0.608494 0.492788 0.187465
C22   C     C_3   0.910148 0.701129 0.426538 0.274954
C23   C     C_R   0.499707 0.737431 0.501087 0.776879
C24   C     C_3   0.069051 0.699397 0.426754 -0.563469
C25   C     C_R   0.481659 0.500046 0.348740 0.805741
C26   C     C_R   0.532211 0.491927 0.736722 -0.071943
C27   C     C_R   0.423934 0.536597 0.778529 -0.234956
C28   C     C_R   0.434920 0.528831 0.859947 -0.257925
C29   C     C_R   0.554220 0.474248 0.901280 0.320068
C30   C     C_R   0.665944 0.433209 0.859983 0.441833
Cu1   Cu    Cu3+1 0.640670 0.499980 0.500000 0.965094
Cu2   Cu    Cu3+1 0.359330 0.500020 0.500000 0.960560
H1    H     H_    0.693453 0.449038 0.259400 0.214713
H2    H     H_    0.323532 0.889683 0.413851 0.155366
H3    H     H_    0.745125 0.887697 0.650455 0.196437
H4    H     H_    0.796008 0.883184 0.547330 0.189651
H5    H     H_    0.751874 0.109979 0.644849 0.193069
H6    H     H_    0.797338 0.104231 0.539974 0.196448
H7    H     H_    0.132978 0.308415 0.526671 0.141364
H8    H     H_    0.876196 0.308933 0.527037 0.131745
H9    H     H_    0.867850 0.790825 0.444777 0.056049
H10   H     H_    0.109041 0.657993 0.374233 0.254369
H11   H     H_    0.687543 0.436069 0.118028 0.177091
H12   H     H_    0.117087 0.788998 0.444825 0.158196
H13   H     H_    0.734012 0.402461 0.744244 0.159100
H14   H     H_    0.349575 0.565520 0.890487 0.169357
H15   H     H_    0.243199 0.504954 0.097426 0.140313
H16   H     H_    0.330816 0.578028 0.748251 0.165602
H17   H     H_    0.323457 0.116518 0.413175 0.156170
N1    N     N_2   0.567530 0.464471 0.984592 -0.215498
N2    N     N_2   0.453349 0.472463 0.014334 -0.259403
N3    N     N_R   0.147870 0.500930 0.499500 -0.165180
N4    N     N_R   0.851960 0.500890 0.499500 -0.161273
O1    O     O_R   0.618810 0.319640 0.500000 -0.591449
O2    O     O_R   0.381230 0.319680 0.499990 -0.593412
O3    O     O_R   0.631790 0.498830 0.613930 -0.589247
O4    O     O_R   0.394210 0.498870 0.613920 -0.581878
O5    O     O_R   0.618770 0.680320 0.500010 -0.585195
O6    O     O_R   0.381190 0.680360 0.500000 -0.581102
O7    O     O_R   0.605790 0.501130 0.386080 -0.537478
O8    O     O_R   0.368210 0.501170 0.386070 -0.532732
O9    O     O_3   0.841331 0.650632 0.357905 -0.554689
C31   C     C_3   0.811483 0.745137 0.300380 0.064802
H18   H     H_    0.804218 0.700955 0.241909 0.159879
H19   H     H_    0.896715 0.815158 0.299865 0.117325
C32   C     C_3   0.671022 0.808963 0.310974 -0.340104
H20   H     H_    0.586313 0.738974 0.309084 0.211609
H21   H     H_    0.674793 0.854983 0.368689 0.213545
C33   C     C_3   0.636436 0.906727 0.246681 -0.923227
H22   H     H_    0.721190 0.976850 0.246827 0.260907
H23   H     H_    0.537321 0.954636 0.257428 0.263781
H24   H     H_    0.623462 0.862681 0.188224 0.257830
O10   O     O_3   0.778595 0.374205 0.902104 -0.604777
C34   C     C_3   0.909928 0.412513 0.877678 0.050984
H25   H     H_    0.975890 0.441079 0.930939 0.164100
H26   H     H_    0.904683 0.494674 0.836938 0.120381
C35   C     C_3   0.982181 0.303252 0.841301 -0.342927
H27   H     H_    0.993360 0.225120 0.884683 0.232998
H28   H     H_    0.917408 0.270917 0.788633 0.206984
C36   C     C_3   0.127115 0.338915 0.817552 -0.902752
H29   H     H_    0.118832 0.416973 0.774116 0.253044
H30   H     H_    0.175830 0.258462 0.790445 0.259921
H31   H     H_    0.195527 0.366241 0.870140 0.266819
O11   O     O_3   0.224362 0.547670 0.249161 -0.595068
C37   C     C_3   0.175927 0.665390 0.219729 0.046639
H32   H     H_    0.071482 0.681123 0.241192 0.170666
H33   H     H_    0.157569 0.669416 0.154634 0.123877
C38   C     C_3   0.275393 0.769614 0.248580 -0.397990
H34   H     H_    0.310569 0.753106 0.311432 0.221344
H35   H     H_    0.369191 0.768799 0.214471 0.218388
C39   C     C_3   0.205227 0.896650 0.238544 -0.913120
H36   H     H_    0.166484 0.913599 0.176138 0.262745
H37   H     H_    0.281893 0.969793 0.256705 0.257008
H38   H     H_    0.116413 0.902792 0.276071 0.245291

loop_
_geom_bond_atom_site_label_1
_geom_bond_atom_site_label_2
_ccdc_geom_bond_type
C27   H16   S    
Cu1   O7    S    
C23   O5    A    
C32   H21   S    
C31   H19   S    
C18   C21   A    
C24   H10   S    
O10   C34   S    
C19   C20   A    
C18   N3    A    
C7    C8    A    
C35   H27   S    
C23   O6    A    
C28   H14   S    
C26   C27   A    
O9    C31   S    
C34   H26   S    
C18   C24   S    
Cu1   O5    S    
C28   C29   A    
Cu2   O8    S    
C16   H3    S    
C20   H8    S    
C37   C38   S    
C32   C33   S    
C39   H37   S    
C15   C16   S    
C33   H23   S    
Cu2   N3    S    
C19   N3    A    
C16   C17   S    
C34   C35   S    
C25   O7    A    
Cu1   O3    S    
C9    C10   A    
Cu2   O2    S    
C35   H28   S    
C32   H20   S    
C31   C32   S    
C21   C22   S    
Cu2   O4    S    
C36   H31   S    
C29   N1    S    
C37   H33   S    
C2    H13   S    
C34   H25   S    
O11   C37   S    
C4    C6    A    
C39   H36   S    
C30   O10   S    
C20   N4    A    
C17   H5    S    
C37   H32   S    
C12   C26   S    
C14   C23   S    
C33   H24   S    
C1    O1    A    
C29   C30   A    
C11   H17   S    
C22   O9    S    
Cu1   Cu2   S    
C38   C39   S    
C3    H11   S    
N1    N2    D    
C2    C26   A    
C25   O8    A    
Cu1   N4    S    
C12   O3    A    
C19   H7    S    
C12   O4    A    
C36   H30   S    
C38   H35   S    
C24   H12   S    
C22   C24   S    
C3    C4    A    
C35   C36   S    
C9    C17   S    
C4    H1    S    
C1    C10   S    
C36   H29   S    
C3    C5    A    
C5    C8    A    
C6    C7    A    
C2    C30   A    
C1    O2    A    
C8    H15   S    
C13   H2    S    
C16   H4    S    
C39   H38   S    
C21   N4    A    
C6    C25   S    
C11   C13   A    
C7    O11   S    
C17   H6    S    
Cu1   O1    S    
C9    C15   A    
C33   H22   S    
C10   C11   A    
C31   H18   S    
C22   H9    S    
C38   H34   S    
C27   C28   A    
C14   C15   A    
C5    N2    S    
Cu2   O6    S    
C13   C14   A    
