data_mof_unit_15632.cif
_audit_creation_date              2012-12-11T14:39:28-0500
_audit_creation_method            fapswitch 2.2
_symmetry_space_group_name_H-M    P1
_symmetry_Int_Tables_number       1
_space_group_crystal_system       triclinic
_cell_length_a                    8.277196
_cell_length_b                    15.032428
_cell_length_c                    17.358514
_cell_angle_alpha                 99.032114
_cell_angle_beta                  97.213826
_cell_angle_gamma                 99.294126
_cell_volume                      2079.68017481

loop_
_atom_site_label
_atom_site_type_symbol
_atom_type_description
_atom_site_fract_x
_atom_site_fract_y
_atom_site_fract_z
_atom_type_partial_charge
Ba1   Ba    Ba6+2 0.844730 0.540500 0.462170 1.857874
Ba2   Ba    Ba6+2 0.345110 0.459580 0.537840 1.785821
C1    C     C_3   0.699617 0.854381 0.234364 -0.154964
C2    C     C_3   0.343321 0.573765 0.228748 0.030478
C3    C     C_2   0.285528 0.547819 0.141156 -0.010220
C4    C     C_3   0.107766 0.743839 0.245388 0.636669
C5    C     C_2   0.134086 0.495666 0.113214 0.042701
C6    C     C_2   0.037185 0.454850 0.171266 -0.119853
C7    C     C_1   0.104691 0.464244 0.246771 0.030155
C8    C     C_R   0.889952 0.462977 0.859738 -0.185897
C9    C     C_R   0.825689 0.449626 0.779698 0.027513
C10   C     C_R   0.086504 0.527555 0.751627 0.095650
C11   C     C_R   0.153285 0.541952 0.832771 0.332812
C12   C     C_3   0.647034 0.771883 0.272400 1.311621
C13   C     C_R   0.054444 0.508003 0.887801 -0.052953
C14   C     C_2   0.066609 0.474726 0.026632 -0.056462
C15   C     C_2   0.115934 0.528606 0.974860 -0.082204
C16   C     C_3   0.173433 0.806546 0.190451 0.309504
C17   C     C_R   0.925674 0.478394 0.725817 -0.275682
C18   C     C_R   0.769849 0.234176 0.531005 -0.322591
C19   C     C_R   0.872170 0.174777 0.554298 0.009493
C20   C     C_R   0.812588 0.078665 0.537299 0.438694
C21   C     C_R   0.642658 0.043780 0.503971 0.069155
C22   C     C_R   0.544662 0.107130 0.481393 -0.151535
C23   C     C_3   0.413695 0.301652 0.294481 0.472195
C24   C     C_R   0.610466 0.200023 0.490640 0.037802
C25   C     C_R   0.411605 0.905827 0.442776 -0.101880
C26   C     C_R   0.341170 0.813130 0.434224 -0.023706
C27   C     C_R   0.585979 0.786948 0.512318 0.071836
C28   C     C_3   0.268029 0.764296 0.662515 0.903338
C29   C     C_R   0.645689 0.881173 0.529526 0.001461
C30   C     C_R   0.567671 0.942513 0.490625 0.056689
C31   C     C_R   0.433980 0.752725 0.463873 -0.155085
C32   C     C_3   0.214648 0.856230 0.691326 0.557253
C33   C     C_3   0.938471 0.251627 0.359325 0.403338
C34   C     C_3   0.410868 0.271426 0.206069 0.886156
C35   C     C_3   0.946265 0.150795 0.332887 0.806796
C36   C     C_3   0.762950 0.676961 0.710961 1.306154
C37   C     C_3   0.710008 0.698757 0.791706 -0.206373
C38   C     C_3   0.114908 0.280311 0.749884 0.352814
C39   C     C_3   0.137638 0.257964 0.832537 -0.281901
C40   C     C_3   0.583683 0.226158 0.711098 0.351826
C41   C     C_3   0.572650 0.134859 0.740981 1.161663
C42   C     C_2   0.257806 0.507927 0.274157 -0.233638
F1    F     F_    0.740336 0.783775 0.346133 -0.683605
F2    F     F_    0.044744 0.845390 0.686001 -0.656682
F3    F     F_    0.798623 0.106576 0.285814 -0.683126
F4    F     F_    0.929264 0.678503 0.723054 -0.732810
F5    F     F_    0.681675 0.590127 0.675137 -0.721337
F6    F     F_    0.484086 0.769392 0.281512 -0.822441
F7    F     F_    0.570944 0.269832 0.191381 -0.635716
F8    F     F_    0.611479 0.069746 0.683885 -0.749129
H1    H     H_    0.271328 0.883874 0.753738 0.023473
H2    H     H_    0.686314 0.918103 0.273184 0.127588
H3    H     H_    0.286270 0.307386 0.305703 -0.289769
H4    H     H_    0.496838 0.369621 0.313450 0.026933
H5    H     H_    0.336969 0.200734 0.186397 -0.022680
H6    H     H_    0.619981 0.847656 0.176503 0.092368
H7    H     H_    0.207975 0.342059 0.748851 0.062862
H8    H     H_    0.988395 0.295166 0.736929 -0.060694
H9    H     H_    0.264738 0.244675 0.848094 0.167401
H10   H     H_    0.118909 0.316540 0.875943 0.050375
H11   H     H_    0.046122 0.196341 0.835530 0.172987
H12   H     H_    0.256739 0.907376 0.654841 -0.033665
H13   H     H_    0.711989 0.246243 0.699156 -0.136658
H14   H     H_    0.496850 0.215966 0.654879 0.016212
H15   H     H_    0.203873 0.591766 0.997044 0.099237
H16   H     H_    0.914412 0.413824 0.150418 0.131800
H17   H     H_    0.808443 0.441740 0.900223 0.100236
H18   H     H_    0.974084 0.412905 0.005562 0.087351
H19   H     H_    0.364386 0.576209 0.102276 0.075533
H20   H     H_    0.320142 0.501611 0.331383 0.044854
H21   H     H_    0.874116 0.467989 0.663972 0.110097
H22   H     H_    0.338559 0.947396 0.413570 0.062795
H23   H     H_    0.820850 0.257485 0.381922 -0.033230
H24   H     H_    0.209487 0.711323 0.268309 0.009052
H25   H     H_    0.748981 0.904658 0.576497 0.163196
H26   H     H_    0.417345 0.086343 0.453879 0.092167
H27   H     H_    0.380896 0.680585 0.455606 0.048104
H28   H     H_    0.818545 0.306861 0.539061 0.058165
H29   H     H_    0.071842 0.836822 0.162479 0.036090
H30   H     H_    0.268659 0.864046 0.225587 0.075912
H31   H     H_    0.983323 0.044788 0.377359 0.324711
H32   H     H_    0.222451 0.311752 0.154108 0.249953
H33   H     H_    0.154922 0.724135 0.090870 0.319041
H34   H     H_    0.043516 0.282419 0.406847 -0.010870
H35   H     H_    0.339888 0.083313 0.704509 0.304407
H36   H     H_    0.955930 0.629806 0.236815 0.309669
H37   H     H_    0.646997 0.181873 0.853141 0.304199
H38   H     H_    0.361648 0.573693 0.905168 0.305679
H39   H     H_    0.016431 0.046586 0.585413 0.323929
H40   H     H_    0.494020 0.812551 0.713380 0.270009
H41   H     H_    0.203106 0.773087 0.554917 0.248417
H42   H     H_    0.049765 0.146080 0.298036 -0.020939
H43   H     H_    0.830204 0.859936 0.224681 0.075461
H44   H     H_    0.776234 0.767683 0.822978 0.086562
H45   H     H_    0.740049 0.647074 0.827808 0.068840
H46   H     H_    0.574750 0.697650 0.785550 0.099321
O1    O     O_2   0.823140 0.439340 0.307240 -0.435544
O2    O     O_2   0.213725 0.184050 0.553893 -0.462147
O3    O     O_3   0.137916 0.205500 0.695515 -0.593513
O4    O     O_3   0.097070 0.445850 0.405300 -0.514923
O5    O     O_3   0.592380 0.611270 0.541370 -0.446708
O6    O     O_2   0.323920 0.276750 0.459260 -0.461294
O7    O     O_3   0.470890 0.235168 0.333611 -0.640885
O8    O     O_2   0.493670 0.462410 0.782461 -0.451670
O9    O     O_3   0.541143 0.292947 0.767501 -0.646688
O10   O     O_3   0.627590 0.606740 0.357340 -0.464146
O11   O     O_2   0.644845 0.513058 0.215769 -0.446593
O12   O     O_3   0.732495 0.746014 0.667818 -0.590150
O13   O     O_3   0.944281 0.293655 0.293102 -0.616043
O14   O     O_3   0.669524 0.691477 0.223883 -0.600632
O15   O     O_2   0.865800 0.723280 0.540790 -0.378606
O16   O     O_3   0.060870 0.655550 0.397490 -0.485982
O17   O     O_2   0.016704 0.822438 0.454394 -0.389475
O18   O     O_3   0.973908 0.108764 0.398374 -0.772547
O19   O     O_3   0.344448 0.332616 0.163793 -0.743333
O20   O     O_3   0.246636 0.758418 0.132601 -0.724490
O21   O     O_3   0.412055 0.104976 0.756448 -0.710634
O22   O     O_3   0.979944 0.675086 0.201992 -0.722381
O23   O     O_3   0.046383 0.796780 0.305533 -0.614009
O24   O     O_3   0.687823 0.144643 0.809808 -0.686369
O25   O     O_3   0.312569 0.591159 0.856083 -0.706807
O26   O     O_3   0.921201 0.018587 0.543792 -0.709556
O27   O     O_3   0.437541 0.781511 0.659742 -0.829476
O28   O     O_3   0.182554 0.725481 0.587218 -0.666171
O29   O     O_2   0.366580 0.560690 0.692810 -0.412163
O30   O     O_3   0.092650 0.554230 0.594710 -0.449205
O31   O     O_3   0.562120 0.393340 0.642670 -0.445408
O32   O     O_3   0.236550 0.706333 0.717245 -0.565651
O33   O     O_3   0.597340 0.388800 0.458640 -0.487499
O34   O     O_3   0.128850 0.344520 0.602520 -0.524553
P1    P     P_3+3 0.993190 0.413330 0.319190 1.020831
P2    P     P_3+3 0.695930 0.711340 0.564320 1.209499
P3    P     P_3+3 0.117980 0.772780 0.397968 1.025009
P4    P     P_3+3 0.196530 0.586750 0.680820 1.220923
P5    P     P_3+3 0.087919 0.226521 0.599789 0.974271
P6    P     P_3+3 0.572210 0.593985 0.255525 1.075312
P7    P     P_3+3 0.500905 0.273446 0.435798 0.990069
P8    P     P_3+3 0.605848 0.401005 0.744431 1.015186

loop_
_geom_bond_atom_site_label_1
_geom_bond_atom_site_label_2
_ccdc_geom_bond_type
C6    C7    D    
C28   O28   S    
C38   H8    S    
C26   P3    S    
H38   O25   S    
C23   H4    S    
C39   H9    S    
H40   O27   S    
Ba1   O1    S    
Ba1   O10   S    
C23   O7    S    
C5    C6    S    
C35   O18   S    
C12   O14   S    
C10   C11   A    
C33   H23   S    
O17   P3    D    
C33   C35   S    
O5    P2    S    
C22   C24   A    
C8    C13   A    
O30   P4    S    
C36   C37   S    
C11   O25   S    
C1    H2    S    
C41   F8    S    
C37   H45   S    
H37   O24   S    
Ba2   O4    S    
C27   C31   A    
C16   H29   S    
O1    P1    D    
Ba1   Ba2   S    
O9    P8    S    
H41   O28   S    
C16   H30   S    
C38   O3    S    
C14   C15   D    
C40   H13   S    
Ba2   O34   S    
O16   P3    S    
Ba1   O30   S    
C32   F2    S    
C19   P5    S    
C35   F3    S    
C25   H22   S    
C40   O9    S    
Ba1   O5    S    
C36   F4    S    
Ba2   O29   S    
C27   P2    S    
C28   O27   S    
C38   H7    S    
C19   C20   A    
H36   O22   S    
Ba1   O15   S    
C39   H10   S    
Ba1   P1    S    
C4    O22   S    
C29   H25   S    
C12   F1    S    
C4    C16   S    
C15   H15   S    
C28   C32   S    
O14   P6    S    
C17   H21   S    
C14   H18   S    
O29   P4    D    
C24   P7    S    
C8    C9    A    
C36   F5    S    
C18   H28   S    
O13   P1    S    
C37   H46   S    
C2    C42   S    
O34   P5    S    
C28   O32   S    
Ba2   P4    S    
O11   P6    D    
C9    P8    S    
C8    H17   S    
H35   O21   S    
O7    P7    S    
O8    P8    D    
C29   C30   A    
Ba2   O6    S    
C21   C22   A    
C9    C17   A    
C32   H12   S    
Ba2   O33   S    
O23   P3    S    
C20   O26   S    
C34   O19   S    
C34   F7    S    
C41   O24   S    
C1    C12   S    
C22   H26   S    
C38   C39   S    
C26   C31   A    
C6    H16   S    
H39   O26   S    
C11   C13   A    
C10   P4    S    
O12   P2    S    
C36   O12   S    
C40   C41   S    
C39   H11   S    
Ba1   P2    S    
C25   C26   A    
C33   O13   S    
C34   H5    S    
C3    C5    D    
C13   C15   S    
C16   O20   S    
C5    C14   S    
C7    C42   D    
O3    P5    S    
C25   C30   A    
H31   O18   S    
O32   P4    S    
C23   H3    S    
C31   H27   S    
C2    C3    S    
Ba1   O33   S    
C4    H24   S    
O6    P7    D    
Ba2   O30   S    
O15   P2    D    
C21   C30   S    
O4    P1    S    
C27   C29   A    
O10   P6    S    
C12   F6    S    
O31   P8    S    
C18   C24   A    
Ba2   O5    S    
C10   C17   A    
C33   H34   S    
C35   H42   S    
C42   H20   S    
H33   O20   S    
C37   H44   S    
O33   P7    S    
O2    P5    D    
H32   O19   S    
C23   C34   S    
C2    P6    S    
C1    H6    S    
C18   C19   A    
C32   H1    S    
C3    H19   S    
Ba1   O16   S    
Ba2   O31   S    
C40   H14   S    
C20   C21   A    
C1    H43   S    
C4    O23   S    
Ba1   O4    S    
C41   O21   S    
C7    P1    S    
