data_mof_unit_53944.cif
_audit_creation_date              2012-12-10T20:27:13-0500
_audit_creation_method            fapswitch 2.2
_symmetry_space_group_name_H-M    P1
_symmetry_Int_Tables_number       1
_space_group_crystal_system       triclinic
_cell_length_a                    10.861411
_cell_length_b                    10.708767
_cell_length_c                    9.932208
_cell_angle_alpha                 89.332629
_cell_angle_beta                  104.95512
_cell_angle_gamma                 89.416786
_cell_volume                      1115.92857674

loop_
_atom_site_label
_atom_site_type_symbol
_atom_type_description
_atom_site_fract_x
_atom_site_fract_y
_atom_site_fract_z
_atom_type_partial_charge
C1    C     C_R   0.512086 0.260547 0.503965 0.884400
C2    C     C_R   0.581221 0.573498 0.093981 -0.040420
C3    C     C_R   0.581754 0.572849 0.949801 -0.031684
C4    C     C_R   0.258632 0.503932 0.440710 0.890413
C5    C     C_R   0.430134 0.415251 0.910346 0.167978
C6    C     C_3   0.290890 0.393290 0.860047 -0.628698
C7    C     C_3   0.283697 0.404986 0.010759 -0.124019
C8    C     C_R   0.490004 0.740144 0.495553 0.879206
C9    C     C_R   0.740175 0.499847 0.559544 0.926745
C10   C     C_2   0.120087 0.500830 0.407003 -0.220254
C11   C     C_2   0.061729 0.533177 0.506664 -0.044091
C12   C     C_R   0.533162 0.127703 0.511410 -0.234837
C13   C     C_2   0.874027 0.522707 0.595622 -0.381164
C14   C     C_2   0.946374 0.469590 0.521729 -0.014601
C15   C     C_R   0.510354 0.060990 0.623645 0.069853
C16   C     C_1   0.919307 0.343151 0.471593 0.182058
C17   C     C_1   0.484226 0.119091 0.849341 0.292353
C18   C     C_1   0.664209 0.656567 0.188340 0.273146
C19   C     C_1   0.666975 0.653009 0.899890 0.268156
C20   C     C_2   0.206629 0.519567 0.027692 0.431123
C21   C     C_2   0.236970 0.287602 0.065421 0.414044
C22   C     C_1   0.115956 0.627931 0.608188 0.186430
C23   C     C_R   0.553715 0.062174 0.396493 -0.000219
C24   C     C_1   0.051973 0.443694 0.278005 0.210454
C25   C     C_2   0.632987 0.113775 0.307243 0.548478
C26   C     C_2   0.443381 0.901877 0.228000 0.514271
C27   C     C_1   0.251165 0.938460 0.583789 0.186658
C28   C     C_1   0.393279 0.869144 0.805891 0.301275
C29   C     C_R   0.503189 0.941882 0.373595 -0.025230
C30   C     C_R   0.482998 0.874320 0.489160 -0.251619
C31   C     C_R   0.485450 0.935327 0.612421 0.065218
C32   C     C_3   0.378192 0.950126 0.681899 -0.119344
C33   C     C_3   0.415959 0.086515 0.706050 -0.300928
C34   C     C_R   0.426763 0.418207 0.050831 0.269377
H1    H     H_    0.240884 0.468627 0.789953 0.235272
H2    H     H_    0.270772 0.298450 0.816181 0.192626
H3    H     H_    0.903032 0.605367 0.657411 0.163611
H4    H     H_    0.340564 0.155854 0.655882 0.165064
H5    H     H_    0.103674 0.518178 0.989044 0.065459
H6    H     H_    0.141285 0.255760 0.017735 0.077123
H7    H     H_    0.656009 0.211697 0.307336 0.074382
H8    H     H_    0.395061 0.813839 0.206332 0.127310
N1    N     N_R   0.499160 0.499140 0.142600 -0.127855
N2    N     N_1   0.403816 0.804791 0.902578 -0.142913
N3    N     N_R   0.499160 0.499180 0.856960 -0.124336
N4    N     N_1   0.899677 0.242026 0.432914 -0.191528
N5    N     N_1   0.539186 0.145115 0.961207 -0.113807
N6    N     N_1   0.731126 0.723549 0.263226 -0.149235
N7    N     N_1   0.735538 0.717694 0.860693 -0.188853
N8    N     N_1   0.157549 0.701740 0.690998 -0.189794
N9    N     N_1   0.996439 0.398041 0.175542 -0.222412
N10   N     N_1   0.151867 0.930467 0.506092 -0.156812
O1    O     O_R   0.500020 0.316790 0.614700 -0.617262
O2    O     O_2   0.304443 0.227610 0.162400 -0.522573
O3    O     O_2   0.681722 0.044403 0.238304 -0.529183
O4    O     O_2   0.436514 0.972618 0.129191 -0.529103
O5    O     O_R   0.500000 0.316760 0.385350 -0.602896
O6    O     O_R   0.317820 0.500020 0.571850 -0.618953
O7    O     O_R   0.317800 0.499980 0.342510 -0.566101
O8    O     O_R   0.500000 0.683240 0.614650 -0.605842
O9    O     O_R   0.499980 0.683210 0.385300 -0.636098
O10   O     O_R   0.682200 0.500020 0.657490 -0.614154
O11   O     O_R   0.682180 0.499980 0.428150 -0.618032
O12   O     O_2   0.257303 0.615139 0.079134 -0.557282
Zn1   Zn    Zn3+2 0.500010 0.500020 0.653140 0.971481
Zn2   Zn    Zn3+2 0.499990 0.499980 0.346860 1.008168

loop_
_geom_bond_atom_site_label_1
_geom_bond_atom_site_label_2
_ccdc_geom_bond_type
C20   O12   D    
C18   N6    T    
C27   N10   T    
C3    C19   S    
C6    C7    S    
C1    O5    A    
C2    C18   S    
C2    N1    A    
O1    Zn1   S    
C8    O9    A    
O6    Zn1   S    
C13   H3    S    
C31   C32   S    
C12   C15   A    
O5    Zn2   S    
C22   N8    T    
C8    C30   S    
C5    C34   A    
C24   N9    T    
C9    O11   A    
C2    C3    A    
O11   Zn2   S    
C3    N3    A    
C25   H7    S    
C13   C14   D    
C32   C33   S    
C15   C31   A    
C1    C12   S    
C12   C23   A    
C29   C30   A    
C21   H6    S    
C17   C33   S    
N1    Zn2   S    
C23   C29   A    
C4    O7    A    
C11   C14   S    
C6    H2    S    
O8    Zn1   S    
C23   C25   S    
O7    Zn2   S    
N3    Zn1   S    
C5    C6    S    
C7    C34   S    
C14   C16   S    
C19   N7    T    
C10   C11   D    
C4    C10   S    
C9    O10   A    
C17   N5    T    
C28   C32   S    
C6    H1    S    
C26   H8    S    
C26   C29   S    
C21   O2    D    
C7    C20   S    
C4    O6    A    
C20   H5    S    
C1    O1    A    
C30   C31   A    
C16   N4    T    
C33   H4    S    
C9    C13   S    
C11   C22   S    
O10   Zn1   S    
C10   C24   S    
C27   C32   S    
C7    C21   S    
C5    N3    A    
O9    Zn2   S    
C28   N2    T    
C8    O8    A    
C34   N1    A    
C25   O3    D    
C15   C33   S    
C26   O4    D    
