data_mof_unit_18311.cif
_audit_creation_date              2012-12-10T17:48:53-0500
_audit_creation_method            fapswitch 2.2
_symmetry_space_group_name_H-M    P1
_symmetry_Int_Tables_number       1
_space_group_crystal_system       triclinic
_cell_length_a                    10.755961
_cell_length_b                    14.737826
_cell_length_c                    14.791671
_cell_angle_alpha                 64.670935
_cell_angle_beta                  104.475847
_cell_angle_gamma                 103.205395
_cell_volume                      2032.20032702

loop_
_atom_site_label
_atom_site_type_symbol
_atom_type_description
_atom_site_fract_x
_atom_site_fract_y
_atom_site_fract_z
_atom_type_partial_charge
C1    C     C_R   0.480639 0.119655 0.312280 0.811440
C2    C     C_3   0.877811 0.002211 0.498389 0.067696
C3    C     C_3   0.921981 0.898609 0.578307 -0.055383
C4    C     C_3   0.966965 0.092101 0.523452 0.011774
C5    C     C_R   0.483593 0.187108 0.205360 -0.051366
C6    C     C_R   0.533038 0.813292 0.796840 -0.079465
C7    C     C_R   0.503181 0.218261 0.034655 -0.201374
C8    C     C_R   0.486841 0.150453 0.132961 -0.201201
C9    C     C_R   0.494801 0.291270 0.178080 -0.240609
C10   C     C_R   0.519058 0.361182 0.081759 0.084856
C11   C     C_R   0.519508 0.323280 0.008607 0.162481
C12   C     C_R   0.259979 0.000650 0.498969 0.828541
C13   C     C_R   0.539662 0.467476 0.055991 0.069539
C14   C     C_R   0.545035 0.535257 0.953524 0.090396
C15   C     C_R   0.547216 0.494448 0.882802 -0.214342
C16   C     C_R   0.536138 0.390504 0.910492 -0.236190
C17   C     C_R   0.557277 0.507948 0.130017 -0.248538
C18   C     C_R   0.564445 0.610791 0.103258 -0.178981
C19   C     C_R   0.554682 0.678101 0.001602 0.133173
C20   C     C_R   0.547444 0.641142 0.925783 0.040948
C21   C     C_R   0.550661 0.781593 0.975090 0.105216
C22   C     C_R   0.537629 0.849165 0.872241 0.107161
C23   C     C_R   0.520654 0.880348 0.688004 0.833960
C24   C     C_R   0.537814 0.710722 0.824322 -0.305276
C25   C     C_R   0.723706 0.285472 0.667736 -0.020007
C26   C     C_R   0.685692 0.202981 0.638469 0.352325
C27   C     C_R   0.516691 0.285467 0.510708 0.253693
C28   C     C_R   0.541510 0.366904 0.544870 -0.078901
C29   C     C_R   0.652997 0.368717 0.619681 0.060496
C30   C     C_R   0.464154 0.448333 0.505335 0.073097
C31   C     C_R   0.512923 0.538284 0.524658 0.076492
C32   C     C_R   0.628529 0.538511 0.594894 -0.227670
C33   C     C_R   0.693661 0.454373 0.643990 -0.187133
C34   C     C_R   0.739632 0.001246 0.498437 0.855137
C35   C     C_R   0.335576 0.439482 0.454241 -0.290187
C36   C     C_R   0.265621 0.521757 0.404898 0.161362
C37   C     C_R   0.320519 0.615162 0.412069 0.149752
C38   C     C_R   0.442005 0.623448 0.475565 -0.070727
C39   C     C_R   0.253116 0.699605 0.359877 -0.296333
C40   C     C_R   0.302201 0.789099 0.374340 0.061256
C41   C     C_R   0.485667 0.716861 0.487910 0.018023
C42   C     C_3   0.036422 0.007213 0.391896 0.329721
C43   C     C_3   0.893155 0.013703 0.392019 -0.536273
C44   C     C_3   0.070372 0.901198 0.585926 -0.082788
C45   C     C_3   0.108219 0.093899 0.517931 -0.483689
C46   C     C_3   0.121808 0.000580 0.498744 0.072269
Cu1   Cu    Cu3+1 0.465900 0.918260 0.475680 0.944940
Cu2   Cu    Cu3+1 0.534100 0.081740 0.524320 0.984734
H1    H     H_    0.530467 0.686535 0.763979 0.167798
H2    H     H_    0.504773 0.188692 0.979353 0.130932
H3    H     H_    0.482462 0.316015 0.233433 0.165975
H4    H     H_    0.568613 0.462168 0.210326 0.147644
H5    H     H_    0.574202 0.728591 0.537373 0.124265
H6    H     H_    0.248038 0.852719 0.336535 0.153750
H7    H     H_    0.284650 0.367102 0.456336 0.135169
H8    H     H_    0.082066 0.834344 0.573926 0.158968
H9    H     H_    0.870118 0.839376 0.548910 0.138980
H10   H     H_    0.143621 0.165572 0.458328 0.167789
N1    N     N_R   0.585360 0.204570 0.560800 -0.184701
N2    N     N_R   0.414550 0.795430 0.439160 -0.180952
O1    O     O_R   0.455060 0.022100 0.338110 -0.590826
O2    O     O_R   0.512640 0.160150 0.379180 -0.548621
O3    O     O_R   0.288900 0.930980 0.479450 -0.568392
O4    O     O_R   0.346480 0.069030 0.520520 -0.596066
O5    O     O_R   0.487360 0.839850 0.620820 -0.598845
O6    O     O_R   0.544940 0.977900 0.661890 -0.529761
O7    O     O_R   0.653520 0.930970 0.479480 -0.607365
O8    O     O_R   0.711100 0.069020 0.520550 -0.536087
N3    N     N_3   0.040270 0.916676 0.373961 -0.580275
H11   H     H_    0.985022 0.852914 0.419274 0.186910
H12   H     H_    0.996761 0.926917 0.299248 0.208642
H13   H     H_    0.963473 0.078876 0.602584 0.148767
N4    N     N_3   0.144410 0.888170 0.687989 -0.595133
H14   H     H_    0.241224 0.884174 0.691041 0.215360
H15   H     H_    0.142273 0.948133 0.707011 0.223929
N5    N     N_3   0.882154 0.868118 0.676661 -0.600151
H16   H     H_    0.908814 0.796705 0.725228 0.249306
H17   H     H_    0.927170 0.918979 0.710838 0.228401
H18   H     H_    0.538571 0.362566 0.854081 0.150717
N6    N     N_3   0.524152 0.952988 0.844013 -0.578641
H19   H     H_    0.440485 0.955006 0.866524 0.208016
H20   H     H_    0.604308 0.985972 0.881736 0.207082
H21   H     H_    0.575345 0.636856 0.163441 0.182288
H22   H     H_    0.478814 0.069862 0.152627 0.154174
N7    N     N_3   0.088500 0.097234 0.309231 -0.588383
H23   H     H_    0.039492 0.096045 0.239033 0.214935
H24   H     H_    0.070324 0.163909 0.308956 0.194887
H25   H     H_    0.560104 0.540520 0.805538 0.144455
N8    N     N_3   0.557081 0.817038 0.053029 -0.623266
H26   H     H_    0.472961 0.848423 0.039173 0.221016
H27   H     H_    0.637348 0.872995 0.050738 0.214414
H28   H     H_    0.779162 0.458814 0.699762 0.142531
N9    N     N_3   0.136612 0.509626 0.349542 -0.600151
H29   H     H_    0.071902 0.508285 0.392525 0.213276
H30   H     H_    0.115475 0.439870 0.342391 0.212266
N10   N     N_3   0.834003 0.282276 0.746799 -0.628525
H31   H     H_    0.805365 0.289191 0.805850 0.223425
H32   H     H_    0.905138 0.342851 0.717526 0.226147
N11   N     N_3   0.755907 0.117976 0.687686 -0.506418
H33   H     H_    0.752991 0.087806 0.765289 0.212960
H34   H     H_    0.852721 0.144076 0.678755 0.202465
N12   N     N_3   0.436703 0.293471 0.415127 -0.551824
H35   H     H_    0.342537 0.258324 0.424619 0.212800
H36   H     H_    0.440147 0.368537 0.362335 0.197105
H37   H     H_    0.861340 0.085839 0.332803 0.169994
H38   H     H_    0.669349 0.601554 0.616722 0.124429
H39   H     H_    0.161266 0.696403 0.309626 0.169281
H40   H     H_    0.825478 0.953710 0.370801 0.167598
H41   H     H_    0.171694 0.096463 0.588881 0.166514
N13   N     N_3   0.922864 0.190912 0.457278 -0.568531
H42   H     H_    0.941618 0.214914 0.383971 0.213114
H43   H     H_    0.975780 0.244753 0.485975 0.210395

loop_
_geom_bond_atom_site_label_1
_geom_bond_atom_site_label_2
_ccdc_geom_bond_type
N9    H29   S    
C40   N2    A    
N4    H14   S    
C19   C20   A    
C9    H3    S    
C1    O2    A    
C7    C8    A    
C21   N8    S    
C45   C46   S    
C7    C11   A    
C30   C35   A    
C1    C5    S    
C23   O6    A    
C36   C37   A    
C19   C21   A    
N5    H17   S    
Cu1   O3    S    
C30   C31   A    
C12   O4    A    
C45   H41   S    
Cu2   O4    S    
C15   C16   A    
C6    C22   A    
C29   C33   A    
C18   C19   A    
C43   H37   S    
N3    H12   S    
C20   C24   A    
N13   H42   S    
Cu1   N2    S    
C36   N9    S    
C31   C32   A    
N10   H32   S    
N8    H27   S    
C26   N1    A    
C26   N11   S    
C2    C34   S    
N9    H30   S    
C32   H38   S    
C21   C22   A    
N4    H15   S    
N12   H35   S    
C17   H4    S    
Cu1   O7    S    
C44   C46   S    
C17   C18   A    
C4    C45   S    
N7    H24   S    
C25   C29   A    
C3    C44   S    
C45   H10   S    
C35   H7    S    
Cu1   Cu2   S    
C14   C20   A    
Cu1   O1    S    
N5    H16   S    
C7    H2    S    
C38   C41   A    
N6    H20   S    
C33   H28   S    
C34   O8    A    
C39   C40   A    
C12   O3    A    
C25   C26   A    
N7    H23   S    
C42   N3    S    
C35   C36   A    
C2    C4    S    
C5    C9    A    
C37   C38   A    
C11   C16   A    
C44   H8    S    
Cu2   O2    S    
N11   H33   S    
C2    C43   S    
C6    C24   A    
N10   H31   S    
C18   H21   S    
C42   N7    S    
Cu2   O8    S    
N12   H36   S    
C3    N5    S    
C41   H5    S    
C3    H9    S    
C12   C46   S    
N11   H34   S    
C40   H6    S    
C42   C46   S    
C42   C43   S    
C4    H13   S    
Cu2   N1    S    
C9    C10   A    
C24   H1    S    
C4    N13   S    
C28   C29   A    
C8    H22   S    
C41   N2    A    
N6    H19   S    
C10   C13   A    
C1    O1    A    
C34   O7    A    
C39   H39   S    
C5    C8    A    
C27   N12   S    
C31   C38   A    
C13   C17   A    
C16   H18   S    
C32   C33   A    
C23   O5    A    
C28   C30   A    
C2    C3    S    
C22   N6    S    
C37   C39   A    
C27   N1    A    
C6    C23   S    
C43   H40   S    
N3    H11   S    
N13   H43   S    
C10   C11   A    
C25   N10   S    
C27   C28   A    
C14   C15   A    
Cu2   O6    S    
N8    H26   S    
C13   C14   A    
Cu1   O5    S    
C15   H25   S    
C44   N4    S    
