data_mof_unit_35047.cif
_audit_creation_date              2012-10-26T18:28:24-0400
_audit_creation_method            fapswitch 2.2
_symmetry_space_group_name_H-M    P1
_symmetry_Int_Tables_number       1
_space_group_crystal_system       triclinic
_cell_length_a                    27.859486
_cell_length_b                    11.008488
_cell_length_c                    9.734167
_cell_angle_alpha                 109.432278
_cell_angle_beta                  98.067232
_cell_angle_gamma                 90.540398
_cell_volume                      2782.41894081

loop_
_atom_site_label
_atom_site_type_symbol
_atom_type_description
_atom_site_fract_x
_atom_site_fract_y
_atom_site_fract_z
_atom_type_partial_charge
C1    C     C_R   0.498829 0.254400 0.443911 0.579820
C2    C     C_R   0.870932 0.381886 0.432056 0.028886
C3    C     C_R   0.354258 0.516439 0.506431 0.000755
C4    C     C_R   0.645290 0.485264 0.493128 0.041424
C5    C     C_R   0.972106 0.390439 0.424860 0.034473
C6    C     C_R   0.027177 0.629150 0.552710 0.035512
C7    C     C_R   0.975714 0.627354 0.541574 0.006218
C8    C     C_R   0.023527 0.392606 0.432451 0.007502
C9    C     C_R   0.949051 0.506105 0.488101 0.005687
C10   C     C_R   0.050226 0.513958 0.488047 0.006577
C11   C     C_R   0.942143 0.278280 0.344647 -0.062691
C12   C     C_R   0.505480 0.746069 0.556372 0.602235
C13   C     C_R   0.057014 0.740208 0.638159 -0.061951
C14   C     C_R   0.893001 0.271809 0.354726 -0.079146
C15   C     C_R   0.106641 0.746224 0.634373 -0.079150
C16   C     C_R   0.407353 0.504527 0.502895 0.566233
C17   C     C_R   0.592435 0.494067 0.497007 0.614036
C18   C     C_R   0.050407 0.279097 0.394965 0.188532
C19   C     C_R   0.948894 0.741023 0.574219 0.189574
C20   C     C_2   0.499422 0.116278 0.422310 0.183389
C21   C     C_2   0.509058 0.885515 0.581480 0.216038
C22   C     C_2   0.531930 0.071745 0.510977 0.199714
C23   C     C_R   0.101066 0.519830 0.486219 -0.035130
C24   C     C_2   0.531909 0.934414 0.494003 0.219286
C25   C     C_2   0.506610 0.501619 0.078318 0.102562
C26   C     C_2   0.497898 0.484233 0.917692 0.107731
C27   C     C_R   0.174497 0.415217 0.416720 0.419126
C28   C     C_R   0.824421 0.606442 0.554218 0.417082
C29   C     C_R   0.179005 0.641173 0.549721 0.411908
C30   C     C_R   0.821333 0.377518 0.443488 0.412356
C31   C     C_R   0.281855 0.558579 0.626107 -0.040079
C32   C     C_R   0.715788 0.423004 0.369081 -0.034758
C33   C     C_R   0.332418 0.552182 0.637730 0.206399
C34   C     C_R   0.898283 0.500605 0.491460 -0.035510
C35   C     C_R   0.665332 0.417534 0.364091 0.196427
C36   C     C_R   0.323933 0.493193 0.370098 -0.141946
C37   C     C_R   0.677047 0.545398 0.625524 -0.126216
C38   C     C_R   0.273910 0.501729 0.361957 -0.045911
C39   C     C_R   0.727176 0.543068 0.629988 -0.042315
C40   C     C_R   0.252656 0.533317 0.489717 0.188355
C41   C     C_R   0.746950 0.484309 0.501124 0.186982
C42   C     C_R   0.124380 0.407407 0.419938 -0.004155
C43   C     C_R   0.874584 0.613979 0.550741 -0.005295
C44   C     C_R   0.098538 0.288058 0.373169 -0.070135
C45   C     C_R   0.900235 0.733159 0.591603 -0.069720
C46   C     C_R   0.128881 0.637444 0.554604 0.029616
Cu1   Cu    Cu3+1 0.508480 0.521810 0.644910 1.152884
Cu2   Cu    Cu3+1 0.491520 0.478190 0.355090 1.168425
H1    H     H_    0.338736 0.466898 0.267721 0.186260
H2    H     H_    0.264358 0.580573 0.723303 0.173074
H3    H     H_    0.956051 0.194764 0.271099 0.195661
H4    H     H_    0.042548 0.822805 0.711731 0.193071
H5    H     H_    0.421760 0.956295 0.839931 0.407859
H6    H     H_    0.394399 0.126415 0.378787 0.348709
H7    H     H_    0.547054 0.622689 0.933205 0.229510
H8    H     H_    0.449531 0.387931 0.069397 0.248081
H9    H     H_    0.637748 0.457750 0.084023 0.354181
H10   H     H_    0.322472 0.729244 0.950941 0.368300
H11   H     H_    0.872076 0.181197 0.297367 0.192854
H12   H     H_    0.663123 0.595568 0.726614 0.163338
H13   H     H_    0.127648 0.835631 0.697232 0.190460
H14   H     H_    0.094997 0.014549 0.420195 0.363788
H15   H     H_    0.907038 0.007130 0.544314 0.365724
H16   H     H_    0.547557 0.830515 0.134280 0.384435
H17   H     H_    0.560520 0.228569 0.846933 0.406318
H18   H     H_    0.471654 0.409358 0.844577 0.196448
H19   H     H_    0.537406 0.562255 0.147712 0.231339
H20   H     H_    0.251497 0.481531 0.255663 0.170136
H21   H     H_    0.750697 0.589295 0.733616 0.171737
H22   H     H_    0.117483 0.200244 0.336167 0.187174
H23   H     H_    0.881164 0.821181 0.623816 0.190611
H24   H     H_    0.731266 0.378285 0.269477 0.181054
N1    N     N_R   0.200757 0.530896 0.481215 -0.393892
N2    N     N_R   0.798785 0.489152 0.502679 -0.393698
N3    N     N_2   0.478780 0.445430 0.137360 -0.327711
N4    N     N_2   0.521220 0.554570 0.862640 -0.311875
O1    O     O_R   0.504520 0.332330 0.577400 -0.481944
O2    O     O_2   0.801268 0.715985 0.605029 -0.460274
O3    O     O_2   0.795923 0.262423 0.396023 -0.446545
O4    O     O_2   0.205836 0.753784 0.613527 -0.464240
O5    O     O_2   0.517266 0.025934 0.867270 -0.226936
O6    O     O_2   0.461305 0.101869 0.699387 -0.319891
O7    O     O_3   0.434441 0.898119 0.752807 -0.454987
O8    O     O_2   0.470160 0.979833 0.138424 -0.170390
O9    O     O_2   0.439623 0.896265 0.315560 -0.234079
O10   O     O_3   0.403198 0.100904 0.278303 -0.481012
O11   O     O_2   0.661400 0.224282 0.104242 -0.212213
O12   O     O_R   0.495480 0.667670 0.422600 -0.464222
O13   O     O_2   0.588973 0.247652 0.223252 -0.182817
O14   O     O_3   0.608638 0.415618 0.100926 -0.522120
O15   O     O_2   0.384158 0.461158 0.829929 -0.273541
O16   O     O_2   0.405901 0.683551 0.850281 -0.196458
O17   O     O_3   0.327768 0.639069 0.945820 -0.488232
O18   O     O_2   0.996467 0.160153 0.527337 -0.176584
O19   O     O_2   0.013430 0.033417 0.280325 -0.260308
O20   O     O_3   0.082770 0.080644 0.502544 -0.458168
O21   O     O_2   0.986411 0.985815 0.693346 -0.261114
O22   O     O_2   0.006391 0.859318 0.450089 -0.176547
O23   O     O_R   0.490210 0.295500 0.332650 -0.441218
O24   O     O_3   0.919899 0.940309 0.464031 -0.457329
O25   O     O_2   0.608775 0.931971 0.354962 -0.196571
O26   O     O_2   0.589601 0.734315 0.401671 -0.295591
O27   O     O_3   0.532808 0.790624 0.197058 -0.512178
O28   O     O_2   0.617958 0.082393 0.682818 -0.193573
O29   O     O_2   0.608584 0.236042 0.550526 -0.235292
O30   O     O_3   0.565692 0.276659 0.780095 -0.472519
O31   O     O_R   0.509790 0.704500 0.667350 -0.456355
O32   O     O_R   0.437420 0.518430 0.622370 -0.440970
O33   O     O_R   0.562580 0.481570 0.377630 -0.441365
O34   O     O_R   0.423110 0.481600 0.377610 -0.510981
O35   O     O_R   0.576890 0.518400 0.622390 -0.497021
O36   O     O_2   0.197110 0.307249 0.353806 -0.465047
S1    S     S_3+6 0.480682 0.984533 0.728916 0.043690
S2    S     S_3+6 0.452975 0.016654 0.285593 0.085385
S3    S     S_3+6 0.630405 0.320323 0.195579 0.081042
S4    S     S_3+6 0.364608 0.584463 0.818136 0.057882
S5    S     S_3+6 0.033583 0.135089 0.424681 0.064388
S6    S     S_3+6 0.967600 0.884771 0.547203 0.066068
S7    S     S_3+6 0.567986 0.845019 0.362615 0.057490
S8    S     S_3+6 0.582935 0.167160 0.631520 0.108105

loop_
_geom_bond_atom_site_label_1
_geom_bond_atom_site_label_2
_ccdc_geom_bond_type
H16   O27   S    
Cu2   O34   S    
O13   S3    D    
H14   O20   S    
C45   H23   S    
C1    O1    A    
O7    S1    S    
C25   H19   S    
C28   N2    A    
C1    O23   A    
C16   O34   A    
C39   C41   A    
O19   S5    D    
C22   S8    S    
C14   H11   S    
C23   C42   A    
O9    S2    D    
C38   C40   A    
H10   O17   S    
Cu1   N4    S    
C5    C11   A    
C30   N2    A    
O18   S5    D    
C29   N1    A    
C3    C33   A    
C40   N1    S    
O21   S6    D    
C41   N2    S    
C19   S6    S    
C1    C20   S    
C26   N4    D    
C32   C41   A    
Cu2   O12   S    
O29   S8    D    
C35   S3    S    
C28   O2    S    
O11   S3    D    
C2    C34   A    
Cu2   O33   S    
C4    C35   A    
C23   C46   A    
Cu2   N3    S    
C42   C44   A    
C17   O35   A    
O22   S6    D    
C39   H21   S    
H9    O14   S    
C12   O12   A    
O25   S7    D    
C32   C35   A    
O20   S5    S    
C32   H24   S    
O15   S4    D    
H6    O10   S    
C16   O32   A    
C25   C26   S    
O26   S7    D    
C12   C21   S    
C8    C18   A    
C25   N3    D    
O17   S4    S    
C26   H18   S    
C5    C9    A    
H15   O24   S    
C18   C44   A    
C5    C8    A    
C13   H4    S    
C43   C45   A    
Cu1   Cu2   S    
C31   C33   A    
C15   H13   S    
O14   S3    S    
C44   H22   S    
O16   S4    D    
C18   S5    S    
C4    C17   S    
C21   S1    S    
C38   H20   S    
C27   O36   S    
Cu1   O31   S    
C13   C15   A    
C9    C34   A    
C22   C24   S    
O24   S6    S    
H7    N4    S    
C31   H2    S    
H17   O30   S    
C24   S7    S    
C7    C9    A    
Cu2   O23   S    
C33   S4    S    
O8    S2    D    
O30   S8    S    
O27   S7    S    
C34   C43   A    
O6    S1    D    
C20   C22   D    
C17   O33   A    
C6    C10   A    
C12   O31   A    
C19   C45   A    
C6    C7    A    
C10   C23   A    
C28   C43   A    
C7    C19   A    
C15   C46   A    
O10   S2    S    
C29   C46   A    
C2    C30   A    
C36   C38   A    
C37   C39   A    
C6    C13   A    
C20   S2    S    
C27   C42   A    
C30   O3    S    
C29   O4    S    
C3    C36   A    
Cu1   O35   S    
H5    O7    S    
C11   C14   A    
C2    C14   A    
C37   H12   S    
C11   H3    S    
C3    C16   S    
C4    C37   A    
C8    C10   A    
Cu1   O32   S    
C21   C24   D    
O5    S1    D    
H8    N3    S    
Cu1   O1    S    
C31   C40   A    
C27   N1    A    
C36   H1    S    
O28   S8    D    
