data_mof_unit_66276.cif
_audit_creation_date              2012-12-10T17:00:46-0500
_audit_creation_method            fapswitch 2.2
_symmetry_space_group_name_H-M    P1
_symmetry_Int_Tables_number       1
_space_group_crystal_system       triclinic
_cell_length_a                    13.114008
_cell_length_b                    13.15917
_cell_length_c                    19.523189
_cell_angle_alpha                 100.308233
_cell_angle_beta                  80.585335
_cell_angle_gamma                 90.645959
_cell_volume                      3269.51608189

loop_
_atom_site_label
_atom_site_type_symbol
_atom_type_description
_atom_site_fract_x
_atom_site_fract_y
_atom_site_fract_z
_atom_type_partial_charge
C1    C     C_R   0.223288 0.537118 0.526361 0.499137
C2    C     C_2   0.475521 0.527035 0.986973 -0.120760
C3    C     C_2   0.525960 0.458377 0.012988 -0.129407
C4    C     C_R   0.775895 0.462725 0.473004 0.562636
C5    C     C_R   0.518783 0.475664 0.233567 0.039337
C6    C     C_2   0.887102 0.448971 0.463859 -0.028536
C7    C     C_2   0.943548 0.518376 0.498964 0.355608
C8    C     C_2   0.111845 0.556379 0.535217 -0.072816
C9    C     C_2   0.054850 0.499489 0.492403 -0.123177
C10   C     C_2   0.543812 0.887302 0.530780 -0.067931
C11   C     C_2   0.520100 0.938828 0.482452 -0.078878
C12   C     C_R   0.475530 0.520524 0.910819 0.042990
C13   C     C_2   0.462461 0.108143 0.464961 0.249597
C14   C     C_2   0.520453 0.052221 0.496323 0.393472
C15   C     C_R   0.467817 0.222699 0.478525 0.520269
C16   C     C_R   0.533294 0.776127 0.521239 0.501275
C17   C     C_R   0.511265 0.485287 0.309735 0.485245
C18   C     C_R   0.489160 0.513184 0.690421 0.511344
C19   C     C_R   0.482187 0.516137 0.766187 0.039119
C20   C     C_R   0.505428 0.426665 0.790480 -0.113311
C21   C     C_R   0.500835 0.428271 0.862163 -0.099399
C22   C     C_R   0.449350 0.609287 0.886554 -0.109529
C23   C     C_R   0.452288 0.607125 0.814608 -0.113958
C24   C     C_R   0.529268 0.561593 0.133076 -0.120288
C25   C     C_R   0.527009 0.566270 0.204937 -0.147958
C26   C     C_R   0.516872 0.378241 0.188799 0.247954
C27   C     C_R   0.519071 0.374924 0.116829 -0.040335
C28   C     C_R   0.523896 0.465892 0.088925 -0.011926
F1    F     F_    0.897879 0.604401 0.542106 -0.614858
F2    F     F_    0.580118 0.098987 0.543459 -0.625346
H1    H     H_    0.526168 0.354905 0.754034 0.150694
H2    H     H_    0.428257 0.680782 0.923207 0.113537
H3    H     H_    0.536109 0.632572 0.112042 0.129020
H4    H     H_    0.433336 0.676869 0.796769 0.138438
H5    H     H_    0.433987 0.591618 0.022806 0.125822
H6    H     H_    0.516348 0.356631 0.878557 0.111611
H7    H     H_    0.362665 0.108133 0.401100 0.355081
H8    H     H_    0.536914 0.295260 0.259046 0.335538
H9    H     H_    0.516960 0.300736 0.082444 0.140979
H10   H     H_    0.090570 0.436522 0.451933 0.122149
H11   H     H_    0.076593 0.618366 0.576543 0.177682
H12   H     H_    0.921988 0.377819 0.431979 0.031870
H13   H     H_    0.495793 0.897222 0.434633 0.147057
H14   H     H_    0.559242 0.928077 0.581464 0.166461
H15   H     H_    0.529855 0.640979 0.238542 0.137965
H16   H     H_    0.567715 0.392838 0.978873 0.122358
O1    O     O_3   0.500000 0.500000 0.500000 -0.462011
O2    O     O_R   0.441420 0.437150 0.344000 -0.532206
O3    O     O_R   0.438960 0.578560 0.667440 -0.545202
O4    O     O_R   0.575450 0.541060 0.341470 -0.547435
O5    O     O_R   0.544160 0.443230 0.647100 -0.528345
O6    O     O_3   0.400104 0.056849 0.419601 -0.745163
O7    O     O_3   0.514999 0.285100 0.212219 -0.684574
O8    O     O_R   0.530110 0.266880 0.518530 -0.474403
O9    O     O_R   0.465470 0.738830 0.563940 -0.533999
O10   O     O_R   0.266890 0.467300 0.476120 -0.534635
O11   O     O_R   0.737530 0.526990 0.441410 -0.512363
O12   O     O_R   0.276880 0.592620 0.567490 -0.533424
O13   O     O_R   0.718700 0.413090 0.514970 -0.521108
O14   O     O_R   0.414920 0.276880 0.447500 -0.565337
O15   O     O_R   0.589510 0.717410 0.470040 -0.515288
Zn1   Zn    Zn3+2 0.571990 0.407410 0.544380 1.009564
Zn2   Zn    Zn3+2 0.407420 0.421690 0.442900 0.947185
Zn3   Zn    Zn3+2 0.598910 0.570150 0.439280 0.978578
Zn4   Zn    Zn3+2 0.421690 0.600750 0.573440 0.964332

loop_
_geom_bond_atom_site_label_1
_geom_bond_atom_site_label_2
_ccdc_geom_bond_type
C4    O11   A    
C2    H5    S    
O15   Zn3   S    
C19   C23   A    
C26   O7    S    
C1    O12   A    
C11   H13   S    
C6    C7    D    
C7    F1    S    
C17   O4    A    
C25   H15   S    
C13   O6    S    
O4    Zn3   S    
C15   O14   A    
C19   C20   A    
O12   Zn4   S    
C24   H3    S    
C17   O2    A    
C23   H4    S    
C2    C12   S    
O1    Zn1   S    
C2    C3    D    
O10   Zn2   S    
C8    H11   S    
C21   H6    S    
C10   C16   S    
C13   C14   D    
C24   C25   A    
H8    O7    S    
C26   C27   A    
O5    Zn1   S    
C22   H2    S    
C14   F2    S    
O14   Zn2   S    
C5    C25   A    
C16   O15   A    
C4    O13   A    
C3    C28   S    
O9    Zn4   S    
C1    O10   A    
C18   O5    A    
C13   C15   S    
O1    Zn2   S    
C11   C14   S    
C16   O9    A    
C5    C17   S    
C10   C11   D    
C10   H14   S    
C5    C26   A    
C1    C8    S    
C15   O8    A    
C12   C22   A    
C27   C28   A    
C20   C21   A    
O11   Zn3   S    
C4    C6    S    
C18   C19   S    
C6    H12   S    
O1    Zn3   S    
C7    C9    S    
H7    O6    S    
C22   C23   A    
O13   Zn1   S    
C3    H16   S    
O3    Zn4   S    
O8    Zn1   S    
C12   C21   A    
O1    Zn4   S    
C9    H10   S    
C24   C28   A    
C18   O3    A    
C27   H9    S    
C8    C9    D    
O2    Zn2   S    
C20   H1    S    
