data_mof_unit_12871.cif
_audit_creation_date              2012-12-11T15:54:07-0500
_audit_creation_method            fapswitch 2.2
_symmetry_space_group_name_H-M    P1
_symmetry_Int_Tables_number       1
_space_group_crystal_system       triclinic
_cell_length_a                    10.758838
_cell_length_b                    10.758346
_cell_length_c                    16.962346
_cell_angle_alpha                 80.440289
_cell_angle_beta                  99.411341
_cell_angle_gamma                 119.039841
_cell_volume                      1684.83701727

loop_
_atom_site_label
_atom_site_type_symbol
_atom_type_description
_atom_site_fract_x
_atom_site_fract_y
_atom_site_fract_z
_atom_type_partial_charge
C1    C     C_R   0.360870 0.228740 0.627141 0.541856
C2    C     C_1   0.320368 0.159541 0.778178 -0.054740
C3    C     C_1   0.319578 0.686701 0.280632 -0.069105
C4    C     C_R   0.369692 0.654722 0.585831 0.535226
C5    C     C_1   0.297297 0.709933 0.209834 -0.077994
C6    C     C_R   0.784243 0.646290 0.143751 -0.012612
C7    C     C_R   0.737603 0.512614 0.188396 0.025595
C8    C     C_R   0.707410 0.494965 0.266633 -0.003594
C9    C     C_R   0.729217 0.732447 0.251004 0.109346
C10   C     C_R   0.760325 0.748021 0.170834 -0.132160
C11   C     C_3   0.808688 0.420587 0.208570 -0.276393
C12   C     C_R   0.390245 0.829488 0.672863 -0.149558
C13   C     C_3   0.778430 0.403749 0.294293 -0.271038
C14   C     C_R   0.717571 0.607603 0.302241 0.012250
C15   C     C_R   0.319114 0.148180 0.165743 -0.011339
C16   C     C_R   0.781116 0.621028 0.626000 0.559287
C17   C     C_R   0.229244 0.187631 0.192006 -0.013321
C18   C     C_R   0.231713 0.192305 0.271767 0.036111
C19   C     C_R   0.410375 0.114292 0.305489 0.094588
C20   C     C_R   0.412700 0.113432 0.222739 -0.155246
C21   C     C_3   0.068600 0.118487 0.181490 -0.227606
C22   C     C_3   0.074394 0.125324 0.270263 0.009360
C23   C     C_R   0.374154 0.851233 0.748874 -0.155945
C24   C     C_R   0.321490 0.160121 0.328724 0.022768
C25   C     C_R   0.947303 0.725135 0.851638 0.538842
C26   C     C_R   0.282634 0.750385 0.882670 0.552408
C27   C     C_R   0.284311 0.114365 0.857918 0.539145
C28   C     C_R   0.349602 0.223220 0.401803 0.539741
C29   C     C_R   0.879883 0.687433 0.080945 0.546618
C30   C     C_R   0.284695 0.739361 0.125283 0.567303
C31   C     C_R   0.283945 0.103213 0.086472 0.553399
C32   C     C_R   0.363152 0.657523 0.361765 0.534361
C33   C     C_R   0.704164 0.586141 0.388993 0.573259
C34   C     C_3   0.142441 0.456815 0.796803 -0.245409
C35   C     C_R   0.281491 0.735763 0.798559 0.000742
C36   C     C_R   0.186036 0.608728 0.764409 0.011366
C37   C     C_R   0.203071 0.586527 0.689843 0.014427
C38   C     C_3   0.422168 0.966320 0.430049 -0.251705
C39   C     C_3   0.091427 0.367441 0.256390 -0.245010
C40   C     C_3   0.696644 0.949252 0.227571 -0.306882
C41   C     C_3   0.161835 0.432683 0.715043 -0.247356
C42   C     C_R   0.315034 0.691417 0.646766 0.013928
C43   C     C_1   0.850954 0.669547 0.702374 -0.035029
C44   C     C_1   0.898034 0.704164 0.769105 -0.037270
C45   C     C_1   0.344802 0.186974 0.709586 -0.051178
Cr1   Cr    Cr6+3 0.608440 0.389080 0.519680 1.020183
Cr2   Cr    Cr6+3 0.288640 0.400090 0.490760 1.019699
Cr3   Cr    Cr6+3 0.602940 0.710800 0.489510 1.007143
Cr4   Cr    Cr6+3 0.052530 0.947560 0.964210 1.009100
Cr5   Cr    Cr6+3 0.059970 0.626800 0.992920 1.002413
Cr6   Cr    Cr6+3 0.373320 0.938440 0.995370 0.997770
H1    H     H_    0.472347 0.916552 0.638901 0.135444
H2    H     H_    0.750222 0.319730 0.179158 0.138207
H3    H     H_    0.703885 0.293147 0.315301 0.172867
H4    H     H_    0.558301 0.039515 0.340660 0.246547
H5    H     H_    0.499729 0.938732 0.469114 0.182599
H6    H     H_    0.329854 0.869170 0.407193 0.135997
H7    H     H_    0.383529 0.011257 0.468447 0.140407
H8    H     H_    0.478290 0.075098 0.203786 0.124552
H9    H     H_    0.919852 0.176075 0.295852 0.239470
H10   H     H_    0.068509 0.430276 0.291791 0.140432
H11   H     H_    0.048918 0.374880 0.192747 0.130186
H12   H     H_    0.877056 0.455682 0.335416 0.151533
H13   H     H_    0.208831 0.414172 0.259045 0.184967
H14   H     H_    0.442228 0.954577 0.771097 0.140436
H15   H     H_    0.220486 0.445620 0.845376 0.163073
H16   H     H_    0.251516 0.408331 0.716547 0.157988
H17   H     H_    0.806375 0.893750 0.326810 0.264512
H18   H     H_    0.784463 0.017274 0.189266 0.120215
H19   H     H_    0.683858 0.020235 0.261692 0.106749
H20   H     H_    0.597180 0.892876 0.190400 0.212762
H21   H     H_    0.019551 0.006580 0.166830 0.136435
H22   H     H_    0.027999 0.185573 0.140760 0.141851
H23   H     H_    0.031135 0.020119 0.306651 0.119489
H24   H     H_    0.029338 0.398578 0.810909 0.151617
H25   H     H_    0.060063 0.360027 0.682145 0.150904
H26   H     H_    0.782800 0.845822 0.132589 0.131197
H27   H     H_    0.923710 0.484065 0.201315 0.152613
N1    N     N_2   0.494207 0.067432 0.363997 -0.519051
N2    N     N_2   0.027446 0.220619 0.291117 -0.491823
N3    N     N_2   0.726820 0.846983 0.282202 -0.479567
O1    O     O_R   0.754020 0.497590 0.609930 -0.502292
O2    O     O_R   0.406180 0.826930 0.920660 -0.493862
O3    O     O_R   0.358620 0.062870 0.901950 -0.515450
O4    O     O_R   0.481420 0.271390 0.600630 -0.499942
O5    O     O_R   0.163910 0.085460 0.050210 -0.516607
O6    O     O_R   0.935200 0.815170 0.045770 -0.506170
O7    O     O_R   0.916120 0.596690 0.069430 -0.525282
O8    O     O_R   0.192310 0.631200 0.086170 -0.494427
O9    O     O_R   0.406770 0.819480 0.096420 -0.523070
O10   O     O_R   0.359170 0.055960 0.064880 -0.522778
O11   O     O_3   0.161940 0.837600 0.984160 -0.312187
O12   O     O_R   0.295080 0.533620 0.397890 -0.504962
O13   O     O_R   0.263810 0.254550 0.589590 -0.515349
O14   O     O_R   0.300820 0.531200 0.560890 -0.496399
O15   O     O_R   0.491480 0.744020 0.564270 -0.541498
O16   O     O_R   0.726290 0.693800 0.583010 -0.488578
O17   O     O_R   0.747830 0.500190 0.434090 -0.518492
O18   O     O_R   0.475680 0.273800 0.437630 -0.495693
O19   O     O_R   0.257620 0.257160 0.413750 -0.491467
O20   O     O_R   0.485280 0.746620 0.388440 -0.508731
O21   O     O_R   0.720550 0.696220 0.420010 -0.500081
O22   O     O_3   0.500010 0.499990 0.499980 -0.271324
O23   O     O_R   0.163320 0.092900 0.874450 -0.510001
O24   O     O_R   0.934650 0.822080 0.882840 -0.477169
O25   O     O_R   0.915520 0.604140 0.893670 -0.506540
O26   O     O_R   0.191760 0.638110 0.923230 -0.501998

loop_
_geom_bond_atom_site_label_1
_geom_bond_atom_site_label_2
_ccdc_geom_bond_type
Cr1   O18   S    
C8    C13   S    
C40   H20   S    
Cr4   O6    S    
C19   C20   A    
C30   O9    A    
C34   H15   S    
Cr4   O23   S    
C25   O24   A    
C7    C8    A    
C41   H16   S    
C7    C11   S    
C39   H13   S    
C12   C23   A    
C26   O2    A    
C40   H19   S    
C18   C24   A    
H17   N3    S    
C36   C37   A    
C5    C30   S    
Cr6   O9    S    
C16   O16   A    
C38   N1    S    
C38   H6    S    
C21   H22   S    
C27   O23   A    
C33   O17   A    
C37   C42   A    
C29   O7    A    
C12   C42   A    
Cr6   O10   S    
C38   H7    S    
H9    N2    S    
C35   C36   A    
C1    O13   A    
C2    C27   S    
C9    C10   A    
C11   H2    S    
Cr5   O7    S    
C34   H24   S    
Cr1   O4    S    
C28   O19   A    
C32   O12   A    
Cr1   O17   S    
C31   O5    A    
Cr1   O1    S    
C21   C22   S    
C34   C41   S    
C14   C33   S    
C30   O8    A    
C40   N3    S    
C25   C44   S    
C12   H1    S    
C10   H26   S    
C25   O25   A    
C2    C45   T    
C1    O4    A    
C15   C20   A    
C39   H10   S    
Cr2   O22   S    
C40   H18   S    
C21   H21   S    
C33   O21   A    
C9    C14   A    
Cr4   O24   S    
Cr3   O22   S    
C17   C21   S    
Cr2   O19   S    
C43   C44   T    
Cr3   O16   S    
C11   H27   S    
Cr6   O11   S    
C4    O14   A    
H4    N1    S    
Cr5   O8    S    
C13   H12   S    
Cr3   O21   S    
C16   O1    A    
C17   C18   A    
Cr2   O12   S    
C20   H8    S    
C19   N1    S    
C16   C43   S    
C28   O18   A    
Cr5   O11   S    
C23   C35   A    
Cr5   O26   S    
C22   H23   S    
Cr4   O11   S    
Cr6   O2    S    
C13   H3    S    
C15   C17   A    
C39   H11   S    
C27   O3    A    
C8    C14   A    
Cr3   O15   S    
C18   C22   S    
Cr4   O5    S    
C24   C28   S    
C3    C5    T    
C26   O26   A    
C6    C10   A    
C15   C31   S    
C6    C7    A    
Cr1   O22   S    
C31   O10   A    
C39   N2    S    
C23   H14   S    
C19   C24   A    
C22   N2    S    
C41   H25   S    
C11   C13   S    
C1    C45   S    
C4    C42   S    
Cr3   O20   S    
Cr2   O13   S    
C4    O15   A    
C34   C36   S    
C37   C41   S    
C3    C32   S    
C29   O6    A    
C26   C35   S    
C6    C29   S    
C38   H5    S    
Cr5   O25   S    
Cr2   O14   S    
C32   O20   A    
Cr6   O3    S    
C9    N3    S    
