data_mof_unit_5302.cif
_audit_creation_date              2013-03-05T16:48:44-0500
_audit_creation_method            fapswitch 2.2
_symmetry_space_group_name_H-M    P1
_symmetry_Int_Tables_number       1
_space_group_crystal_system       triclinic
_cell_length_a                    27.330321
_cell_length_b                    9.019514
_cell_length_c                    8.09252
_cell_angle_alpha                 88.944477
_cell_angle_beta                  90.209008
_cell_angle_gamma                 88.776996
_cell_volume                      1994.04730065

loop_
_atom_site_label
_atom_site_type_symbol
_atom_site_description
_atom_site_fract_x
_atom_site_fract_y
_atom_site_fract_z
_atom_type_partial_charge
O1    O     O_R   0.500000 0.285350 0.636850 -0.615919
O2    O     O_R   0.500000 0.714650 0.363150 -0.619201
O3    O     O_R   0.500000 0.714650 0.636850 -0.617648
O4    O     O_R   0.500000 0.285350 0.363150 -0.616195
C1    C     C_R   0.500067 0.217763 0.500966 0.903626
C2    C     C_R   0.499942 0.782239 0.499036 0.920662
O5    O     O_R   0.428760 0.500000 0.636860 -0.550157
O6    O     O_R   0.571240 0.500000 0.363140 -0.569227
O7    O     O_R   0.571240 0.500000 0.636860 -0.611025
O8    O     O_R   0.428760 0.500000 0.363140 -0.608433
C3    C     C_R   0.405119 0.506827 0.499556 0.941767
C4    C     C_R   0.594495 0.491505 0.501096 0.959655
Zn1   Zn    Zn3+2 0.500000 0.500000 0.682780 1.050952
Zn2   Zn    Zn3+2 0.500000 0.500000 0.317220 1.040719
C5    C     C_R   0.176302 0.403889 0.494075 0.603513
C6    C     C_R   0.814699 0.604860 0.655386 0.635934
C7    C     C_R   0.167581 0.666415 0.465512 0.575186
C8    C     C_R   0.826231 0.343110 0.679950 0.557403
O9    O     O_2   0.205678 0.282211 0.484337 -0.481095
O10   O     O_2   0.783525 0.722864 0.657262 -0.465908
O11   O     O_2   0.188382 0.800598 0.463704 -0.513722
O12   O     O_2   0.808582 0.205215 0.668114 -0.500041
N1    N     N_R   0.196258 0.541096 0.481436 -0.334366
N2    N     N_R   0.796540 0.464753 0.647896 -0.326792
C9    C     C_R   0.275099 0.585028 0.348524 0.184609
C10   C     C_R   0.713483 0.369591 0.689649 0.208629
C11   C     C_R   0.272628 0.513028 0.640755 0.090487
C12   C     C_R   0.731131 0.517046 0.440436 0.106435
C13   C     C_R   0.326266 0.574979 0.351631 0.284473
C14   C     C_R   0.664522 0.365115 0.642392 0.282134
C15   C     C_R   0.324242 0.503186 0.645263 0.360954
C16   C     C_R   0.680294 0.527111 0.403568 0.325558
C17   C     C_R   0.248453 0.551715 0.491476 0.091286
C18   C     C_R   0.746889 0.447679 0.591390 0.091453
C19   C     C_R   0.095870 0.519712 0.507833 -0.190064
C20   C     C_R   0.896287 0.498554 0.670044 -0.200035
C21   C     C_R   0.125813 0.390506 0.520758 -0.141408
C22   C     C_R   0.865557 0.624694 0.650959 -0.110805
C23   C     C_R   0.116422 0.655370 0.459118 -0.171874
C24   C     C_R   0.876122 0.361699 0.712827 -0.152019
C25   C     C_R   0.104547 0.252737 0.556108 0.455432
C26   C     C_R   0.886425 0.763863 0.622064 0.353998
C27   C     C_R   0.085150 0.773617 0.405177 0.345468
C28   C     C_R   0.907121 0.248401 0.779473 0.321186
C29   C     C_R   0.351159 0.527747 0.498480 -0.284351
C30   C     C_R   0.647213 0.457635 0.510731 -0.265649
C31   C     C_R   0.976916 0.378905 0.662452 -0.015413
C32   C     C_R   0.015649 0.643461 0.525540 0.003912
C33   C     C_R   0.966560 0.641572 0.583244 0.039205
C34   C     C_R   0.025573 0.379228 0.601595 -0.052598
C35   C     C_R   0.946767 0.506540 0.638518 -0.072185
C36   C     C_R   0.045643 0.514369 0.546180 -0.071835
C37   C     C_R   0.958320 0.260834 0.760427 0.406174
C38   C     C_R   0.034241 0.763605 0.430597 0.523041
C39   C     C_R   0.937812 0.772193 0.603108 0.377434
C40   C     C_R   0.053824 0.246700 0.581175 0.374579
C41   C     C_1   0.500051 0.064965 0.501366 -0.160666
C42   C     C_1   0.500005 0.935041 0.498652 -0.159561
N3    N     N_1   0.500000 0.500000 0.073640 -0.004420
N4    N     N_1   0.500000 0.500000 0.926360 0.001110
O13   O     O_3   0.349143 0.466894 0.790188 -0.709516
H1    H     H_    0.327568 0.482595 0.886451 0.380101
O14   O     O_3   0.661407 0.607296 0.269789 -0.735635
H2    H     H_    0.687642 0.630075 0.190478 0.341266
O15   O     O_3   0.350876 0.611905 0.209008 -0.737453
H3    H     H_    0.376245 0.683440 0.239771 0.345817
O16   O     O_3   0.633917 0.275531 0.733817 -0.735926
H4    H     H_    0.606566 0.245541 0.661898 0.337436
N5    N     N_2   0.244836 0.480023 0.785416 -0.338738
H5    H     H_    0.211769 0.536152 0.796633 0.231968
C43   C     C_3   0.244022 0.325422 0.838407 -0.652918
H6    H     H_    0.206481 0.282230 0.825004 0.255892
H7    H     H_    0.254782 0.315486 0.970416 0.225978
H8    H     H_    0.269585 0.254958 0.765555 0.275481
N6    N     N_2   0.766099 0.589196 0.337317 -0.287654
H9    H     H_    0.757845 0.690531 0.282116 0.257722
C44   C     C_3   0.806209 0.502213 0.269488 -0.757351
H10   H     H_    0.841454 0.545490 0.314203 0.249094
H11   H     H_    0.805863 0.512286 0.132726 0.237370
H12   H     H_    0.803991 0.382985 0.305475 0.251937
N7    N     N_2   0.249640 0.619229 0.198401 -0.291680
H13   H     H_    0.256749 0.543313 0.107845 0.251547
C45   C     C_3   0.253174 0.770564 0.137353 -0.639984
H14   H     H_    0.222558 0.795175 0.049925 0.227566
H15   H     H_    0.288121 0.785949 0.070323 0.255488
H16   H     H_    0.250910 0.850579 0.239766 0.280284
N8    N     N_2   0.728838 0.299820 0.840694 -0.250837
H17   H     H_    0.717200 0.192201 0.854214 0.294764
C46   C     C_3   0.718399 0.386790 0.984917 -0.720678
H18   H     H_    0.734487 0.330090 0.095820 0.243086
H19   H     H_    0.678216 0.398855 0.003020 0.286952
H20   H     H_    0.734387 0.498506 0.970824 0.236607
O17   O     O_3   0.133426 0.124847 0.560040 -0.638860
H21   H     H_    0.115048 0.042517 0.611264 0.393324
O18   O     O_3   0.856502 0.888958 0.608081 -0.640813
H22   H     H_    0.872879 0.963715 0.537404 0.354437
O19   O     O_3   0.102497 0.894286 0.317558 -0.710429
H23   H     H_    0.130477 0.860544 0.249324 0.368366
O20   O     O_3   0.889037 0.130375 0.870019 -0.750939
H24   H     H_    0.856891 0.159890 0.916694 0.379824
O21   O     O_3   0.990924 0.167158 0.844917 -0.708770
H25   H     H_    0.973068 0.100081 0.920500 0.385501
O22   O     O_3   0.001575 0.858706 0.348143 -0.723681
H26   H     H_    0.019194 0.930072 0.277048 0.385595
O23   O     O_3   0.961339 0.903808 0.623552 -0.700107
H27   H     H_    0.939306 0.973167 0.681171 0.373167
O24   O     O_3   0.032255 0.111532 0.563031 -0.675865
H28   H     H_    0.000259 0.130302 0.507561 0.366897

loop_
_geom_bond_atom_site_label_1
_geom_bond_atom_site_label_2
_geom_bond_distance
_ccdc_geom_bond_type
N8    H17   1.031922 S    
O21   H25   0.989671 S    
C15   O13   1.384295 S    
C19   C23   1.407557 A    
O18   H22   0.991286 S    
O3    C2    1.261092 A    
N7    H13   1.028344 S    
C40   O24   1.375518 S    
Zn1   N4    1.971176 S    
C44   H10   1.109002 S    
C11   C17   1.409424 A    
C5    O9    1.349534 S    
Zn2   N3    1.971176 S    
O17   H21   0.990768 S    
C39   O23   1.374436 S    
C21   C25   1.408067 A    
C8    N2    1.370945 A    
C19   C21   1.411691 A    
C22   C26   1.405811 A    
C32   C36   1.416575 A    
N5    H5    1.031532 S    
C28   O20   1.382308 S    
C7    C23   1.404683 A    
N5    C43   1.451953 S    
O7    Zn1   1.983486 S    
C5    C21   1.404863 A    
C20   C24   1.400679 A    
C8    C24   1.402477 A    
C28   C37   1.414924 A    
C10   C18   1.404999 A    
C25   O17   1.383515 S    
C45   H14   1.109952 S    
C37   O21   1.384739 S    
C10   N8    1.422280 S    
N1    C17   1.433873 S    
C34   C36   1.413469 A    
O24   H28   0.991389 S    
C46   H19   1.111773 S    
C14   O16   1.382479 S    
C11   N5    1.428052 S    
C6    O10   1.349417 S    
C31   C37   1.419845 A    
C5    N1    1.365277 A    
C12   C18   1.423283 A    
N3    N4    1.191866 T    
C6    N2    1.369778 A    
C9    N7    1.423416 S    
O2    C2    1.267103 A    
N7    C45   1.448327 S    
O19   H23   0.990786 S    
C31   C34   1.419816 A    
C44   H11   1.108792 S    
C9    C13   1.399506 A    
C11   C15   1.411827 A    
O16   H4    0.990908 S    
C38   O22   1.385604 S    
C12   C16   1.420647 A    
C4    C30   1.467950 S    
O8    Zn2   1.983489 S    
C43   H7    1.108512 S    
C31   C35   1.411333 A    
C33   C35   1.409199 A    
C33   C39   1.414054 A    
C34   C40   1.421658 A    
C26   O18   1.381982 S    
C13   C29   1.421149 A    
C32   C38   1.420729 A    
N6    H9    1.030170 S    
C25   C40   1.403820 A    
C26   C39   1.416776 A    
C27   C38   1.411773 A    
O5    C3    1.283128 A    
O20   H24   0.990726 S    
O5    Zn1   1.980826 S    
O6    C4    1.282878 A    
C7    N1    1.365490 A    
C46   H20   1.110931 S    
N6    C44   1.449828 S    
C20   C35   1.407074 A    
C13   O15   1.377144 S    
C32   C33   1.422516 A    
C45   H15   1.110123 S    
C10   C14   1.391972 A    
N8    C46   1.444128 S    
O1    C1    1.267080 A    
C3    C29   1.482734 S    
O1    Zn1   1.978108 S    
O22   H26   0.989355 S    
C44   H12   1.111887 S    
O6    Zn2   1.980823 S    
C8    O12   1.348477 S    
C16   C30   1.404292 A    
C14   C30   1.414945 A    
C27   O19   1.381352 S    
C16   O14   1.383000 S    
O4    C1    1.261095 A    
O3    Zn1   1.964659 S    
C43   H8    1.112408 S    
C23   C27   1.414123 A    
O23   H27   0.983920 S    
C1    C41   1.378112 S    
C20   C22   1.405498 A    
C43   H6    1.110870 S    
C41   C42   1.172493 T    
C2    C42   1.378187 S    
O4    Zn2   1.964660 S    
O13   H1    0.989163 S    
O2    Zn2   1.978107 S    
O7    C4    1.273967 A    
N2    C18   1.442638 S    
O8    C3    1.282958 A    
O14   H2    0.986436 S    
C24   C28   1.411489 A    
C45   H16   1.109981 S    
O15   H3    0.991340 S    
C15   C29   1.415929 A    
C9    C17   1.400570 A    
C19   C36   1.410103 A    
C46   H18   1.109488 S    
C12   N6    1.430248 S    
C6    C22   1.405703 A    
C7    O11   1.347924 S    
