data_mof_unit_57628.cif
_audit_creation_date              2012-12-11T15:31:39-0500
_audit_creation_method            fapswitch 2.2
_symmetry_space_group_name_H-M    P1
_symmetry_Int_Tables_number       1
_space_group_crystal_system       triclinic
_cell_length_a                    13.578592
_cell_length_b                    13.59002
_cell_length_c                    27.672878
_cell_angle_alpha                 90.403113
_cell_angle_beta                  90.155785
_cell_angle_gamma                 119.964132
_cell_volume                      4423.79159234

loop_
_atom_site_label
_atom_site_type_symbol
_atom_type_description
_atom_site_fract_x
_atom_site_fract_y
_atom_site_fract_z
_atom_type_partial_charge
C1    C     C_R   0.619453 0.898413 0.431263 0.545845
C2    C     C_R   0.195400 0.937910 0.263182 0.280966
C3    C     C_R   0.178031 0.928185 0.212769 -0.097616
C4    C     C_R   0.599666 0.218367 0.431272 0.544593
C5    C     C_R   0.140680 0.734321 0.215008 -0.126421
C6    C     C_R   0.155420 0.742576 0.265138 -0.162676
C7    C     C_R   0.181626 0.843552 0.289476 0.041550
C8    C     C_R   0.152047 0.826969 0.188655 -0.011140
C9    C     C_1   0.127496 0.813717 0.137554 -0.054655
C10   C     C_1   0.204557 0.852710 0.340738 -0.017379
C11   C     C_1   0.098310 0.794909 0.095704 -0.010109
C12   C     C_R   0.717877 0.437848 0.222655 -0.104386
C13   C     C_1   0.634409 0.866029 0.383596 -0.010607
C14   C     C_R   0.600205 0.874588 0.258157 -0.103678
C15   C     C_R   0.607928 0.862900 0.208256 -0.105706
C16   C     C_R   0.279620 0.878883 0.430510 0.542919
C17   C     C_R   0.707869 0.759559 0.222734 -0.100819
C18   C     C_R   0.700233 0.771324 0.272632 -0.101911
C19   C     C_R   0.646860 0.829401 0.290457 0.040044
C20   C     C_R   0.662201 0.805701 0.190427 0.039382
C21   C     C_1   0.675389 0.796901 0.139224 -0.055926
C22   C     C_1   0.641789 0.846170 0.341636 -0.054878
C23   C     C_R   0.708175 0.420517 0.272567 -0.111520
C24   C     C_1   0.692867 0.787116 0.097243 -0.011582
C25   C     C_R   0.640187 0.278902 0.615271 0.024613
C26   C     C_R   0.722107 0.265208 0.640664 -0.126078
C27   C     C_R   0.734443 0.283899 0.689960 -0.123968
C28   C     C_R   0.620489 0.900735 0.568984 0.542549
C29   C     C_R   0.668220 0.320697 0.714269 0.037954
C30   C     C_R   0.595334 0.346406 0.688070 -0.120966
C31   C     C_R   0.580566 0.324600 0.638708 -0.129783
C32   C     C_R   0.575442 0.300670 0.793750 -0.121898
C33   C     C_R   0.583875 0.322656 0.843103 -0.131034
C34   C     C_R   0.668351 0.311381 0.290820 0.031357
C35   C     C_R   0.786277 0.389289 0.839913 -0.126533
C36   C     C_R   0.778408 0.370343 0.790619 -0.124228
C37   C     C_R   0.673792 0.329873 0.766932 0.037043
C38   C     C_R   0.690433 0.372104 0.865909 0.023664
C39   C     C_R   0.223936 0.863628 0.614932 0.024171
C40   C     C_R   0.601762 0.223026 0.568444 0.541828
C41   C     C_R   0.242597 0.958393 0.642673 -0.126409
C42   C     C_R   0.216292 0.946517 0.691444 -0.122323
C43   C     C_R   0.168960 0.839436 0.712921 0.036468
C44   C     C_R   0.141654 0.743312 0.684295 -0.119183
C45   C     C_R   0.687437 0.346191 0.190761 0.037820
C46   C     C_R   0.169670 0.755424 0.635591 -0.127133
C47   C     C_R   0.173196 0.753634 0.791545 -0.120479
C48   C     C_R   0.146292 0.735695 0.840315 -0.129220
C49   C     C_R   0.083982 0.874746 0.837966 -0.126349
C50   C     C_R   0.109220 0.891331 0.789159 -0.122461
C51   C     C_R   0.150835 0.828468 0.765281 0.036256
C52   C     C_R   0.279727 0.881559 0.568190 0.542837
C53   C     C_R   0.097944 0.793411 0.863416 0.022933
C54   C     C_R   0.638814 0.862180 0.615666 0.023079
C55   C     C_R   0.546558 0.770763 0.638563 -0.125209
C56   C     C_1   0.694041 0.365464 0.139492 -0.058381
C57   C     C_R   0.553066 0.750872 0.687233 -0.121799
C58   C     C_R   0.652607 0.820658 0.713564 0.036944
C59   C     C_R   0.748172 0.905841 0.689734 -0.120249
C60   C     C_R   0.741174 0.926901 0.641091 -0.128650
C61   C     C_R   0.712311 0.902667 0.796337 -0.119757
C62   C     C_R   0.724688 0.889520 0.845344 -0.127970
C63   C     C_R   0.614276 0.684793 0.835117 -0.127245
C64   C     C_1   0.631413 0.264462 0.383725 -0.017562
C65   C     C_R   0.603590 0.697892 0.786021 -0.122680
C66   C     C_R   0.655610 0.806842 0.766020 0.035346
C67   C     C_1   0.651380 0.290690 0.341877 -0.066938
C68   C     C_R   0.679016 0.780424 0.864656 0.023809
C69   C     C_R   0.049321 0.761133 0.048236 0.545557
C70   C     C_R   0.714283 0.435774 0.049720 0.545010
C71   C     C_R   0.723555 0.770764 0.049528 0.545591
C72   C     C_R   0.043865 0.755864 0.910484 0.541997
C73   C     C_R   0.707924 0.428370 0.912606 0.540938
C74   C     C_R   0.717266 0.765077 0.911879 0.540540
C75   C     C_R   0.639094 0.219901 0.258960 -0.115944
C76   C     C_R   0.648466 0.237171 0.209022 -0.112168
C77   C     C_3   0.332148 0.120356 0.279196 -0.010200
C78   C     C_1   0.701493 0.390771 0.097454 -0.012911
C79   C     C_3   0.359344 0.226287 0.308403 -0.350940
C80   C     C_1   0.232266 0.862502 0.382732 -0.005150
Cr1   Cr    Cr6+3 0.417720 0.831920 0.499820 1.020957
Cr2   Cr    Cr6+3 0.668190 0.085770 0.500360 1.024296
Cr3   Cr    Cr6+3 0.414060 0.082260 0.499840 1.022974
Cr4   Cr    Cr6+3 0.908000 0.821090 0.979770 1.022720
Cr5   Cr    Cr6+3 0.912420 0.571130 0.979880 1.021645
Cr6   Cr    Cr6+3 0.657970 0.566940 0.980940 1.023143
H1    H     H_    0.607377 0.134934 0.272728 0.100435
H2    H     H_    0.869720 0.427266 0.856630 0.134355
H3    H     H_    0.546698 0.379182 0.705985 0.099797
H4    H     H_    0.624318 0.165642 0.184767 0.107279
H5    H     H_    0.517951 0.336983 0.619571 0.123890
H6    H     H_    0.285238 0.043073 0.627699 0.133494
H7    H     H_    0.208700 0.706855 0.774092 0.103631
H8    H     H_    0.158470 0.673111 0.859308 0.125284
H9    H     H_    0.238534 0.021992 0.712773 0.100366
H10   H     H_    0.090912 0.949260 0.769686 0.101378
H11   H     H_    0.046251 0.920153 0.854804 0.133954
H12   H     H_    0.572761 0.899338 0.183698 0.106439
H13   H     H_    0.101747 0.659312 0.699879 0.103095
H14   H     H_    0.153851 0.681143 0.614715 0.124394
H15   H     H_    0.466399 0.719215 0.619868 0.131332
H16   H     H_    0.747879 0.522518 0.208872 0.106341
H17   H     H_    0.749927 0.987676 0.781916 0.104705
H18   H     H_    0.774530 0.964311 0.867642 0.123420
H19   H     H_    0.478157 0.684728 0.704731 0.099800
H20   H     H_    0.559756 0.622631 0.763412 0.101424
H21   H     H_    0.579394 0.599583 0.849080 0.134169
H22   H     H_    0.827177 0.958376 0.709055 0.101167
H23   H     H_    0.750577 0.715642 0.209309 0.106116
H24   H     H_    0.813771 0.997260 0.624148 0.124992
H25   H     H_    0.730205 0.491666 0.296780 0.108330
H26   H     H_    0.183741 0.998982 0.192679 0.119180
H27   H     H_    0.119098 0.655108 0.196831 0.130896
H28   H     H_    0.146921 0.670250 0.284936 0.124105
H29   H     H_    0.558825 0.919834 0.271575 0.101125
H30   H     H_    0.346653 0.143887 0.240344 0.128214
H31   H     H_    0.391273 0.090450 0.291012 0.129703
H32   H     H_    0.352053 0.207257 0.347629 0.172492
H33   H     H_    0.447211 0.294875 0.300716 0.111330
H34   H     H_    0.736812 0.736271 0.297184 0.109993
H35   H     H_    0.299428 0.256247 0.298562 0.164640
H36   H     H_    0.769608 0.230211 0.623461 0.133120
H37   H     H_    0.492995 0.265084 0.776320 0.101932
H38   H     H_    0.508731 0.307558 0.862723 0.124870
H39   H     H_    0.791005 0.263069 0.709258 0.098769
H40   H     H_    0.855641 0.393899 0.770835 0.099966
O1    O     O_R   0.302900 0.805360 0.446400 -0.509320
O2    O     O_R   0.638120 0.455970 0.034270 -0.505902
O3    O     O_R   0.667540 0.672320 0.030160 -0.493559
O4    O     O_R   0.522090 0.841370 0.450730 -0.495512
O5    O     O_R   0.814460 0.840990 0.926980 -0.520097
O6    O     O_R   0.001710 0.811400 0.930110 -0.504671
O7    O     O_R   0.023410 0.659800 0.926210 -0.521412
O8    O     O_R   0.806940 0.473170 0.931090 -0.506167
O9    O     O_R   0.633420 0.451310 0.927930 -0.521779
O10   O     O_R   0.663190 0.668000 0.931580 -0.503721
O11   O     O_3   0.826130 0.653050 0.980200 -0.245649
O12   O     O_R   0.657980 0.180990 0.549630 -0.506352
O13   O     O_R   0.693280 0.995650 0.447220 -0.502404
O14   O     O_R   0.657260 0.178740 0.451050 -0.491469
O15   O     O_R   0.502640 0.195380 0.446850 -0.511283
O16   O     O_R   0.319630 0.976590 0.450330 -0.490053
O17   O     O_R   0.303680 0.807790 0.552740 -0.519802
O18   O     O_R   0.522820 0.843620 0.549310 -0.504429
O19   O     O_R   0.694060 0.998080 0.553560 -0.521281
O20   O     O_3   0.217949 0.036564 0.287286 -0.552247
O21   O     O_R   0.503420 0.197810 0.553190 -0.521398
O22   O     O_R   0.320350 0.978840 0.548910 -0.503691
O23   O     O_3   0.499990 0.999990 0.500010 -0.245989
O24   O     O_R   0.819150 0.845650 0.033320 -0.505250
O25   O     O_R   0.006060 0.815720 0.028680 -0.493659
O26   O     O_R   0.028100 0.664460 0.032550 -0.505864
O27   O     O_R   0.811290 0.477490 0.029660 -0.493492

loop_
_geom_bond_atom_site_label_1
_geom_bond_atom_site_label_2
_ccdc_geom_bond_type
C25   C31   A    
C7    C10   S    
C57   H19   S    
C4    O14   A    
C63   C65   A    
Cr5   O11   S    
C27   C29   A    
C70   O27   A    
C41   C42   A    
C2    C7    A    
C75   C76   A    
C43   C51   S    
C57   C58   A    
C39   C41   A    
C54   C60   A    
C79   H35   S    
C12   C23   A    
C26   C27   A    
C29   C30   A    
C48   H8    S    
C45   C76   A    
C36   C37   A    
C61   H17   S    
C55   H15   S    
C77   H31   S    
C25   C40   S    
C30   C31   A    
C44   H13   S    
Cr1   O23   S    
C71   O24   A    
C70   C78   S    
C68   C74   S    
C14   H29   S    
C79   H32   S    
C17   C20   A    
C56   C78   T    
C41   H6    S    
C18   C19   A    
C49   C50   A    
C6    H28   S    
Cr2   O14   S    
Cr6   O11   S    
C63   C68   A    
C61   C66   A    
C58   C66   S    
Cr1   O18   S    
C73   O9    A    
C45   C56   S    
C8    C9    S    
C40   O12   A    
C33   H38   S    
C28   O18   A    
C77   H30   S    
C1    O13   A    
Cr5   O8    S    
C39   C52   S    
C59   C60   A    
C52   O22   A    
C74   O5    A    
Cr1   O1    S    
C32   H37   S    
C15   C20   A    
C30   H3    S    
C44   C46   A    
C72   O6    A    
C62   H18   S    
C77   C79   S    
C47   H7    S    
C48   C53   A    
C52   O17   A    
Cr6   O2    S    
C42   H9    S    
C69   O25   A    
C64   C67   T    
C19   C22   S    
C3    C8    A    
C4    O15   A    
Cr3   O15   S    
C28   C54   S    
C47   C51   A    
C50   C51   A    
C25   C26   A    
C72   O7    A    
Cr4   O6    S    
C79   H33   S    
C16   C80   S    
C35   C36   A    
C16   O16   A    
C43   C44   A    
C12   H16   S    
Cr2   O13   S    
C71   O3    A    
C35   H2    S    
C47   C48   A    
C3    H26   S    
C23   C34   A    
C35   C38   A    
C17   C18   A    
C28   O19   A    
Cr5   O27   S    
C32   C37   A    
C73   O8    A    
C9    C11   T    
C74   O10   A    
C39   C46   A    
Cr3   O21   S    
C75   H1    S    
Cr4   O11   S    
C1    O4    A    
C31   H5    S    
C55   C57   A    
C5    C8    A    
C1    C13   S    
C42   C43   A    
C15   H12   S    
C63   H21   S    
C18   H34   S    
C65   H20   S    
Cr2   O19   S    
C76   H4    S    
C70   O2    A    
C46   H14   S    
C54   C55   A    
Cr6   O10   S    
C10   C80   T    
C40   O21   A    
C5    H27   S    
C69   O26   A    
C14   C19   A    
C36   H40   S    
C59   H22   S    
C12   C45   A    
C17   H23   S    
C34   C67   S    
Cr3   O16   S    
C11   C69   S    
Cr6   O3    S    
C6    C7    A    
C2    O20   S    
C23   H25   S    
C4    C64   S    
Cr4   O5    S    
C33   C38   A    
C62   C68   A    
C32   C33   A    
C2    C3    A    
C58   C59   A    
Cr5   O26   S    
Cr2   O12   S    
C27   H39   S    
C50   H10   S    
Cr1   O4    S    
C5    C6    A    
C49   C53   A    
C13   C22   T    
C61   C62   A    
C16   O1    A    
Cr2   O23   S    
C60   H24   S    
C49   H11   S    
Cr3   O22   S    
Cr4   O25   S    
Cr6   O9    S    
Cr1   O17   S    
C34   C75   A    
C20   C21   S    
C65   C66   A    
C21   C24   T    
C29   C37   S    
C14   C15   A    
C26   H36   S    
C53   C72   S    
C77   O20   S    
C24   C71   S    
Cr5   O7    S    
Cr3   O23   S    
C38   C73   S    
Cr4   O24   S    
