data_mof_unit_49497.cif
_audit_creation_date              2012-12-11T15:56:56-0500
_audit_creation_method            fapswitch 2.2
_symmetry_space_group_name_H-M    P1
_symmetry_Int_Tables_number       1
_space_group_crystal_system       triclinic
_cell_length_a                    17.553393
_cell_length_b                    24.379608
_cell_length_c                    15.04108
_cell_angle_alpha                 89.875042
_cell_angle_beta                  126.446866
_cell_angle_gamma                 90.028953
_cell_volume                      5177.76130417

loop_
_atom_site_label
_atom_site_type_symbol
_atom_type_description
_atom_site_fract_x
_atom_site_fract_y
_atom_site_fract_z
_atom_type_partial_charge
C1    C     C_R   0.306363 0.117172 0.910613 -0.035165
C2    C     C_R   0.306442 0.882618 0.910211 -0.026907
C3    C     C_R   0.806345 0.617106 0.910647 -0.035526
C4    C     C_R   0.806201 0.383279 0.910594 -0.034753
C5    C     C_R   0.644115 0.153136 0.092906 -0.197895
C6    C     C_R   0.644287 0.846827 0.093093 -0.192168
C7    C     C_R   0.144347 0.653177 0.092774 -0.170774
C8    C     C_R   0.144251 0.346823 0.093096 -0.191357
C9    C     C_R   0.542059 0.843930 0.912075 0.319166
C10   C     C_R   0.541879 0.156197 0.911930 0.317029
C11   C     C_R   0.041960 0.343909 0.912092 0.319917
C12   C     C_R   0.040738 0.656341 0.912158 0.311527
C13   C     C_R   0.530883 0.000465 0.703151 -0.231956
C14   C     C_R   0.030546 0.500526 0.702826 -0.232557
C15   C     C_R   0.822799 0.999874 0.267066 -0.021708
C16   C     C_R   0.322797 0.499842 0.267090 -0.019318
C17   C     C_R   0.606892 0.187574 0.002901 0.030187
C18   C     C_R   0.607125 0.812495 0.003169 0.027693
C19   C     C_R   0.104975 0.687991 0.002928 0.034300
C20   C     C_R   0.107048 0.312484 0.003182 0.027142
C21   C     C_3   0.024776 0.957196 0.504410 -0.181170
C22   C     C_3   0.027753 0.047492 0.495204 -0.185088
C23   C     C_3   0.524687 0.457151 0.504517 -0.180713
C24   C     C_3   0.527776 0.547438 0.495184 -0.187971
C25   C     C_3   0.954488 0.004088 0.470150 0.555046
C26   C     C_3   0.454456 0.504087 0.470181 0.554119
C27   C     C_3   0.923897 0.999892 0.351328 0.002219
C28   C     C_3   0.423879 0.499827 0.351372 0.002139
C29   C     C_3   0.994269 0.952602 0.384453 -0.245544
C30   C     C_3   0.997182 0.043542 0.375084 -0.211834
C31   C     C_3   0.494187 0.452490 0.384568 -0.244749
C32   C     C_3   0.497219 0.543422 0.375080 -0.211154
C33   C     C_3   0.068642 0.996331 0.411549 0.103982
C34   C     C_3   0.568614 0.496167 0.411610 0.103803
C35   C     C_R   0.400882 0.880204 0.093067 -0.088181
C36   C     C_R   0.401214 0.119383 0.093468 -0.090396
C37   C     C_R   0.900884 0.380853 0.093326 -0.081362
C38   C     C_R   0.901211 0.619344 0.093485 -0.090760
C39   C     C_3   0.098687 0.000549 0.529125 0.039900
C40   C     C_3   0.598648 0.500450 0.529170 0.040700
C41   C     C_3   0.272012 0.814524 0.121672 0.389559
C42   C     C_3   0.276732 0.187078 0.124122 0.394725
C43   C     C_3   0.776401 0.312922 0.123961 0.393825
C44   C     C_3   0.776798 0.687071 0.124184 0.394852
C45   C     C_3   0.707625 0.268685 0.112558 -0.609617
C46   C     C_3   0.707937 0.731229 0.112767 -0.607418
C47   C     C_3   0.201128 0.771422 0.108982 -0.636131
C48   C     C_3   0.207852 0.231218 0.112710 -0.606618
C49   C     C_3   0.773455 0.270130 0.965340 0.229076
C50   C     C_3   0.773878 0.730379 0.965640 0.224958
C51   C     C_3   0.275802 0.768830 0.970330 0.207242
C52   C     C_3   0.273929 0.230458 0.965715 0.225001
C53   C     C_3   0.135377 0.835374 0.915645 0.678158
C54   C     C_3   0.137037 0.164143 0.920671 0.676638
C55   C     C_3   0.636630 0.336378 0.920620 0.679461
C56   C     C_3   0.637042 0.664076 0.920804 0.676330
C57   C     C_3   0.247763 0.824118 0.001315 -0.222770
C58   C     C_3   0.249039 0.175821 0.002429 -0.237653
C59   C     C_3   0.748635 0.324586 0.002276 -0.237479
C60   C     C_3   0.749040 0.675764 0.002474 -0.237572
C61   C     C_3   0.655633 0.237557 0.999433 -0.054137
C62   C     C_3   0.656008 0.762666 0.999700 -0.056561
C63   C     C_3   0.153150 0.737836 0.998502 -0.067582
C64   C     C_3   0.155973 0.262691 0.999689 -0.056993
C65   C     C_3   0.734755 0.217677 0.986128 0.418262
C66   C     C_3   0.735160 0.782751 0.986483 0.418697
C67   C     C_3   0.233520 0.716829 0.987822 0.440792
C68   C     C_3   0.235164 0.282813 0.986553 0.418162
C69   C     C_3   0.583171 0.280170 0.903642 0.272097
C70   C     C_3   0.583606 0.720280 0.903794 0.269578
C71   C     C_3   0.081402 0.779409 0.899317 0.280225
C72   C     C_3   0.083593 0.220334 0.903716 0.270828
C73   C     C_3   0.618386 0.053623 0.640718 -0.272081
C74   C     C_3   0.626065 0.950317 0.648648 -0.182100
C75   C     C_3   0.117686 0.553862 0.640137 -0.273718
C76   C     C_3   0.126169 0.450568 0.648828 -0.182604
C77   C     C_R   0.573318 0.044734 0.311988 0.366420
C78   C     C_R   0.571507 0.954171 0.311029 0.340869
C79   C     C_R   0.073355 0.544750 0.311977 0.366136
C80   C     C_R   0.071557 0.454200 0.311074 0.339492
C81   C     C_3   0.632737 0.055306 0.546968 0.040344
C82   C     C_3   0.641624 0.946910 0.555920 -0.040843
C83   C     C_3   0.132340 0.555472 0.546644 0.040650
C84   C     C_3   0.141739 0.447092 0.556110 -0.040465
C85   C     C_3   0.467730 0.998280 0.509888 -0.418271
C86   C     C_3   0.967508 0.498144 0.509611 -0.417803
C87   C     C_3   0.561964 0.000719 0.628860 0.321699
C88   C     C_3   0.061669 0.500822 0.628598 0.321627
C89   C     C_3   0.592909 0.999537 0.476409 0.267833
C90   C     C_3   0.092823 0.499615 0.476336 0.267445
C91   C     C_3   0.484839 0.996850 0.421835 -0.542619
C92   C     C_3   0.984738 0.496765 0.421656 -0.541662
C93   C     C_R   0.240026 0.954593 0.694223 0.001758
C94   C     C_R   0.239827 0.045827 0.694717 0.008806
C95   C     C_R   0.740001 0.454558 0.694331 -0.000412
C96   C     C_R   0.739793 0.545774 0.694648 0.008682
C97   C     C_R   0.309362 0.131174 0.002885 0.151444
C98   C     C_R   0.308937 0.868512 0.002164 0.148167
C99   C     C_R   0.809345 0.631105 0.002925 0.152345
C100  C     C_R   0.808982 0.369296 0.002772 0.146424
C101  C     C_R   0.600960 0.999249 0.381302 -0.084314
C102  C     C_R   0.100991 0.499288 0.381320 -0.083751
C103  C     C_R   0.190434 0.000329 0.635700 0.106097
C104  C     C_R   0.690414 0.500257 0.635688 0.107075
C105  C     C_R   0.501994 0.046334 0.732680 0.397339
C106  C     C_R   0.503105 0.954169 0.733408 0.424544
C107  C     C_R   0.001739 0.546367 0.732476 0.399189
C108  C     C_R   0.002949 0.454200 0.733230 0.425025
C109  C     C_R   0.768352 0.953865 0.245076 -0.000562
C110  C     C_R   0.768262 0.045988 0.244327 0.012796
C111  C     C_R   0.268337 0.453848 0.245082 -0.002819
C112  C     C_R   0.268281 0.545969 0.244352 0.021701
H1    H     H_    0.247733 0.120075 0.826351 0.200915
H2    H     H_    0.248750 0.879248 0.825809 0.199999
H3    H     H_    0.747677 0.619950 0.826403 0.200822
H4    H     H_    0.747522 0.380676 0.826307 0.201601
H5    H     H_    0.036337 0.922379 0.558894 0.218454
H6    H     H_    0.041128 0.085907 0.541933 0.213679
H7    H     H_    0.536216 0.422378 0.559082 0.217590
H8    H     H_    0.541174 0.585877 0.541856 0.213410
H9    H     H_    0.979564 0.914425 0.336634 0.166278
H10   H     H_    0.984583 0.078074 0.319585 0.163002
H11   H     H_    0.479434 0.414290 0.336791 0.166511
H12   H     H_    0.484676 0.577924 0.319550 0.162669
H13   H     H_    0.146577 0.791780 0.112274 0.208296
H14   H     H_    0.155742 0.212750 0.122830 0.204045
H15   H     H_    0.655596 0.286990 0.122914 0.203109
H16   H     H_    0.655854 0.712782 0.122955 0.203541
H17   H     H_    0.748755 0.240560 0.184040 0.248696
H18   H     H_    0.748953 0.759177 0.184299 0.248104
H19   H     H_    0.237307 0.745895 0.184374 0.237386
H20   H     H_    0.248840 0.259145 0.184282 0.248165
H21   H     H_    0.851986 0.266954 0.016406 0.124157
H22   H     H_    0.852409 0.733474 0.016719 0.124355
H23   H     H_    0.354294 0.765648 0.025503 0.125317
H24   H     H_    0.352464 0.233550 0.016878 0.124595
H25   H     H_    0.431262 0.878283 0.179369 0.185208
H26   H     H_    0.432048 0.121081 0.179940 0.176931
H27   H     H_    0.931367 0.379137 0.179681 0.180652
H28   H     H_    0.932052 0.621036 0.179960 0.176942
H29   H     H_    0.576022 0.089592 0.627531 0.234792
H30   H     H_    0.587288 0.913273 0.639799 0.225149
H31   H     H_    0.074854 0.589690 0.626354 0.234285
H32   H     H_    0.087724 0.413425 0.640370 0.225133
H33   H     H_    0.422765 0.034483 0.494433 0.214827
H34   H     H_    0.425959 0.961414 0.499699 0.216379
H35   H     H_    0.922267 0.534239 0.493939 0.214550
H36   H     H_    0.925996 0.461174 0.499559 0.216333
H37   H     H_    0.445103 0.030614 0.361499 0.175356
H38   H     H_    0.451219 0.959809 0.369678 0.182447
H39   H     H_    0.944878 0.530466 0.361205 0.175477
H40   H     H_    0.951323 0.459671 0.369606 0.181717
H41   H     H_    0.791593 0.911635 0.260842 0.118975
H42   H     H_    0.791618 0.088172 0.259728 0.120536
H43   H     H_    0.291558 0.411613 0.260851 0.119378
H44   H     H_    0.291688 0.588142 0.259802 0.118974
H45   H     H_    0.687365 0.164288 0.179110 0.171589
H46   H     H_    0.687720 0.835564 0.179347 0.170456
H47   H     H_    0.188777 0.664293 0.179001 0.160980
H48   H     H_    0.187696 0.335564 0.179353 0.170719
N1    N     N_R   0.392450 0.103580 0.942190 -0.099865
N2    N     N_R   0.392450 0.896420 0.942190 -0.100333
N3    N     N_R   0.892450 0.603580 0.942190 -0.100828
N4    N     N_R   0.892450 0.396420 0.942190 -0.100362
N5    N     N_R   0.450490 0.896000 0.057360 -0.041817
N6    N     N_R   0.450490 0.104000 0.057360 -0.044042
N7    N     N_R   0.950490 0.396000 0.057360 -0.041892
N8    N     N_R   0.950490 0.604000 0.057360 -0.045419
N9    N     N_R   0.525490 0.028390 0.207550 -0.115231
N10   N     N_R   0.525490 0.971610 0.207550 -0.108801
N11   N     N_R   0.025490 0.528390 0.207550 -0.115316
N12   N     N_R   0.025490 0.471610 0.207550 -0.108981
N13   N     N_R   0.317450 0.971190 0.792000 -0.070435
N14   N     N_R   0.317450 0.028810 0.792000 -0.070885
N15   N     N_R   0.817450 0.471190 0.792000 -0.070206
N16   N     N_R   0.817450 0.528810 0.792000 -0.070838
N17   N     N_R   0.473900 0.028390 0.792280 -0.115953
N18   N     N_R   0.473900 0.971610 0.792280 -0.118783
N19   N     N_R   0.973900 0.528390 0.792280 -0.115809
N20   N     N_R   0.973900 0.471610 0.792280 -0.118634
N21   N     N_R   0.682310 0.971180 0.208170 -0.025667
N22   N     N_R   0.682310 0.028820 0.208170 -0.024422
N23   N     N_R   0.182310 0.471180 0.208170 -0.026107
N24   N     N_R   0.182310 0.528820 0.208170 -0.026165
N25   N     N_R   0.606470 0.103570 0.057210 -0.062551
N26   N     N_R   0.606470 0.896430 0.057210 -0.060590
N27   N     N_R   0.106470 0.603570 0.057210 -0.061862
N28   N     N_R   0.106470 0.396430 0.057210 -0.060525
N29   N     N_R   0.549740 0.896000 0.943240 -0.087969
N30   N     N_R   0.549740 0.104000 0.943240 -0.089604
N31   N     N_R   0.049740 0.396000 0.943240 -0.087726
N32   N     N_R   0.049740 0.604000 0.943240 -0.087060
Ni1   Ni    Ni4+2 0.433780 0.065390 0.868430 0.208716
Ni2   Ni    Ni4+2 0.433780 0.934610 0.868430 0.208905
Ni3   Ni    Ni4+2 0.933780 0.565390 0.868430 0.209603
Ni4   Ni    Ni4+2 0.933780 0.434610 0.868430 0.208971
Ni5   Ni    Ni4+2 0.565800 0.934190 0.131570 0.294515
Ni6   Ni    Ni4+2 0.565800 0.065810 0.131570 0.294801
Ni7   Ni    Ni4+2 0.065800 0.434190 0.131570 0.295409
Ni8   Ni    Ni4+2 0.065800 0.565810 0.131570 0.295059
N33   N     N_3   0.134946 0.992609 0.383694 -0.197826
H49   H     H_    0.094981 0.988360 0.297947 0.140000
H50   H     H_    0.173226 0.956224 0.418193 0.124286
N34   N     N_3   0.634930 0.492351 0.383787 -0.197673
H51   H     H_    0.594976 0.488046 0.298052 0.141860
H52   H     H_    0.673189 0.455968 0.418385 0.124670
Cl1   Cl    Cl    0.390754 0.788566 0.224764 -0.707336
Cl2   Cl    Cl    0.396389 0.213152 0.223048 -0.686164
Cl3   Cl    Cl    0.896118 0.286708 0.222726 -0.676451
Cl4   Cl    Cl    0.896467 0.713153 0.223014 -0.686686
N35   N     N_3   0.262450 0.864737 0.168569 -0.154687
H53   H     H_    0.278410 0.855862 0.246085 0.171444
H54   H     H_    0.309864 0.894971 0.181220 0.126509
N36   N     N_3   0.268263 0.138007 0.174956 -0.157612
H55   H     H_    0.312464 0.106430 0.184471 0.124356
H56   H     H_    0.288720 0.147702 0.254111 0.173036
N37   N     N_3   0.767882 0.361780 0.174907 -0.158482
H57   H     H_    0.788682 0.351882 0.254200 0.171542
H58   H     H_    0.811734 0.393494 0.184050 0.125556
N38   N     N_3   0.768369 0.638029 0.175115 -0.157455
H59   H     H_    0.812529 0.606433 0.184599 0.124638
H60   H     H_    0.788896 0.647751 0.254288 0.172840
N39   N     N_3   0.813208 0.190399 0.088040 -0.187173
H61   H     H_    0.867700 0.181536 0.080899 0.150019
H62   H     H_    0.791601 0.152226 0.097115 0.132409
N40   N     N_3   0.813593 0.809716 0.088542 -0.187696
H63   H     H_    0.791994 0.847814 0.097775 0.133383
H64   H     H_    0.868125 0.818691 0.081498 0.148327
N41   N     N_3   0.307642 0.684408 0.084832 -0.205231
H65   H     H_    0.371808 0.684019 0.094623 0.148390
H66   H     H_    0.318836 0.692237 0.159483 0.159780
N42   N     N_3   0.313565 0.309761 0.088663 -0.187696
H67   H     H_    0.291965 0.347862 0.097880 0.133644
H68   H     H_    0.368141 0.318735 0.081697 0.148973
Cl5   Cl    Cl    0.092790 0.864905 0.783442 -0.506306
Cl6   Cl    Cl    0.092353 0.133273 0.789064 -0.484811
Cl7   Cl    Cl    0.592025 0.367605 0.789091 -0.501325
Cl8   Cl    Cl    0.592322 0.633134 0.789243 -0.484634
Cl9   Cl    Cl    0.099128 0.890539 0.962985 -0.623565
Cl10  Cl    Cl    0.103462 0.109913 0.973076 -0.621362
Cl11  Cl    Cl    0.603085 0.390422 0.973091 -0.623883
Cl12  Cl    Cl    0.603511 0.609893 0.973344 -0.619168
N43   N     N_3   0.995758 0.788688 0.894078 -0.195749
H69   H     H_    0.950772 0.816300 0.830283 0.212558
H70   H     H_    0.009742 0.804238 0.966808 0.133171
N44   N     N_3   0.999692 0.211766 0.902231 -0.196321
H71   H     H_    0.954217 0.183409 0.840805 0.213513
H72   H     H_    0.016534 0.197417 0.977253 0.134066
N45   N     N_3   0.499426 0.288639 0.902478 -0.196593
H73   H     H_    0.453850 0.317126 0.841113 0.212406
H74   H     H_    0.516424 0.302798 0.977570 0.133261
N46   N     N_3   0.499734 0.711744 0.902373 -0.194530
H75   H     H_    0.454247 0.683366 0.841007 0.214765
H76   H     H_    0.516607 0.697438 0.977435 0.135877
Cl13  Cl    Cl    0.535748 0.252771 0.767605 -0.383165
Cl14  Cl    Cl    0.536466 0.748038 0.767856 -0.380158
Cl15  Cl    Cl    0.036217 0.750737 0.764807 -0.383715
Cl16  Cl    Cl    0.036498 0.248168 0.767846 -0.380721
Cl17  Cl    Cl    0.742229 0.271724 0.826771 -0.542947
Cl18  Cl    Cl    0.742674 0.729146 0.827123 -0.544405
Cl19  Cl    Cl    0.250823 0.769533 0.834735 -0.549701
Cl20  Cl    Cl    0.242886 0.229271 0.827272 -0.542502
Cl21  Cl    Cl    0.694087 0.166427 0.879396 -0.590994
Cl22  Cl    Cl    0.694670 0.834481 0.879981 -0.568671
Cl23  Cl    Cl    0.191996 0.666808 0.879393 -0.562549
Cl24  Cl    Cl    0.194724 0.334578 0.880101 -0.567695
N47   N     N_3   0.706712 0.060577 0.752138 -0.208729
H77   H     H_    0.733267 0.099902 0.758404 0.196470
H78   H     H_    0.692373 0.058448 0.810234 0.191425
N48   N     N_3   0.713542 0.947340 0.762613 -0.179247
H79   H     H_    0.767615 0.971261 0.773314 0.155867
H80   H     H_    0.739194 0.907163 0.777864 0.200989
N49   N     N_3   0.205793 0.561208 0.751615 -0.207782
H81   H     H_    0.231800 0.600670 0.757600 0.197504
H82   H     H_    0.191336 0.559007 0.809599 0.193289
N50   N     N_3   0.213671 0.447946 0.762822 -0.179130
H83   H     H_    0.267529 0.471976 0.773247 0.156239
H84   H     H_    0.239640 0.407829 0.778611 0.200888
N51   N     N_3   0.733087 0.062609 0.590756 -0.127388
H85   H     H_    0.778546 0.038314 0.660106 0.168273
H86   H     H_    0.754720 0.103033 0.616764 0.177551
N52   N     N_3   0.743268 0.944970 0.604039 -0.191591
H87   H     H_    0.752763 0.945658 0.541929 0.240007
H88   H     H_    0.773442 0.908257 0.647336 0.153883
N53   N     N_3   0.232747 0.562854 0.590731 -0.127285
H89   H     H_    0.278156 0.538656 0.660260 0.168171
H90   H     H_    0.254211 0.603314 0.616566 0.177787
N54   N     N_3   0.243387 0.445257 0.604226 -0.191446
H91   H     H_    0.252844 0.445761 0.542082 0.240095
H92   H     H_    0.273724 0.408649 0.647891 0.154905
N55   N     N_3   0.579075 0.103534 0.476493 -0.160882
H93   H     H_    0.610886 0.139780 0.520678 0.196673
H94   H     H_    0.509773 0.104933 0.452641 0.145342
N56   N     N_3   0.597727 0.895173 0.494757 -0.154365
H95   H     H_    0.636047 0.861613 0.545783 0.197585
H96   H     H_    0.528810 0.890043 0.470797 0.164398
N57   N     N_3   0.078641 0.603622 0.475895 -0.160966
H97   H     H_    0.110222 0.639915 0.520007 0.196496
H98   H     H_    0.009221 0.604942 0.451669 0.144775
N58   N     N_3   0.098030 0.395279 0.495184 -0.154512
H99   H     H_    0.136516 0.361786 0.546338 0.198152
H100  H     H_    0.029163 0.390068 0.471342 0.161954
Cl25  Cl    Cl    0.647061 0.102601 0.349258 -0.604990
Cl26  Cl    Cl    0.640391 0.894369 0.344458 -0.642430
Cl27  Cl    Cl    0.147155 0.602590 0.349210 -0.605915
Cl28  Cl    Cl    0.140424 0.394386 0.344594 -0.639954
N59   N     N_3   0.234844 0.905240 0.639351 -0.199507
H101  H     H_    0.283193 0.908789 0.620648 0.150478
H102  H     H_    0.254084 0.871372 0.690613 0.153178
N60   N     N_3   0.234506 0.095549 0.640343 -0.195961
H103  H     H_    0.281721 0.092052 0.619978 0.164495
H104  H     H_    0.254763 0.129067 0.692354 0.150569
N61   N     N_3   0.734549 0.404986 0.639873 -0.199306
H105  H     H_    0.782734 0.408280 0.620876 0.150423
H106  H     H_    0.753992 0.371332 0.691714 0.154145
N62   N     N_3   0.734290 0.595493 0.640157 -0.197037
H107  H     H_    0.781927 0.592216 0.620392 0.164683
H108  H     H_    0.753638 0.629119 0.691707 0.150880
Cl29  Cl    Cl    0.464107 0.110407 0.665941 -0.648693
Cl30  Cl    Cl    0.469232 0.889600 0.668872 -0.646404
Cl31  Cl    Cl    0.963560 0.610413 0.665706 -0.648610
Cl32  Cl    Cl    0.969261 0.389590 0.668854 -0.647091
N63   N     N_3   0.450803 0.822199 0.827249 -0.126255
H109  H     H_    0.420998 0.806958 0.865163 0.133367
H110  H     H_    0.406810 0.854297 0.777838 0.143289
N64   N     N_3   0.450536 0.178055 0.827249 -0.124446
H111  H     H_    0.406360 0.145948 0.778731 0.144753
H112  H     H_    0.421084 0.193593 0.865312 0.128870
N65   N     N_3   0.950628 0.322173 0.827408 -0.126827
H113  H     H_    0.920700 0.307080 0.865317 0.128480
H114  H     H_    0.906727 0.354238 0.777725 0.144029
N66   N     N_3   0.949304 0.677734 0.826581 -0.126589
H115  H     H_    0.905537 0.645335 0.778892 0.143943
H116  H     H_    0.919470 0.693671 0.863921 0.128873
Cl33  Cl    Cl    0.879958 0.009583 0.513832 -0.561434
Cl34  Cl    Cl    0.379916 0.509701 0.513831 -0.561506

loop_
_geom_bond_atom_site_label_1
_geom_bond_atom_site_label_2
_ccdc_geom_bond_type
C55   C59   S    
N33   H50   S    
C15   C109  A    
C77   C101  A    
N55   H93   S    
C86   H35   S    
C42   C58   S    
N25   N30   A    
C112  N24   A    
N19   Ni3   S    
C78   Cl26  S    
N52   H87   S    
N17   Ni1   S    
C46   C62   S    
N28   N31   A    
C10   N64   S    
C56   Cl8   S    
C67   Cl23  S    
C86   C88   S    
C7    H47   S    
C29   C33   S    
C62   C70   S    
N12   Ni7   S    
C72   N44   S    
C24   C32   S    
C95   N15   A    
N31   Ni4   S    
C21   H5    S    
C17   C61   S    
N29   Ni2   S    
C96   N16   A    
N39   H61   S    
C19   C63   S    
C79   C102  A    
C36   C97   A    
C51   C57   S    
C55   Cl11  S    
C105  Cl29  S    
N20   Ni4   S    
C69   N45   S    
C89   C101  S    
C93   N59   S    
C78   C101  A    
C76   C84   S    
C1    H1    S    
C9    N29   A    
C73   C81   S    
C44   C46   S    
C63   C67   S    
C28   C31   S    
C12   N32   A    
N60   H104  S    
C11   C20   A    
C24   H8    S    
N63   H109  S    
N32   Ni3   S    
C28   C32   S    
C77   Cl25  S    
C50   H22   S    
C70   Cl14  S    
C91   H37   S    
C21   C29   S    
C47   H19   S    
N62   H107  S    
C23   C31   S    
C41   Cl1   S    
N23   N24   A    
C79   Cl27  S    
N41   H65   S    
N2    N5    A    
N18   Ni2   S    
C90   C92   S    
N15   N16   A    
N42   H68   S    
C55   Cl7   S    
C75   H31   S    
C76   H32   S    
C14   C107  A    
C63   C71   S    
C7    C19   A    
C96   C104  A    
N48   H80   S    
C80   N12   A    
C53   C71   S    
N58   H99   S    
C56   Cl12  S    
C22   H6    S    
C49   H21   S    
C107  N19   A    
C81   N51   S    
C105  N17   A    
C13   C106  A    
C6    N26   A    
N27   Ni8   S    
C14   C88   S    
N53   H90   S    
C35   H25   S    
C2    H2    S    
C50   Cl18  S    
C93   N13   A    
N51   H86   S    
C43   Cl3   S    
C41   C57   S    
N57   H97   S    
C61   C65   S    
C67   N41   S    
N13   Ni2   S    
C111  H43   S    
C37   C100  A    
C23   C40   S    
C16   C111  A    
N46   H75   S    
C27   C29   S    
C44   N38   S    
C54   Cl6   S    
N21   Ni5   S    
C93   C103  A    
C74   N48   S    
N45   H73   S    
C82   C89   S    
C42   N36   S    
C64   C68   S    
C7    N27   A    
N55   H94   S    
C24   C26   S    
C12   N66   S    
C23   H7    S    
N36   H56   S    
N61   H106  S    
C78   N10   A    
C90   C102  S    
C25   Cl33  S    
C34   N34   S    
N24   Ni8   S    
C22   C25   S    
N26   Ni5   S    
C74   C87   S    
C89   C91   S    
C43   C59   S    
C75   N49   S    
C59   C100  S    
N57   H98   S    
C84   C90   S    
N38   H59   S    
C6    H46   S    
C15   C27   S    
C62   C66   S    
C30   H10   S    
C107  Cl31  S    
N66   H115  S    
C18   C62   S    
C51   C67   S    
N37   H57   S    
C80   C102  A    
N63   H110  S    
N54   H92   S    
N11   Ni8   S    
C13   C87   S    
C92   H39   S    
C111  N23   A    
C41   C47   S    
C31   C34   S    
N1    Ni1   S    
C42   C48   S    
C43   C45   S    
N27   N32   A    
N64   H111  S    
C8    C20   A    
C52   H24   S    
C82   N52   S    
C70   N46   S    
C109  N21   A    
C21   C25   S    
N44   H71   S    
C22   C30   S    
N34   H52   S    
C86   H36   S    
C46   H18   S    
N47   H77   S    
N39   H62   S    
C106  Cl30  S    
C71   Cl15  S    
C52   Cl20  S    
N52   H88   S    
C49   C59   S    
C50   C60   S    
C55   C69   S    
N3    N8    A    
C49   Cl17  S    
C22   C39   S    
N49   H82   S    
C11   N31   A    
N16   Ni3   S    
C84   N54   S    
C48   H14   S    
C3    C99   A    
C9    C18   A    
N50   H83   S    
N40   H63   S    
C112  H44   S    
N7    Ni7   S    
N64   H112  S    
C106  N18   A    
N10   Ni5   S    
C26   Cl34  S    
C68   N42   S    
C45   H17   S    
C5    N25   A    
C53   Cl9   S    
C37   N7    A    
C73   H29   S    
N21   N22   A    
C8    N28   A    
C38   N8    A    
C51   Cl19  S    
C47   C63   S    
N56   H95   S    
C48   C64   S    
C5    C17   A    
N43   H69   S    
C56   C70   S    
N62   H108  S    
N65   H113  S    
C23   C26   S    
C79   N11   A    
C73   C87   S    
N30   Ni1   S    
C29   H9    S    
N51   H85   S    
C42   Cl2   S    
C35   C98   A    
C109  H41   S    
C96   N62   S    
C68   Cl24  S    
C83   N53   S    
C3    N3    A    
C81   C89   S    
C14   C108  A    
C1    N1    A    
C15   C110  A    
C2    N2    A    
C65   Cl21  S    
C74   C82   S    
C66   Cl22  S    
N58   H100  S    
C47   H13   S    
N59   H101  S    
N9    N10   A    
C13   C105  A    
C53   C57   S    
C56   C60   S    
C80   Cl28  S    
N53   H89   S    
N5    Ni5   S    
N35   H53   S    
N3    Ni3   S    
C66   N40   S    
N4    Ni4   S    
N6    Ni6   S    
C10   N30   A    
C81   N55   S    
C83   N57   S    
C94   C103  A    
C5    H45   S    
C82   N56   S    
N37   H58   S    
C8    H48   S    
N15   Ni4   S    
C65   N39   S    
C16   C112  A    
N46   H76   S    
N60   H103  S    
N8    Ni8   S    
C4    H4    S    
N4    N7    A    
C85   H33   S    
C38   C99   A    
C91   H38   S    
C39   C103  S    
N26   N29   A    
C71   N43   S    
N41   H66   S    
C3    H3    S    
N47   H78   S    
C75   C83   S    
N61   H105  S    
C44   C60   S    
C57   C98   S    
C12   C19   A    
C45   C61   S    
N42   H67   S    
C44   Cl4   S    
C54   Cl10  S    
N19   N20   A    
C110  N22   A    
N14   Ni1   S    
N17   N18   A    
N48   H79   S    
C48   H20   S    
C36   H26   S    
C32   C34   S    
C16   C28   S    
N11   N12   A    
C9    N63   S    
C72   Cl16  S    
N33   H49   S    
C32   H12   S    
N22   Ni6   S    
C60   C99   S    
N38   H60   S    
C85   C91   S    
N13   N14   A    
C76   N50   S    
C33   C39   S    
C49   C65   S    
C34   C40   S    
C46   H16   S    
N66   H116  S    
C10   C17   A    
C108  N20   A    
C73   N47   S    
C24   C40   S    
C51   H23   S    
N43   H70   S    
C92   H40   S    
C4    N4    A    
N25   Ni6   S    
C53   Cl5   S    
N1    N6    A    
C52   C68   S    
C74   H30   S    
C27   C30   S    
C43   N37   S    
C58   C97   S    
C85   C87   S    
C6    C18   A    
N44   H72   S    
N45   H74   S    
C108  Cl32  S    
C85   H34   S    
C95   N61   S    
C1    C97   A    
N36   H55   S    
N28   Ni7   S    
N23   Ni7   S    
N59   H102  S    
C20   C64   S    
C110  H42   S    
C40   C104  S    
C21   C39   S    
N2    Ni2   S    
C36   N6    A    
N49   H81   S    
N65   H114  S    
N34   H51   S    
C50   C66   S    
C52   C58   S    
C94   N14   A    
N35   H54   S    
N50   H84   S    
N40   H64   S    
C4    C100  A    
C37   H27   S    
C95   C104  A    
C69   Cl13  S    
C54   C58   S    
C61   C69   S    
C83   C90   S    
C76   C88   S    
C94   N60   S    
C30   C33   S    
C25   C27   S    
C26   C28   S    
N54   H91   S    
C31   H11   S    
C86   C92   S    
N56   H96   S    
C45   H15   S    
C33   N33   S    
C35   N5    A    
C64   C72   S    
C41   N35   S    
C75   C88   S    
C54   C72   S    
C2    C98   A    
C77   N9    A    
C11   N65   S    
C38   H28   S    
N9    Ni6   S    
C84   N58   S    
