data_mof_unit_14099.cif
_audit_creation_date              2012-12-11T17:08:35-0500
_audit_creation_method            fapswitch 2.2
_symmetry_space_group_name_H-M    P1
_symmetry_Int_Tables_number       1
_space_group_crystal_system       triclinic
_cell_length_a                    6.971128
_cell_length_b                    14.423499
_cell_length_c                    16.205469
_cell_angle_alpha                 90.054562
_cell_angle_beta                  89.906514
_cell_angle_gamma                 90.047003
_cell_volume                      1629.42497866

loop_
_atom_site_label
_atom_site_type_symbol
_atom_type_description
_atom_site_fract_x
_atom_site_fract_y
_atom_site_fract_z
_atom_type_partial_charge
O1    O     O_R   0.505700 0.583890 0.413310 -0.557933
O2    O     O_R   0.175960 0.594920 0.586080 -0.559092
O3    O     O_R   0.005660 0.416110 0.586690 -0.546734
C1    C     C_R   0.344891 0.617001 0.614661 0.699445
O4    O     O_R   0.175980 0.594920 0.413930 -0.518307
O5    O     O_R   0.005680 0.416110 0.413310 -0.538738
C2    C     C_R   0.345882 0.620677 0.388526 0.704643
O6    O     O_R   0.505680 0.583890 0.586690 -0.537139
O7    O     O_3   0.339200 0.441330 0.500000 -0.366804
V1    V     V_3+5 0.064350 0.510880 0.500000 1.380175
O8    O     O_R   0.675960 0.405080 0.413920 -0.535329
C3    C     C_R   0.844921 0.382753 0.385591 0.721545
O9    O     O_R   0.675940 0.405080 0.586070 -0.536421
C4    C     C_R   0.844486 0.383266 0.614825 0.722523
V2    V     V_3+5 0.564340 0.489120 0.500000 1.389061
O10   O     O_3   0.839360 0.558670 0.500000 -0.392059
C5    C     C_R   0.981765 0.325656 0.748958 -0.047062
C6    C     C_R   0.851594 0.316045 0.683886 -0.167971
C7    C     C_R   0.722251 0.241040 0.687757 -0.147113
H1    H     H_    0.617176 0.232027 0.639199 0.134794
C8    C     C_R   0.738498 0.171658 0.749023 0.412053
C9    C     C_R   0.877015 0.180982 0.813477 -0.218179
C10   C     C_R   0.991094 0.260919 0.812746 -0.144861
C11   C     C_3   0.204966 0.271957 0.818762 0.725773
C12   C     C_3   0.193860 0.342637 0.748345 0.104431
H2    H     H_    0.266944 0.321180 0.690182 0.083995
C13   C     C_R   0.711059 0.225958 0.206925 0.066718
C14   C     C_R   0.881463 0.177774 0.189511 -0.172194
C15   C     C_R   0.037337 0.190636 0.245788 0.331502
C16   C     C_R   0.023977 0.258019 0.308762 -0.179133
H3    H     H_    0.146724 0.269013 0.348535 0.155773
C17   C     C_R   0.855678 0.310335 0.320913 -0.164920
C18   C     C_R   0.697375 0.289004 0.271673 0.071060
C19   C     C_3   0.572801 0.353070 0.223505 -0.480172
C20   C     C_3   0.588682 0.284584 0.151911 0.295086
H4    H     H_    0.642914 0.421265 0.212508 0.166049
H5    H     H_    0.425440 0.357197 0.249532 0.156762
H6    H     H_    0.452664 0.248775 0.134877 0.106184
C21   C     C_R   0.513792 0.744021 0.692650 -0.018389
C22   C     C_R   0.354298 0.686222 0.682235 -0.107436
C23   C     C_R   0.205792 0.693523 0.740348 -0.221264
H7    H     H_    0.085432 0.647114 0.736034 0.154635
C24   C     C_R   0.220165 0.753731 0.808828 0.513082
C25   C     C_R   0.377596 0.814955 0.816489 -0.222233
C26   C     C_R   0.522065 0.809671 0.756562 -0.087765
C27   C     C_3   0.728078 0.788560 0.772247 0.257634
C28   C     C_3   0.718026 0.715652 0.704736 0.122581
H8    H     H_    0.750303 0.760812 0.835357 0.183158
H9    H     H_    0.812634 0.728708 0.650475 0.078982
C29   C     C_R   0.517909 0.698469 0.273342 -0.206567
C30   C     C_R   0.360387 0.695738 0.325775 -0.262638
C31   C     C_R   0.230850 0.770477 0.320628 0.468299
C32   C     C_R   0.232511 0.829625 0.251230 0.396299
C33   C     C_R   0.374117 0.818724 0.187430 -0.243866
C34   C     C_R   0.517827 0.751294 0.200019 -0.164989
C35   C     C_3   0.727155 0.773652 0.210815 0.342229
C36   C     C_3   0.716063 0.732712 0.296725 0.684813
H10   H     H_    0.751576 0.849711 0.211697 0.097778
O11   O     O_R   0.229000 0.916070 0.913330 -0.508293
O12   O     O_R   0.558770 0.905070 0.086080 -0.548091
O13   O     O_R   0.729000 0.083900 0.086690 -0.539633
C37   C     C_R   0.389159 0.884783 0.116489 0.696759
O14   O     O_R   0.558720 0.905070 0.913930 -0.545319
O15   O     O_R   0.728960 0.083900 0.913310 -0.525288
C38   C     C_R   0.389800 0.882444 0.885679 0.742742
O16   O     O_R   0.229050 0.916070 0.086710 -0.555123
O17   O     O_3   0.395460 0.058650 0.000020 -0.356699
V3    V     V_3+5 0.670340 0.989120 0.000000 1.515675
O18   O     O_R   0.058670 0.094960 0.913900 -0.512793
C39   C     C_R   0.890043 0.114626 0.883478 0.756197
O19   O     O_R   0.058720 0.094960 0.086050 -0.547894
C40   C     C_R   0.890588 0.115010 0.116416 0.708342
V4    V     V_3+5 0.170330 0.010930 0.999970 1.547652
O20   O     O_3   0.895340 0.941350 0.999980 -0.370732
O21   O     O_3   0.696507 0.318832 0.084498 -0.550628
C41   C     C_3   0.584864 0.381769 0.038275 0.086861
H11   H     H_    0.584198 0.450738 0.068973 0.103627
H12   H     H_    0.434011 0.357857 0.030623 0.149630
C42   C     C_3   0.673211 0.392615 0.952935 -0.608576
H13   H     H_    0.667513 0.325481 0.919450 0.249790
H14   H     H_    0.592631 0.445401 0.917172 0.207002
H15   H     H_    0.825050 0.414874 0.958340 0.195729
O22   O     O_3   0.083886 0.749131 0.870516 -0.550131
C43   C     C_3   0.139153 0.682723 0.930077 0.059750
H16   H     H_    0.103795 0.711589 0.991720 0.164556
H17   H     H_    0.296165 0.667029 0.930929 0.087904
C44   C     C_3   0.025851 0.593260 0.918172 -0.703529
H18   H     H_    0.067749 0.542126 0.965853 0.175327
H19   H     H_    0.869621 0.607216 0.922934 0.223117
H20   H     H_    0.056552 0.562438 0.857046 0.255104
O23   O     O_3   0.850041 0.863573 0.753559 -0.641241
H21   H     H_    0.815349 0.888276 0.698385 0.281374
O24   O     O_3   0.730936 0.625882 0.737844 -0.644858
H22   H     H_    0.779682 0.585317 0.693053 0.301417
O25   O     O_3   0.112491 0.793919 0.385486 -0.603036
H23   H     H_    0.160764 0.765016 0.436806 0.260982
O26   O     O_3   0.625557 0.093700 0.739604 -0.633565
H24   H     H_    0.683631 0.041431 0.770032 0.299174
O27   O     O_3   0.111294 0.904891 0.254981 -0.631022
H25   H     H_    0.048886 0.912291 0.201005 0.285790
O28   O     O_3   0.860726 0.729762 0.156202 -0.556319
C45   C     C_3   0.816255 0.637449 0.132036 0.145760
H26   H     H_    0.767131 0.638389 0.066948 0.118182
H27   H     H_    0.703490 0.602676 0.169010 0.106234
C46   C     C_3   0.995941 0.577636 0.138456 -0.729936
H28   H     H_    0.117755 0.610487 0.105515 0.212617
H29   H     H_    0.037576 0.568344 0.203953 0.240691
H30   H     H_    0.967762 0.508178 0.111398 0.186053
O29   O     O_3   0.719046 0.807600 0.354177 -0.550055
C47   C     C_3   0.700628 0.779761 0.437284 0.201830
H31   H     H_    0.805468 0.725169 0.453863 0.169315
H32   H     H_    0.553516 0.755882 0.450836 0.066737
C48   C     C_3   0.735127 0.863786 0.492174 -0.684234
H33   H     H_    0.708959 0.845333 0.557527 0.142597
H34   H     H_    0.884890 0.888829 0.485496 0.251085
H35   H     H_    0.635316 0.920556 0.475002 0.232237
O30   O     O_3   0.856751 0.664700 0.311094 -0.633435
H36   H     H_    0.791715 0.606526 0.327467 0.275071
O31   O     O_3   0.307120 0.191075 0.798529 -0.606815
H37   H     H_    0.256944 0.166607 0.745440 0.267976
O32   O     O_3   0.265817 0.308504 0.894873 -0.619287
H38   H     H_    0.173175 0.356816 0.912838 0.283790
O33   O     O_3   0.239336 0.432851 0.773748 -0.640127
H39   H     H_    0.218611 0.472854 0.724896 0.294123
O34   O     O_3   0.205817 0.140970 0.241387 -0.646425
H40   H     H_    0.176161 0.078278 0.220450 0.312533

loop_
_geom_bond_atom_site_label_1
_geom_bond_atom_site_label_2
_ccdc_geom_bond_type
C44   H18   S    
O14   C38   A    
O24   H22   S    
C15   O34   S    
C19   H5    S    
C24   O22   S    
C23   H7    S    
C4    C6    S    
C7    H1    S    
C43   C44   S    
C1    O6    A    
O26   H24   S    
O33   H39   S    
C28   H9    S    
C32   C33   A    
C32   O27   S    
C46   H29   S    
C20   O21   S    
O28   C45   S    
C31   O25   S    
O15   V3    S    
C21   C28   S    
C14   C15   A    
C7    C8    A    
C43   H17   S    
C35   O28   S    
C6    C7    A    
O5    C3    A    
C16   H3    S    
V3    O20   S    
V2    O10   S    
C35   C36   S    
C45   C46   S    
O12   C37   A    
C19   C20   S    
V4    O20   S    
C47   H31   S    
C45   H26   S    
O14   V3    S    
O8    V2    S    
C36   O29   S    
C1    C22   S    
C10   C11   S    
C41   C42   S    
O18   V4    S    
O17   V4    S    
O15   C39   A    
O7    V1    S    
O11   V4    S    
C21   C26   A    
C48   H35   S    
C8    C9    A    
C3    C17   S    
C23   C24   A    
C25   C38   S    
C14   C40   S    
C18   C19   S    
O4    C2    A    
C41   H11   S    
C46   H30   S    
C27   H8    S    
C37   O16   A    
C30   C31   A    
C20   H6    S    
C11   C12   S    
O29   C47   S    
C21   C22   A    
C42   H14   S    
C27   O23   S    
C33   C37   S    
C13   C20   S    
C12   H2    S    
C26   C27   S    
O16   V4    S    
C13   C18   A    
O17   V3    S    
O2    C1    A    
O21   C41   S    
C15   C16   A    
C8    O26   S    
O22   C43   S    
O31   H37   S    
C34   C35   S    
C5    C6    A    
C28   O24   S    
C29   C30   A    
C5    C10   A    
C43   H16   S    
C45   H27   S    
C12   O33   S    
C47   C48   S    
O32   H38   S    
O3    C4    A    
O1    V2    S    
O13   C40   A    
C22   C23   A    
O6    V2    S    
C44   H19   S    
C24   C25   A    
O34   H40   S    
O2    V1    S    
O23   H21   S    
C31   C32   A    
C36   O30   S    
C48   H33   S    
C33   C34   A    
C27   C28   S    
C11   O31   S    
O1    C2    A    
C29   C36   S    
C25   C26   A    
C41   H12   S    
O5    V1    S    
C42   H15   S    
O8    C3    A    
C46   H28   S    
C29   C34   A    
O27   H25   S    
C5    C12   S    
C17   C18   A    
O9    V2    S    
O7    V2    S    
C2    C30   S    
O19   C40   A    
O3    V1    S    
V1    O10   S    
O30   H36   S    
O11   C38   A    
C16   C17   A    
O13   V3    S    
C11   O32   S    
C35   H10   S    
C19   H4    S    
O18   C39   A    
C47   H32   S    
C42   H13   S    
O4    V1    S    
O12   V3    S    
C44   H20   S    
O19   V4    S    
C13   C14   A    
C9    C10   A    
O9    C4    A    
C9    C39   S    
O25   H23   S    
C48   H34   S    
