data_mof_unit_35462.cif
_audit_creation_date              2013-03-05T16:49:12-0500
_audit_creation_method            fapswitch 2.2
_symmetry_space_group_name_H-M    P1
_symmetry_Int_Tables_number       1
_space_group_crystal_system       triclinic
_cell_length_a                    17.526161
_cell_length_b                    8.911416
_cell_length_c                    8.286796
_cell_angle_alpha                 90.000023
_cell_angle_beta                  90.522715
_cell_angle_gamma                 89.999827
_cell_volume                      1294.20206605

loop_
_atom_site_label
_atom_site_type_symbol
_atom_site_description
_atom_site_fract_x
_atom_site_fract_y
_atom_site_fract_z
_atom_type_partial_charge
O1    O     O_R   0.500000 0.285350 0.636850 -0.606441
O2    O     O_R   0.500000 0.714650 0.363150 -0.601193
O3    O     O_R   0.500000 0.714650 0.636850 -0.601193
O4    O     O_R   0.500000 0.285350 0.363150 -0.606442
C1    C     C_R   0.500000 0.218773 0.500000 0.913587
C2    C     C_R   0.500000 0.781227 0.500000 0.901927
O5    O     O_R   0.389120 0.500000 0.636930 -0.567941
O6    O     O_R   0.610880 0.500000 0.363070 -0.567943
O7    O     O_R   0.610880 0.500000 0.636930 -0.566781
O8    O     O_R   0.389120 0.500000 0.363070 -0.566780
C3    C     C_1   0.500000 0.065398 0.500000 -0.109794
C4    C     C_1   0.500000 0.934584 0.500000 -0.102156
C5    C     C_R   0.352695 0.505812 0.499372 0.931352
C6    C     C_R   0.647304 0.505812 0.500628 0.931354
Zn1   Zn    Zn3+2 0.500000 0.500000 0.682780 1.139722
Zn2   Zn    Zn3+2 0.500000 0.500000 0.317220 1.139721
C7    C     C_R   0.844039 0.634211 0.640309 0.197894
C8    C     C_R   0.155964 0.634221 0.359689 0.197890
C9    C     C_R   0.151016 0.578416 0.645131 0.192686
C10   C     C_R   0.848985 0.578403 0.354869 0.192688
C11   C     C_R   0.767783 0.588935 0.643051 0.193485
C12   C     C_R   0.232217 0.588942 0.356947 0.193485
C13   C     C_R   0.227265 0.533278 0.642982 0.197882
C14   C     C_R   0.772734 0.533272 0.357017 0.197886
C15   C     C_R   0.730773 0.537377 0.501442 -0.342071
C16   C     C_R   0.269228 0.537382 0.498557 -0.342071
C17   C     C_R   0.884896 0.625805 0.496905 -0.206744
C18   C     C_R   0.115104 0.625815 0.503093 -0.206740
C19   C     C_1   0.965889 0.644947 0.498997 0.199255
C20   C     C_1   0.034111 0.644950 0.500998 0.199258
N1    N     N_1   0.500000 0.500000 0.073640 0.053028
N2    N     N_1   0.500000 0.500000 0.926360 0.053027
N3    N     N_R   0.880398 0.684492 0.785381 0.253700
O9    O     O_R   0.854341 0.801020 0.861678 -0.243909
O10   O     O_R   0.938946 0.612017 0.842441 -0.229018
N4    N     N_R   0.119604 0.684509 0.214618 0.253700
O11   O     O_R   0.145668 0.801029 0.138316 -0.243913
O12   O     O_R   0.061055 0.612042 0.157558 -0.229020
N5    N     N_R   0.111090 0.583421 0.794319 0.256418
O13   O     O_R   0.107478 0.464957 0.885667 -0.237459
O14   O     O_R   0.082661 0.710133 0.843105 -0.227510
N6    N     N_R   0.888911 0.583406 0.205681 0.256415
O15   O     O_R   0.892525 0.464936 0.114339 -0.237462
O16   O     O_R   0.917333 0.710120 0.156887 -0.227505
N7    N     N_R   0.729620 0.588201 0.793227 0.269909
O17   O     O_R   0.716974 0.459477 0.861741 -0.266200
O18   O     O_R   0.690643 0.705896 0.835456 -0.298301
N8    N     N_R   0.270382 0.588204 0.206771 0.269915
O19   O     O_R   0.283024 0.459479 0.138259 -0.266201
O20   O     O_R   0.309360 0.705895 0.164544 -0.298302
N9    N     N_R   0.263549 0.498041 0.791995 0.270843
O21   O     O_R   0.301194 0.604097 0.865021 -0.277650
O22   O     O_R   0.276627 0.358322 0.828537 -0.286739
N10   N     N_R   0.736450 0.498036 0.208004 0.270843
O23   O     O_R   0.698806 0.604092 0.134979 -0.277651
O24   O     O_R   0.723373 0.358318 0.171460 -0.286738

loop_
_geom_bond_atom_site_label_1
_geom_bond_atom_site_label_2
_geom_bond_distance
_ccdc_geom_bond_type
O4    Zn2   1.950335 S    
C9    C13   1.395849 A    
O7    C6    1.303519 A    
N6    O16   1.300161 A    
C19   C20   1.195640 T    
O1    Zn1   1.950335 S    
C10   C17   1.395149 A    
C17   C19   1.429647 S    
O2    Zn2   1.950334 S    
C10   N6    1.426829 S    
N1    N2    1.220478 T    
C3    C4    1.165736 T    
O3    C2    1.279870 A    
C18   C20   1.429645 S    
N3    O9    1.300733 A    
O7    Zn1   1.983495 S    
O3    Zn1   1.950334 S    
Zn1   N2    2.018498 S    
N5    O14   1.300159 A    
O8    Zn2   1.983496 S    
N7    O17   1.299860 A    
Zn2   N1    2.018498 S    
C9    C18   1.395152 A    
O2    C2    1.279870 A    
C7    N3    1.427626 S    
O1    C1    1.279870 A    
C9    N5    1.426828 S    
N8    O20   1.301334 A    
N4    O11   1.300739 A    
N3    O10   1.297988 A    
C12   N8    1.418226 S    
C1    C3    1.366784 S    
C11   N7    1.418213 S    
N7    O18   1.301345 A    
C6    C15   1.489634 S    
C2    C4    1.366630 S    
N10   O24   1.301234 A    
C5    C16   1.489621 S    
N6    O15   1.300919 A    
C14   N10   1.418982 S    
N4    O12   1.297981 A    
C7    C17   1.395024 A    
C10   C14   1.395850 A    
O5    C5    1.302441 A    
C8    C18   1.395048 A    
C14   C15   1.410892 A    
O6    Zn2   1.976691 S    
C12   C16   1.412464 A    
C13   C16   1.410906 A    
N5    O13   1.300911 A    
C11   C15   1.412461 A    
N10   O23   1.299011 A    
N8    O19   1.299853 A    
O6    C6    1.302433 A    
O5    Zn1   1.976693 S    
C8    C12   1.396395 A    
C8    N4    1.427642 S    
C7    C11   1.396431 A    
C13   N9    1.418982 S    
N9    O21   1.299020 A    
O4    C1    1.279870 A    
N9    O22   1.301236 A    
O8    C5    1.303521 A    
