data_mof_unit_45132.cif
_audit_creation_date              2013-03-05T16:48:54-0500
_audit_creation_method            fapswitch 2.2
_symmetry_space_group_name_H-M    P1
_symmetry_Int_Tables_number       1
_space_group_crystal_system       triclinic
_cell_length_a                    10.884535
_cell_length_b                    10.808615
_cell_length_c                    12.702328
_cell_angle_alpha                 93.311361
_cell_angle_beta                  91.848216
_cell_angle_gamma                 90.24261
_cell_volume                      1491.08856796

loop_
_atom_site_label
_atom_site_type_symbol
_atom_site_description
_atom_site_fract_x
_atom_site_fract_y
_atom_site_fract_z
_atom_type_partial_charge
O1    O     O_R   0.313000 0.493330 0.412070 -0.589479
O2    O     O_R   0.687000 0.506670 0.587930 -0.589475
O3    O     O_R   0.326280 0.506660 0.587930 -0.566822
O4    O     O_R   0.673720 0.493340 0.412070 -0.566826
C1    C     C_R   0.261809 0.498612 0.501692 0.809994
C2    C     C_R   0.738190 0.501375 0.498308 0.810046
O5    O     O_R   0.493370 0.312980 0.412070 -0.573098
O6    O     O_R   0.506630 0.687020 0.587930 -0.573087
O7    O     O_R   0.506650 0.326310 0.587930 -0.567064
O8    O     O_R   0.493350 0.673690 0.412070 -0.567040
C3    C     C_R   0.502361 0.261923 0.500248 0.813005
C4    C     C_R   0.497641 0.738077 0.499752 0.813015
Cu1   Cu    Cu3+1 0.492140 0.492110 0.395880 1.017979
Cu2   Cu    Cu3+1 0.507860 0.507890 0.604120 1.017988
C5    C     C_R   0.842915 0.237237 0.706060 -0.081399
C6    C     C_R   0.157062 0.762739 0.294010 -0.081387
C7    C     C_R   0.763491 0.174570 0.632752 -0.165762
C8    C     C_R   0.236501 0.825418 0.367298 -0.165779
H1    H     H_    0.792885 0.156272 0.552711 0.190434
H2    H     H_    0.207131 0.843715 0.447347 0.190328
C9    C     C_R   0.647073 0.135031 0.662149 -0.018216
C10   C     C_R   0.352904 0.864967 0.337871 -0.018213
C11   C     C_R   0.609712 0.159826 0.767383 0.391649
C12   C     C_R   0.390235 0.840168 0.232629 0.391583
C13   C     C_R   0.691513 0.223265 0.840080 -0.186385
C14   C     C_R   0.308420 0.776715 0.159954 -0.186343
C15   C     C_R   0.806970 0.261883 0.809423 -0.169961
C16   C     C_R   0.192978 0.738086 0.190640 -0.169923
C17   C     C_R   0.562751 0.939275 0.579554 -0.149788
C18   C     C_R   0.437251 0.060725 0.420447 -0.149793
C19   C     C_R   0.496188 0.871716 0.499345 -0.066191
C20   C     C_R   0.503815 0.128284 0.500656 -0.066152
C21   C     C_R   0.432289 0.932471 0.419175 0.069002
C22   C     C_R   0.567709 0.067529 0.580828 0.069000
C23   C     C_R   0.203145 0.398616 0.851741 -0.094175
C24   C     C_R   0.796924 0.601126 0.148163 -0.094178
C25   C     C_R   0.164703 0.402142 0.746108 -0.161195
C26   C     C_R   0.835380 0.597698 0.253799 -0.161269
C27   C     C_R   0.122895 0.513286 0.705667 -0.010227
C28   C     C_R   0.877097 0.486574 0.294337 -0.010186
C29   C     C_R   0.122348 0.623196 0.772432 0.371536
C30   C     C_R   0.877533 0.376582 0.227668 0.371584
C31   C     C_R   0.160491 0.617309 0.878876 -0.191758
C32   C     C_R   0.839375 0.382369 0.121217 -0.191766
C33   C     C_R   0.199346 0.505633 0.918303 -0.208841
C34   C     C_R   0.800615 0.494025 0.081693 -0.208834
C35   C     C_R   0.936638 0.511392 0.593254 -0.201364
C36   C     C_R   0.063361 0.488562 0.406746 -0.201491
C37   C     C_R   0.871722 0.502653 0.496042 -0.060625
C38   C     C_R   0.128277 0.497310 0.503958 -0.060696
C39   C     C_R   0.936162 0.491887 0.401264 0.057257
C40   C     C_R   0.063836 0.508054 0.598737 0.057265
N1    N     N_1   0.480320 0.480250 0.239400 -0.153192
N2    N     N_1   0.519680 0.519750 0.760600 -0.153185
C41   C     C_2   0.482098 0.454957 0.031139 -0.288688
C42   C     C_2   0.517903 0.545044 0.968861 -0.288595
C43   C     C_1   0.519209 0.528912 0.852855 0.253552
C44   C     C_1   0.480791 0.471088 0.147145 0.253549
H3    H     H_    0.868720 0.311196 0.865866 0.149813
H4    H     H_    0.131219 0.688759 0.134214 0.149795
N3    N     N_R   0.082783 0.739975 0.734144 0.122028
O9    O     O_R   0.095694 0.764266 0.635952 -0.374606
O10   O     O_R   0.044169 0.827382 0.799537 -0.332862
N4    N     N_R   0.916996 0.259817 0.266056 0.122049
O11   O     O_R   0.904149 0.235692 0.364294 -0.374782
O12   O     O_R   0.955439 0.172265 0.200722 -0.332785
H5    H     H_    0.160260 0.699551 0.931665 0.179018
H6    H     H_    0.839523 0.300065 0.068498 0.179098
H7    H     H_    0.888327 0.519252 0.666692 0.163414
H8    H     H_    0.111670 0.480693 0.333307 0.163416
H9    H     H_    0.546914 0.634231 0.005165 0.201108
H10   H     H_    0.453087 0.365770 0.994835 0.201073
H11   H     H_    0.932564 0.266563 0.682576 0.150425
H12   H     H_    0.067426 0.733406 0.317517 0.150398
N5    N     N_R   0.490273 0.123682 0.801323 0.109329
O13   O     O_R   0.396447 0.113806 0.735217 -0.355252
O14   O     O_R   0.472128 0.111197 0.900943 -0.339674
N6    N     N_R   0.509658 0.876319 0.198660 0.109351
O15   O     O_R   0.603504 0.886202 0.264745 -0.355121
O16   O     O_R   0.527771 0.888802 0.099035 -0.339622
H13   H     H_    0.665243 0.244579 0.920554 0.170668
H14   H     H_    0.334667 0.755395 0.079474 0.170698
H15   H     H_    0.613719 0.891925 0.639875 0.165201
H16   H     H_    0.386281 0.108074 0.360127 0.165172
H17   H     H_    0.226865 0.502315 0.000695 0.160755
H18   H     H_    0.773081 0.497263 0.999298 0.160737
H19   H     H_    0.234034 0.312312 0.882454 0.191614
H20   H     H_    0.766105 0.687413 0.117375 0.191496
H21   H     H_    0.164469 0.317385 0.696209 0.168877
H22   H     H_    0.835689 0.682513 0.303626 0.168854

loop_
_geom_bond_atom_site_label_1
_geom_bond_atom_site_label_2
_geom_bond_distance
_ccdc_geom_bond_type
C6    C16   1.393368 A    
C18   C20   1.399338 A    
C41   C42   1.353316 D    
C29   N3    1.441252 S    
O7    Cu2   1.961467 S    
C35   C37   1.400936 A    
C24   H20   1.082419 S    
O5    C3    1.278072 A    
C6    H12   1.081062 S    
C23   C25   1.395253 A    
C12   C14   1.408639 A    
C17   H15   1.084928 S    
N6    O16   1.301563 A    
C42   C43   1.474326 S    
O4    Cu1   1.980384 S    
N3    O10   1.301685 A    
C35   H7    1.084795 S    
C23   H19   1.082420 S    
C36   C39   1.384723 A    
C37   C39   1.412044 A    
C38   C40   1.412050 A    
C19   C21   1.409748 A    
C24   C34   1.394352 A    
C8    H2    1.083270 S    
C41   H10   1.085504 S    
C36   C38   1.400946 A    
C27   C40   1.481819 S    
C14   H14   1.082569 S    
Cu1   Cu2   2.640745 S    
C13   H13   1.082566 S    
C29   C31   1.406601 A    
O2    C2    1.281933 A    
C30   C32   1.406613 A    
C17   C19   1.399333 A    
C32   C34   1.395401 A    
Cu1   N1    1.984366 S    
C16   H4    1.082406 S    
O4    C2    1.280170 A    
C36   H8    1.084794 S    
N6    O15   1.301101 A    
C9    C22   1.481758 S    
C17   C22   1.386208 A    
C7    C9    1.404333 A    
N4    O12   1.301672 A    
C33   H17   1.081911 S    
N5    O13   1.301101 A    
C31   H5    1.082158 S    
N5    O14   1.301564 A    
C5    C15   1.393370 A    
O6    C4    1.278068 A    
C42   H9    1.085504 S    
C31   C33   1.395405 A    
O3    Cu2   1.980386 S    
O8    C4    1.278201 A    
C12   N6    1.442178 S    
Cu2   N2    1.984366 S    
C3    C20   1.444916 S    
O7    C3    1.278200 A    
C4    C19   1.444915 S    
O1    C1    1.281933 A    
C1    C38   1.454671 S    
C32   H6    1.082158 S    
O1    Cu1   1.967277 S    
C23   C33   1.394355 A    
C30   N4    1.441274 S    
C5    C7    1.394091 A    
C10   C21   1.481756 S    
O6    Cu2   1.958871 S    
C18   C21   1.386209 A    
C5    H11   1.081068 S    
C8    C10   1.404333 A    
C11   N5    1.442180 S    
C28   C30   1.419356 A    
O3    C1    1.280173 A    
O8    Cu1   1.961467 S    
N1    C44   1.170494 T    
C35   C40   1.384726 A    
C13   C15   1.396802 A    
C28   C39   1.481807 S    
C26   H22   1.083412 S    
C14   C16   1.396803 A    
C25   H21   1.083416 S    
N4    O11   1.301228 A    
C9    C11   1.420772 A    
C25   C27   1.405334 A    
C15   H3    1.082407 S    
C26   C28   1.405330 A    
C24   C26   1.395252 A    
C7    H1    1.083261 S    
C10   C12   1.420773 A    
C11   C13   1.408639 A    
C2    C37   1.454665 S    
C18   H16   1.084928 S    
N3    O9    1.301229 A    
O2    Cu2   1.967275 S    
O5    Cu1   1.958871 S    
C27   C29   1.419342 A    
C6    C8    1.394087 A    
C41   C44   1.474326 S    
C20   C22   1.409755 A    
C34   H18   1.081907 S    
N2    C43   1.170493 T    
