data_mof_unit_5213.cif
_audit_creation_date              2012-10-26T19:06:48-0400
_audit_creation_method            fapswitch 2.2
_symmetry_space_group_name_H-M    P1
_symmetry_Int_Tables_number       1
_space_group_crystal_system       triclinic
_cell_length_a                    12.338072
_cell_length_b                    13.162601
_cell_length_c                    27.767152
_cell_angle_alpha                 77.744808
_cell_angle_beta                  101.287241
_cell_angle_gamma                 116.584664
_cell_volume                      3914.48899624

loop_
_atom_site_label
_atom_site_type_symbol
_atom_type_description
_atom_site_fract_x
_atom_site_fract_y
_atom_site_fract_z
_atom_type_partial_charge
C1    C     C_R   0.854862 0.286445 0.504222 0.548669
C2    C     C_R   0.887744 0.448427 0.020644 0.027789
C3    C     C_R   0.112646 0.536530 0.030780 -0.027908
C4    C     C_R   0.999557 0.500012 0.592038 0.581322
C5    C     C_R   0.000790 0.493147 0.051057 0.019865
C6    C     C_R   0.778805 0.396798 0.043325 -0.142338
C7    C     C_R   0.780691 0.393916 0.093698 -0.118337
C8    C     C_R   0.890990 0.443239 0.123390 0.025446
C9    C     C_R   0.001718 0.493729 0.102294 -0.072934
C10   C     C_R   0.112911 0.544167 0.132516 0.024158
C11   C     C_R   0.109520 0.544509 0.183045 0.414284
C12   C     C_R   0.925436 0.395087 0.723615 -0.050679
C13   C     C_R   0.892754 0.442241 0.174075 0.427209
C14   C     C_R   0.942167 0.555753 0.267647 0.319231
C15   C     C_R   0.944309 0.557591 0.318377 -0.148091
C16   C     C_R   0.145026 0.713485 0.492978 0.540611
C17   C     C_R   0.055908 0.439316 0.340622 -0.166186
C18   C     C_R   0.055109 0.437710 0.290606 -0.114028
C19   C     C_R   0.999544 0.496273 0.254030 0.254781
C20   C     C_R   0.887078 0.455458 0.968852 0.017765
C21   C     C_R   0.998753 0.492378 0.949229 0.037227
C22   C     C_R   0.111369 0.528987 0.980324 0.020009
C23   C     C_R   0.995215 0.495666 0.745202 0.194701
C24   C     C_R   0.778325 0.427889 0.935691 -0.145707
C25   C     C_R   0.216556 0.553417 0.909755 -0.116731
C26   C     C_R   0.222411 0.587298 0.061630 -0.130614
C27   C     C_R   0.223434 0.594099 0.111238 0.265667
C28   C     C_R   0.000333 0.499989 0.407656 0.545843
C29   C     C_R   0.219016 0.556425 0.959686 -0.145448
C30   C     C_R   0.274576 0.023250 0.436228 -0.121454
C31   C     C_R   0.227816 0.834942 0.483356 0.001613
C32   C     C_R   0.816170 0.083868 0.534273 -0.093510
C33   C     C_R   0.738980 0.967760 0.542637 0.264513
C34   C     C_R   0.997789 0.492776 0.897930 -0.028954
C35   C     C_R   0.613803 0.931530 0.527256 -0.112661
C36   C     C_R   0.566519 0.009254 0.499199 -0.011788
C37   C     C_R   0.649660 0.123837 0.484658 0.004644
C38   C     C_R   0.439578 0.976597 0.484359 0.035629
C39   C     C_R   0.399368 0.054670 0.451447 0.057938
C40   C     C_R   0.888975 0.465496 0.815385 0.396933
C41   C     C_R   0.484198 0.161961 0.432892 -0.130321
C42   C     C_R   0.607498 0.195360 0.448524 -0.108197
C43   C     C_R   0.350972 0.868555 0.501235 -0.131790
C44   C     C_R   0.189103 0.913400 0.451787 -0.127717
C45   C     C_R   0.887640 0.462673 0.866100 0.025393
C46   C     C_R   0.772971 0.163148 0.506316 -0.054155
C47   C     C_R   0.345814 0.324900 0.578519 0.255460
C48   C     C_R   0.760583 0.647419 0.433896 0.036646
C49   C     C_R   0.665903 0.681858 0.420555 -0.172848
C50   C     C_R   0.563203 0.627900 0.446088 -0.140890
C51   C     C_R   0.553756 0.537979 0.485480 0.001262
C52   C     C_R   0.103905 0.522206 0.827664 0.396981
C53   C     C_R   0.653608 0.506015 0.497758 0.173808
C54   C     C_R   0.449513 0.478322 0.513007 -0.066857
C55   C     C_R   0.446911 0.386846 0.551202 -0.003465
C56   C     C_R   0.778895 0.431708 0.885351 -0.115230
C57   C     C_R   0.543858 0.355422 0.560926 -0.158713
C58   C     C_R   0.646311 0.416580 0.536550 -0.103669
C59   C     C_R   0.346074 0.503316 0.503588 -0.030606
C60   C     C_R   0.242732 0.348422 0.564609 0.437398
C61   C     C_R   0.064561 0.597161 0.715979 -0.070587
C62   C     C_R   0.066231 0.597700 0.665950 -0.194220
C63   C     C_R   0.922319 0.395902 0.672529 0.226515
C64   C     C_3   0.736475 0.238743 0.663022 -0.136293
C65   C     C_3   0.378865 0.763203 0.129546 0.014528
C66   C     C_3   0.497199 0.816900 0.162882 -0.349992
C67   C     C_R   0.106979 0.523382 0.878359 0.024045
C68   C     C_3   0.764222 0.804819 0.544109 -0.098849
C69   C     C_3   0.122999 0.272350 0.629587 0.028389
C70   C     C_3   0.085858 0.152897 0.659525 -0.361184
C71   C     C_3   0.409659 0.266616 0.658556 -0.034927
C72   C     C_3   0.429135 0.166286 0.691226 -0.374830
C73   C     C_3   0.777017 0.600065 0.238415 0.004773
C74   C     C_3   0.709683 0.628712 0.189247 -0.348341
C75   C     C_R   0.996577 0.497450 0.644428 0.021012
C76   C     C_R   0.000200 0.498891 0.354858 -0.033114
Cu1   Cu    Cu3+1 0.098270 0.475420 0.511360 0.978079
Cu2   Cu    Cu3+1 0.901730 0.524580 0.488640 0.917817
H1    H     H_    0.117954 0.675474 0.732198 0.148601
H2    H     H_    0.875082 0.316672 0.746928 0.128920
H3    H     H_    0.374983 0.807525 0.527970 0.117703
H4    H     H_    0.910524 0.111894 0.550225 0.192219
H5    H     H_    0.556713 0.842034 0.537182 0.105689
H6    H     H_    0.669047 0.276806 0.430631 0.153431
H7    H     H_    0.542085 0.282633 0.588111 0.146182
H8    H     H_    0.341408 0.572165 0.475587 0.137523
H9    H     H_    0.840221 0.690445 0.414090 0.123556
H10   H     H_    0.693150 0.409952 0.861535 0.163829
H11   H     H_    0.492853 0.658134 0.434216 0.108802
H12   H     H_    0.301576 0.575342 0.895820 0.163049
H13   H     H_    0.672347 0.750937 0.390414 0.108256
H14   H     H_    0.717752 0.389912 0.549648 0.201734
H15   H     H_    0.905233 0.606879 0.329462 0.110571
H16   H     H_    0.694573 0.353150 0.109241 0.157300
H17   H     H_    0.690191 0.354631 0.023376 0.106535
H18   H     H_    0.691177 0.406009 0.947241 0.110065
H19   H     H_    0.121594 0.676331 0.643912 0.119889
H20   H     H_    0.695457 0.298080 0.664390 0.118778
H21   H     H_    0.734524 0.181830 0.698943 0.129197
H22   H     H_    0.678825 0.183110 0.634458 0.141868
H23   H     H_    0.310257 0.625961 0.048114 0.116055
H24   H     H_    0.312148 0.791706 0.137246 0.152525
H25   H     H_    0.398202 0.795114 0.090274 0.109068
H26   H     H_    0.566779 0.792529 0.155177 0.143676
H27   H     H_    0.532147 0.911852 0.155790 0.099852
H28   H     H_    0.481135 0.786910 0.202457 0.187538
H29   H     H_    0.786088 0.838113 0.505145 0.118593
H30   H     H_    0.668600 0.738660 0.544870 0.120015
H31   H     H_    0.824244 0.761854 0.562329 0.159906
H32   H     H_    0.048090 0.296500 0.629432 0.210645
H33   H     H_    0.205879 0.336348 0.648505 0.093540
H34   H     H_    0.099203 0.393127 0.368168 0.141926
H35   H     H_    0.151493 0.117456 0.658673 0.198420
H36   H     H_    0.082099 0.157019 0.698660 0.105043
H37   H     H_    0.994175 0.093988 0.643937 0.177139
H38   H     H_    0.361426 0.294629 0.678903 0.132854
H39   H     H_    0.500746 0.338995 0.653278 0.127082
H40   H     H_    0.473039 0.132692 0.671273 0.146852
H41   H     H_    0.488719 0.194795 0.725815 0.121835
H42   H     H_    0.340300 0.096289 0.701140 0.155351
H43   H     H_    0.784476 0.657523 0.264216 0.117021
H44   H     H_    0.721546 0.508959 0.253468 0.155862
H45   H     H_    0.097897 0.390811 0.280119 0.139247
H46   H     H_    0.700995 0.573013 0.162423 0.185783
H47   H     H_    0.617007 0.614340 0.194979 0.121246
H48   H     H_    0.760276 0.719985 0.173688 0.151836
H49   H     H_    0.306846 0.577951 0.981386 0.108309
H50   H     H_    0.093825 0.888472 0.437582 0.121564
H51   H     H_    0.455197 0.220399 0.405993 0.111506
H52   H     H_    0.243524 0.082489 0.411045 0.110065
N1    N     N_R   0.996064 0.494451 0.797174 -0.391929
N2    N     N_R   0.000620 0.494296 0.202547 -0.381762
N3    N     N_R   0.246290 0.438210 0.528570 -0.258708
N4    N     N_R   0.754320 0.561170 0.471730 -0.240762
O1    O     O_R   0.972510 0.318140 0.514280 -0.447130
O2    O     O_R   0.082990 0.479230 0.439860 -0.500302
O3    O     O_R   0.917010 0.520730 0.420680 -0.515988
O4    O     O_2   0.784203 0.440489 0.784435 -0.521367
O5    O     O_3   0.856258 0.297871 0.649707 -0.597132
O6    O     O_3   0.334633 0.642500 0.139559 -0.516925
O7    O     O_3   0.786298 0.893430 0.570936 -0.564244
O8    O     O_3   0.131500 0.268432 0.580011 -0.525768
O9    O     O_3   0.339386 0.230300 0.613371 -0.558958
O10   O     O_3   0.894688 0.618753 0.230437 -0.538161
O11   O     O_2   0.787403 0.388969 0.194908 -0.514046
O12   O     O_2   0.207766 0.547702 0.809068 -0.508698
O13   O     O_2   0.213661 0.595115 0.212559 -0.459262
O14   O     O_R   0.806530 0.359640 0.495100 -0.528535
O15   O     O_R   0.082990 0.479270 0.579320 -0.500179
O16   O     O_R   0.917010 0.520770 0.560140 -0.511149
O17   O     O_R   0.193470 0.640360 0.504900 -0.516378
O18   O     O_R   0.027490 0.681860 0.485720 -0.510463

loop_
_geom_bond_atom_site_label_1
_geom_bond_atom_site_label_2
_ccdc_geom_bond_type
C10   C27   A    
C74   H46   S    
Cu2   O3    S    
C8    C13   A    
C22   C29   A    
C41   C42   A    
C35   C36   A    
C25   C67   A    
C13   O11   S    
C11   N2    A    
Cu1   O17   S    
Cu2   O18   S    
C7    C8    A    
C39   C41   A    
Cu1   Cu2   S    
C70   H36   S    
C16   C31   S    
C4    O15   A    
C12   C23   A    
C26   C27   A    
C31   C43   A    
C48   N4    A    
C36   C37   A    
C66   H28   S    
C24   H18   S    
C26   H23   S    
C38   C39   A    
C1    C46   S    
C56   H10   S    
C74   H47   S    
C47   O9    S    
C18   C19   A    
C73   C74   S    
C37   C42   A    
C4    C75   S    
C60   O8    S    
C47   C60   A    
C65   O6    S    
C64   H21   S    
C20   C24   A    
C45   C56   A    
C8    C9    A    
C40   O4    S    
C71   H38   S    
C17   C76   A    
Cu1   O2    S    
C9    C10   A    
C3    C22   A    
C61   C62   A    
Cu2   O14   S    
C18   H45   S    
C64   H20   S    
C15   C76   A    
C21   C22   A    
C30   C44   A    
C2    C6    A    
Cu1   N3    S    
C65   H24   S    
C49   H13   S    
C50   C51   A    
C54   C59   A    
C70   H35   S    
C25   C29   A    
C40   C45   A    
C14   O10   S    
C31   C44   A    
C71   H39   S    
C2    C20   A    
C66   H26   S    
C42   H6    S    
Cu1   O15   S    
C12   C63   A    
C35   H5    S    
C21   C34   A    
C33   O7    S    
C69   O8    S    
C30   H52   S    
C59   N3    A    
C51   C53   A    
C5    C9    A    
C62   H19   S    
C69   H32   S    
C50   H11   S    
C23   C61   A    
C72   H42   S    
C17   C18   A    
C25   H12   S    
C48   H9    S    
C23   N1    S    
C68   O7    S    
C16   O18   A    
C34   C45   A    
Cu2   N4    S    
C52   C67   A    
C48   C49   A    
C68   H29   S    
C40   N1    A    
C49   C50   A    
C73   H43   S    
C55   C57   A    
C43   H3    S    
C38   C43   A    
C62   C75   A    
C2    C5    A    
C65   H25   S    
C66   H27   S    
C28   C76   S    
C17   H34   S    
C32   H4    S    
Cu2   O16   S    
C47   C55   A    
C19   N2    S    
C7    H16   S    
C54   C55   A    
C44   H50   S    
C52   O12   S    
C28   O2    A    
C52   N1    A    
C32   C46   A    
C14   C19   A    
C73   H44   S    
C3    C26   A    
C53   N4    A    
C3    C5    A    
C34   C67   A    
C15   H15   S    
C53   C58   A    
C6    C7    A    
C63   O5    S    
C70   H37   S    
C24   C56   A    
C4    O16   A    
C27   O6    S    
C51   C54   A    
C32   C33   A    
C29   H49   S    
C59   H8    S    
C71   C72   S    
C41   H51   S    
C69   H33   S    
C11   O13   S    
C57   C58   A    
C74   H48   S    
C71   O9    S    
C63   C75   A    
C61   H1    S    
C12   H2    S    
C72   H41   S    
C36   C38   A    
C33   C35   A    
C13   N2    A    
C57   H7    S    
C30   C39   A    
C16   O17   A    
C68   H31   S    
C65   C66   S    
C69   C70   S    
C10   C11   A    
Cu1   O1    S    
C64   H22   S    
C20   C21   A    
C6    H17   S    
C28   O3    A    
C72   H40   S    
C14   C15   A    
C1    O14   A    
C68   H30   S    
C37   C46   A    
C1    O1    A    
C58   H14   S    
C60   N3    A    
C73   O10   S    
C64   O5    S    
