data_mof_unit_11769.cif
_audit_creation_date              2012-12-10T20:41:47-0500
_audit_creation_method            fapswitch 2.2
_symmetry_space_group_name_H-M    P1
_symmetry_Int_Tables_number       1
_space_group_crystal_system       triclinic
_cell_length_a                    15.379139
_cell_length_b                    14.846152
_cell_length_c                    9.957567
_cell_angle_alpha                 89.366971
_cell_angle_beta                  88.223213
_cell_angle_gamma                 89.741313
_cell_volume                      2272.27041157

loop_
_atom_site_label
_atom_site_type_symbol
_atom_type_description
_atom_site_fract_x
_atom_site_fract_y
_atom_site_fract_z
_atom_type_partial_charge
C1    C     C_R   0.380264 0.879873 0.501141 0.918879
C2    C     C_R   0.384256 0.123331 0.500800 0.896018
C3    C     C_R   0.878113 0.382591 0.500978 0.871608
C4    C     C_R   0.878966 0.618491 0.500479 0.859082
C5    C     C_3   0.188282 0.087634 0.460323 -0.634156
C6    C     C_3   0.349227 0.702007 0.699727 -0.573577
C7    C     C_3   0.680436 0.612912 0.629265 -0.614639
C8    C     C_3   0.723740 0.347026 0.720988 -0.582043
C9    C     C_R   0.435141 0.042128 0.074461 0.144703
C10   C     C_R   0.977747 0.575170 0.072952 0.124412
C11   C     C_R   0.569828 0.970915 0.070805 -0.103030
C12   C     C_R   0.023370 0.425514 0.073555 -0.137068
C13   C     C_R   0.573319 0.976270 0.927348 0.149838
C14   C     C_R   0.021207 0.423735 0.931111 0.177853
C15   C     C_R   0.431214 0.035319 0.933263 0.059994
C16   C     C_R   0.974424 0.575148 0.929855 0.146972
C17   C     C_3   0.338072 0.001561 0.950858 0.269336
C18   C     C_3   0.881347 0.610960 0.947326 0.237343
C19   C     C_3   0.341944 0.025468 0.100012 -0.458483
C20   C     C_3   0.892836 0.618035 0.097178 -0.433816
C21   C     C_R   0.618501 0.121074 0.498921 0.894445
C22   C     C_R   0.620930 0.881961 0.499275 0.925738
C23   C     C_R   0.116770 0.622274 0.497733 0.854029
C24   C     C_R   0.115650 0.375837 0.499324 0.871656
C25   C     C_R   0.234190 0.160030 0.530090 -0.021849
C26   C     C_R   0.323525 0.730898 0.562245 0.066536
C27   C     C_R   0.746920 0.684230 0.595867 -0.024485
C28   C     C_R   0.770981 0.290231 0.620061 0.002392
C29   C     C_R   0.318230 0.188851 0.504950 -0.021886
C30   C     C_R   0.313483 0.814085 0.498899 -0.076436
C31   C     C_R   0.814594 0.686601 0.500348 -0.049191
C32   C     C_R   0.812097 0.316397 0.500265 -0.045494
C33   C     C_R   0.337335 0.280030 0.488682 -0.210042
C34   C     C_R   0.244359 0.826815 0.410931 -0.244723
C35   C     C_R   0.824333 0.760413 0.411940 -0.218697
C36   C     C_R   0.794541 0.272219 0.379922 -0.225351
C37   C     C_R   0.760529 0.826677 0.410813 -0.240244
C38   C     C_R   0.731548 0.206678 0.379559 -0.246114
C39   C     C_R   0.269021 0.341273 0.484358 -0.222788
C40   C     C_R   0.179557 0.761830 0.405132 -0.199930
C41   C     C_R   0.689309 0.819022 0.500653 -0.074930
C42   C     C_R   0.685049 0.186629 0.498753 -0.049694
C43   C     C_R   0.183071 0.310381 0.498100 -0.024664
C44   C     C_R   0.183557 0.686599 0.490694 -0.088937
C45   C     C_R   0.686070 0.751433 0.597863 -0.022013
C46   C     C_R   0.707351 0.226343 0.619962 -0.006678
C47   C     C_R   0.165679 0.219764 0.530857 0.004347
C48   C     C_R   0.256510 0.671179 0.564027 -0.062343
C49   C     C_3   0.613110 0.689611 0.639974 0.693827
C50   C     C_3   0.651671 0.275358 0.723592 0.697746
C51   C     C_3   0.109039 0.150056 0.465210 0.708417
C52   C     C_3   0.270324 0.639485 0.705110 0.685133
H1    H     H_    0.403833 0.302871 0.474329 0.161380
H2    H     H_    0.238983 0.887862 0.351096 0.145641
H3    H     H_    0.879940 0.765782 0.342988 0.140462
H4    H     H_    0.829011 0.288155 0.286178 0.176096
H5    H     H_    0.308184 0.089380 0.127563 0.179450
H6    H     H_    0.330084 0.971936 0.175898 0.216843
H7    H     H_    0.900490 0.686367 0.138065 0.186791
H8    H     H_    0.848969 0.575308 0.160749 0.219330
H9    H     H_    0.765730 0.882164 0.339420 0.145954
H10   H     H_    0.718058 0.173659 0.285991 0.167084
H11   H     H_    0.282838 0.412043 0.467127 0.132704
H12   H     H_    0.124590 0.772781 0.341358 0.146939
H13   H     H_    0.182359 0.025677 0.523764 0.167839
H14   H     H_    0.411026 0.665228 0.690928 0.250520
H15   H     H_    0.689948 0.579723 0.726470 0.211865
H16   H     H_    0.760033 0.350750 0.815489 0.187937
H17   H     H_    0.216872 0.076318 0.357907 0.210439
H18   H     H_    0.348037 0.755576 0.774233 0.202646
H19   H     H_    0.674684 0.563963 0.546805 0.179280
H20   H     H_    0.706469 0.413632 0.677572 0.190775
H21   H     H_    0.624073 0.945209 0.125934 0.166947
H22   H     H_    0.040003 0.365244 0.129559 0.180148
N1    N     N_R   0.499140 1.000000 0.142800 -0.124141
N2    N     N_R   0.999140 0.500000 0.142800 -0.124664
N3    N     N_R   0.499160 1.000000 0.857150 -0.160937
N4    N     N_R   0.999160 0.500000 0.857150 -0.138955
O1    O     O_R   0.408400 0.908380 0.614690 -0.633490
O2    O     O_R   0.408400 0.091620 0.614690 -0.621376
O3    O     O_R   0.908400 0.408380 0.614690 -0.648419
O4    O     O_R   0.908400 0.591620 0.614690 -0.644692
O5    O     O_R   0.408370 0.908370 0.385350 -0.622737
O6    O     O_R   0.408370 0.091630 0.385350 -0.620712
O7    O     O_R   0.908370 0.408370 0.385350 -0.621881
O8    O     O_R   0.908370 0.591630 0.385350 -0.635230
O9    O     O_R   0.591610 0.091610 0.614650 -0.647785
O10   O     O_R   0.591610 0.908390 0.614650 -0.661174
O11   O     O_R   0.091610 0.591610 0.614650 -0.587100
O12   O     O_R   0.091610 0.408390 0.614650 -0.636723
O13   O     O_R   0.591590 0.091600 0.385310 -0.629721
O14   O     O_R   0.591590 0.908400 0.385310 -0.623261
O15   O     O_R   0.091590 0.591600 0.385310 -0.606620
O16   O     O_R   0.091590 0.408400 0.385310 -0.587739
Zn1   Zn    Zn3+2 0.500010 1.000000 0.653130 0.918940
Zn2   Zn    Zn3+2 0.000010 0.500000 0.653130 0.930897
Zn3   Zn    Zn3+2 0.499980 1.000000 0.346870 0.940154
Zn4   Zn    Zn3+2 0.999980 0.500000 0.346870 0.950343
C53   C     C_3   0.582096 0.711309 0.785886 -0.367492
C54   C     C_3   0.530338 0.635365 0.856502 -0.938230
H23   H     H_    0.468606 0.662768 0.900197 0.256837
H24   H     H_    0.516471 0.579440 0.787343 0.267815
H25   H     H_    0.565052 0.607441 0.942774 0.256611
H26   H     H_    0.638496 0.727454 0.848306 0.157572
H27   H     H_    0.540664 0.772854 0.783299 0.218899
C55   C     C_3   0.642779 0.219260 0.855477 -0.398731
C56   C     C_3   0.605378 0.271882 0.974961 -0.897875
H28   H     H_    0.643589 0.333858 0.991140 0.253480
H29   H     H_    0.536198 0.289538 0.959273 0.272762
H30   H     H_    0.608066 0.229188 0.067076 0.257122
H31   H     H_    0.599753 0.160958 0.839894 0.242631
H32   H     H_    0.707592 0.192398 0.882790 0.170332
C57   C     C_3   0.036662 0.112244 0.561713 -0.481189
C58   C     C_3   0.958524 0.174045 0.574614 -0.843220
H33   H     H_    0.980042 0.243629 0.592044 0.248298
H34   H     H_    0.921585 0.171734 0.481379 0.275843
H35   H     H_    0.915380 0.151608 0.659897 0.242552
H36   H     H_    0.014987 0.045487 0.526283 0.200220
H37   H     H_    0.062888 0.101384 0.663340 0.189242
C59   C     C_3   0.293037 0.538153 0.710529 -0.415504
C60   C     C_3   0.311162 0.505120 0.852796 -0.820589
H38   H     H_    0.364245 0.544470 0.896191 0.254507
H39   H     H_    0.251744 0.511166 0.918445 0.291754
H40   H     H_    0.330819 0.433097 0.850181 0.229293
H41   H     H_    0.237319 0.499280 0.673733 0.221681
H42   H     H_    0.350386 0.522940 0.643583 0.163873
O17   O     O_3   0.541859 0.691785 0.551087 -0.619442
C61   C     C_3   0.557697 0.651197 0.424973 -0.335488
H43   H     H_    0.549377 0.577099 0.433905 0.164884
H44   H     H_    0.622376 0.668405 0.379235 0.178936
H45   H     H_    0.508107 0.676375 0.355075 0.198154
O18   O     O_3   0.570509 0.299291 0.667620 -0.594981
C62   C     C_3   0.539585 0.384994 0.707740 -0.340626
H46   H     H_    0.467625 0.382478 0.717637 0.193570
H47   H     H_    0.556651 0.435530 0.628372 0.173764
H48   H     H_    0.564409 0.407984 0.805071 0.171164
O19   O     O_3   0.081844 0.181039 0.337397 -0.585567
C63   C     C_3   0.045587 0.111105 0.261982 -0.335567
H49   H     H_    0.978327 0.095804 0.298249 0.172544
H50   H     H_    0.085382 0.048477 0.261833 0.148027
H51   H     H_    0.041727 0.134486 0.156121 0.187212
O20   O     O_3   0.205086 0.662389 0.805259 -0.569733
C64   C     C_3   0.161790 0.746039 0.786439 -0.308251
H52   H     H_    0.201953 0.798474 0.735469 0.152659
H53   H     H_    0.141560 0.772436 0.886135 0.174328
H54   H     H_    0.101409 0.736739 0.730691 0.192272
C65   C     C_3   0.659823 0.956505 0.855530 -0.344558
C66   C     C_3   0.741093 0.975287 0.936054 -1.006829
H55   H     H_    0.751068 0.921590 0.012628 0.263740
H56   H     H_    0.736102 0.041949 0.985279 0.266593
H57   H     H_    0.799389 0.975519 0.867303 0.266336
H58   H     H_    0.662075 0.884912 0.825961 0.210412
H59   H     H_    0.666651 0.000191 0.765948 0.259195
C67   C     C_3   0.033843 0.332744 0.868837 -0.371116
C68   C     C_3   0.129545 0.304335 0.866737 -0.837086
H60   H     H_    0.150915 0.290307 0.970452 0.251619
H61   H     H_    0.171593 0.357748 0.821221 0.283862
H62   H     H_    0.138149 0.242180 0.807232 0.242932
H63   H     H_    0.995558 0.281858 0.928041 0.164925
H64   H     H_    0.006514 0.330879 0.768696 0.251752
C69   C     C_3   0.271974 0.060167 0.874375 -0.351585
C70   C     C_3   0.177801 0.039425 0.917772 -0.921877
H65   H     H_    0.159553 0.970813 0.885928 0.258745
H66   H     H_    0.168428 0.044708 0.028310 0.266020
H67   H     H_    0.133458 0.088270 0.870018 0.244260
H68   H     H_    0.284545 0.132895 0.890926 0.201493
H69   H     H_    0.279611 0.047877 0.765000 0.220485
C71   C     C_3   0.332270 0.898822 0.921785 -0.310794
C72   C     C_3   0.284899 0.841186 0.029727 -0.921145
H70   H     H_    0.221098 0.871167 0.059749 0.264580
H71   H     H_    0.274715 0.772496 0.991367 0.282646
H72   H     H_    0.325675 0.831876 0.118836 0.268139
H73   H     H_    0.299042 0.891211 0.825710 0.202071
H74   H     H_    0.398181 0.868799 0.907532 0.194639
C73   C     C_3   0.863494 0.704302 0.879695 -0.324795
C74   C     C_3   0.924353 0.781189 0.916618 -0.958322
H75   H     H_    0.902872 0.812138 0.013087 0.254428
H76   H     H_    0.992159 0.757057 0.924103 0.261162
H77   H     H_    0.922633 0.834879 0.838126 0.255586
H78   H     H_    0.869095 0.698132 0.770577 0.235902
H79   H     H_    0.795814 0.726243 0.903710 0.203567
C75   C     C_3   0.815844 0.535460 0.913036 -0.373892
C76   C     C_3   0.726453 0.544627 0.982948 -0.969537
H80   H     H_    0.727193 0.517986 0.087428 0.259923
H81   H     H_    0.705660 0.615933 0.985880 0.274057
H82   H     H_    0.678706 0.503516 0.929528 0.253053
H83   H     H_    0.810412 0.532189 0.802987 0.231165
H84   H     H_    0.841101 0.468335 0.944103 0.194851

loop_
_geom_bond_atom_site_label_1
_geom_bond_atom_site_label_2
_ccdc_geom_bond_type
C64   H54   S    
C21   O9    A    
C12   H22   S    
C68   H61   S    
C56   H29   S    
C72   H70   S    
C2    O6    A    
C65   C66   S    
C66   H57   S    
C61   H43   S    
C69   C70   S    
C55   H32   S    
C19   H5    S    
C71   H74   S    
C28   C46   A    
C33   C39   A    
C2    C29   S    
C34   C40   A    
O6    Zn3   S    
C32   C36   A    
C57   H36   S    
C35   C37   A    
C66   H56   S    
C38   C42   A    
C48   C52   S    
C76   H81   S    
C7    H19   S    
C59   H42   S    
C22   C41   S    
C3    O7    A    
C55   C56   S    
O16   Zn4   S    
N2    Zn4   S    
C64   H52   S    
C29   C33   A    
N1    Zn3   S    
C7    C27   S    
C6    H18   S    
C42   C46   A    
C75   C76   S    
C1    C30   S    
C60   H40   S    
C5    H17   S    
O7    Zn4   S    
C57   H37   S    
C10   N2    A    
C9    C19   S    
C74   H77   S    
C73   C74   S    
N4    Zn2   S    
O18   C62   S    
O9    Zn1   S    
C3    O3    A    
C62   H48   S    
C56   H28   S    
C23   O11   A    
C22   O10   A    
C20   H8    S    
C25   C47   A    
C18   C20   S    
C69   H68   S    
C26   C48   A    
C73   H79   S    
C18   C73   S    
C27   C45   A    
C74   H76   S    
C53   H26   S    
O10   Zn1   S    
C14   C67   S    
C68   H62   S    
C25   C29   A    
C72   H71   S    
C53   H27   S    
O14   Zn3   S    
C58   H33   S    
O8    Zn4   S    
C70   H66   S    
C55   H31   S    
C19   H6    S    
C33   H1    S    
C71   H73   S    
C49   O17   S    
C13   N3    A    
C8    H20   S    
O4    Zn2   S    
C67   H64   S    
C30   C34   A    
C27   C31   A    
C58   H35   S    
C28   C32   A    
C66   H55   S    
C7    C49   S    
C5    H13   S    
C11   H21   S    
C76   H82   S    
C10   C20   S    
O3    Zn2   S    
C59   H41   S    
C47   C51   S    
C35   H3    S    
C17   C71   S    
C54   H25   S    
C52   O20   S    
C23   C44   S    
C23   O15   A    
C24   O12   A    
O2    Zn1   S    
C76   H80   S    
O1    Zn1   S    
C36   H4    S    
C24   O16   A    
C49   C53   S    
C70   H67   S    
C37   H9    S    
C53   C54   S    
C6    H14   S    
C54   H24   S    
C45   C49   S    
C67   C68   S    
C4    O4    A    
C75   H84   S    
O13   Zn3   S    
C20   H7    S    
O12   Zn2   S    
C60   H38   S    
C69   H69   S    
C50   O18   S    
C5    C25   S    
C52   C59   S    
C74   H75   S    
C12   C14   A    
C8    H16   S    
C12   N2    A    
C62   H46   S    
C8    C28   S    
C56   H30   S    
C31   C35   A    
C1    O5    A    
C13   C65   S    
O17   C61   S    
C61   H45   S    
C8    C50   S    
C59   C60   S    
C62   H47   S    
C57   C58   S    
C21   O13   A    
C64   H53   S    
C6    C26   S    
C71   C72   S    
C41   C45   A    
C17   C69   S    
C51   C57   S    
C22   O14   A    
C63   H51   S    
C61   H44   S    
C58   H34   S    
C26   C30   A    
C73   H78   S    
C63   H50   S    
C70   H65   S    
C39   H11   S    
O19   C63   S    
C46   C50   S    
C40   H12   S    
O11   Zn2   S    
C36   C38   A    
C65   H58   S    
C9    C15   A    
C67   H63   S    
C10   C16   A    
C11   C13   A    
C34   H2    S    
C15   N3    A    
C1    O1    A    
C54   H23   S    
C17   C19   S    
N3    Zn1   S    
C16   N4    A    
C75   H83   S    
C14   N4    A    
C37   C41   A    
C3    C32   S    
C65   H59   S    
C60   H39   S    
C4    C31   S    
C2    O2    A    
C63   H49   S    
C7    H15   S    
C21   C42   S    
C40   C44   A    
C4    O8    A    
C39   C43   A    
C16   C18   S    
O5    Zn3   S    
C51   O19   S    
C68   H60   S    
C50   C55   S    
C24   C43   S    
C18   C75   S    
O20   C64   S    
C5    C51   S    
C11   N1    A    
C72   H72   S    
C9    N1    A    
C6    C52   S    
C15   C17   S    
C43   C47   A    
O15   Zn4   S    
C44   C48   A    
C38   H10   S    
