data_mof_unit_14808.cif
_audit_creation_date              2012-12-10T17:41:04-0500
_audit_creation_method            fapswitch 2.2
_symmetry_space_group_name_H-M    P1
_symmetry_Int_Tables_number       1
_space_group_crystal_system       triclinic
_cell_length_a                    14.683255
_cell_length_b                    15.571563
_cell_length_c                    9.98802
_cell_angle_alpha                 90.018911
_cell_angle_beta                  89.625277
_cell_angle_gamma                 89.420498
_cell_volume                      2283.50735791

loop_
_atom_site_label
_atom_site_type_symbol
_atom_type_description
_atom_site_fract_x
_atom_site_fract_y
_atom_site_fract_z
_atom_type_partial_charge
C1    C     C_R   0.381691 0.879301 0.500408 0.799358
C2    C     C_R   0.734437 0.208588 0.379084 -0.002574
C3    C     C_R   0.277118 0.332384 0.470668 -0.085584
C4    C     C_R   0.173016 0.760218 0.428400 -0.027392
C5    C     C_R   0.687600 0.815369 0.497341 -0.165786
C6    C     C_R   0.703961 0.169830 0.498976 -0.178968
C7    C     C_R   0.185410 0.313345 0.498982 -0.182201
C8    C     C_R   0.188828 0.683871 0.501365 -0.172634
C9    C     C_R   0.332563 0.975965 0.134437 -0.049758
C10   C     C_R   0.834295 0.534267 0.134705 -0.009494
C11   C     C_R   0.267005 0.928814 0.065594 -0.263358
C12   C     C_R   0.379931 0.118889 0.500412 0.856658
C13   C     C_R   0.766096 0.578653 0.064868 -0.184967
C14   C     C_R   0.267686 0.929452 0.925954 0.231962
C15   C     C_R   0.763503 0.569629 0.926317 0.177536
C16   C     C_R   0.338396 0.971833 0.860349 -0.200424
C17   C     C_R   0.839326 0.535401 0.860164 -0.240528
C18   C     C_R   0.419493 0.989304 0.927868 0.132486
C19   C     C_R   0.921121 0.519695 0.927763 0.127041
C20   C     C_R   0.418317 0.990571 0.071515 0.143030
C21   C     C_R   0.920142 0.519638 0.071445 0.016880
C22   C     C_R   0.579262 0.001773 0.067683 0.064502
C23   C     C_R   0.880043 0.379898 0.502156 0.897887
C24   C     C_R   0.076561 0.481921 0.068900 0.029939
C25   C     C_R   0.625446 0.114480 0.499448 0.905999
C26   C     C_R   0.619077 0.879992 0.499390 0.828818
C27   C     C_R   0.120677 0.618824 0.500077 0.810900
C28   C     C_R   0.120549 0.381301 0.499658 0.827262
C29   C     C_R   0.577447 0.003488 0.925881 -0.173926
C30   C     C_R   0.075599 0.480869 0.926697 -0.161706
C31   C     C_R   0.192373 0.077432 0.553488 -0.208771
C32   C     C_R   0.416581 0.723281 0.650865 -0.174141
C33   C     C_R   0.924824 0.784988 0.616768 -0.184381
C34   C     C_R   0.881305 0.620195 0.500568 0.864769
C35   C     C_R   0.806340 0.301925 0.762150 -0.158913
C36   C     C_R   0.100675 0.059292 0.574737 -0.110716
C37   C     C_R   0.430010 0.650021 0.727673 -0.117403
C38   C     C_R   0.944050 0.866057 0.667668 -0.124957
C39   C     C_R   0.797440 0.250067 0.874918 -0.128775
C40   C     C_R   0.880563 0.932315 0.655600 -0.152364
C41   C     C_R   0.772189 0.165237 0.860027 -0.123659
C42   C     C_R   0.036132 0.125324 0.572948 -0.121645
C43   C     C_R   0.365398 0.585613 0.727924 -0.105524
C44   C     C_R   0.797301 0.917184 0.594355 -0.141013
C45   C     C_R   0.339707 0.265740 0.471765 -0.110267
C46   C     C_R   0.746041 0.135741 0.734985 -0.157114
C47   C     C_R   0.063181 0.209516 0.549911 -0.153408
C48   C     C_R   0.286504 0.594978 0.652352 -0.161894
C49   C     C_R   0.774117 0.834102 0.550423 0.126057
C50   C     C_R   0.746939 0.190114 0.621699 0.076071
C51   C     C_R   0.155802 0.229089 0.526467 0.111969
C52   C     C_R   0.269375 0.670869 0.577298 0.110293
C53   C     C_R   0.220560 0.162520 0.528127 0.101751
C54   C     C_R   0.335406 0.735544 0.577175 0.103079
C55   C     C_R   0.839400 0.768322 0.557600 0.096915
C56   C     C_R   0.239825 0.821943 0.428066 -0.198430
C57   C     C_R   0.791299 0.268804 0.631220 0.092894
C58   C     C_R   0.311703 0.183020 0.501208 -0.106665
C59   C     C_R   0.318910 0.810240 0.501541 -0.126859
C60   C     C_R   0.817506 0.688333 0.502257 -0.152573
C61   C     C_R   0.820500 0.307228 0.508742 -0.104738
C62   C     C_3   0.178741 0.803973 0.873532 -0.710931
C63   C     C_3   0.622845 0.504012 0.867348 -0.738190
C64   C     C_2   0.575090 0.713296 0.389237 0.424590
C65   C     C_2   0.698559 0.193609 0.243263 0.525849
C66   C     C_2   0.308553 0.421080 0.441524 0.451846
C67   C     C_R   0.733298 0.671687 0.446201 -0.186286
C68   C     C_2   0.085665 0.778942 0.357939 0.413435
C69   C     C_2   0.672856 0.995249 0.123231 0.398591
C70   C     C_2   0.164424 0.464132 0.132781 0.456953
C71   C     C_2   0.288302 0.043022 0.215335 0.512051
C72   C     C_2   0.794351 0.462003 0.206567 0.504747
C73   C     C_R   0.801516 0.268185 0.386999 -0.263595
C74   C     C_R   0.666449 0.734294 0.444233 -0.072037
H1    H     H_    0.411068 0.277848 0.450724 0.195648
H2    H     H_    0.471064 0.769271 0.649889 0.155501
H3    H     H_    0.977369 0.736222 0.624255 0.142305
H4    H     H_    0.822597 0.367321 0.782982 0.161774
H5    H     H_    0.079781 0.993819 0.591383 0.139579
H6    H     H_    0.491218 0.643514 0.786337 0.160120
H7    H     H_    0.008838 0.877881 0.714623 0.143788
H8    H     H_    0.812117 0.275339 0.973394 0.119881
H9    H     H_    0.895895 0.995521 0.693417 0.132508
H10   H     H_    0.770167 0.122875 0.945507 0.115807
H11   H     H_    0.964797 0.111667 0.588385 0.137603
H12   H     H_    0.229076 0.881480 0.374163 0.163085
H13   H     H_    0.376684 0.527831 0.785995 0.144710
H14   H     H_    0.751680 0.970777 0.579397 0.122848
H15   H     H_    0.727159 0.069756 0.727570 0.134307
H16   H     H_    0.010920 0.258603 0.549134 0.134096
H17   H     H_    0.240265 0.541626 0.654018 0.137995
H18   H     H_    0.205090 0.909705 0.116632 0.198521
H19   H     H_    0.703156 0.596199 0.115941 0.213124
H20   H     H_    0.193688 0.910802 0.751970 0.209848
H21   H     H_    0.122404 0.781810 0.808953 0.224233
H22   H     H_    0.159516 0.791365 0.979347 0.266866
H23   H     H_    0.719235 0.608546 0.407362 0.236151
H24   H     H_    0.241152 0.766452 0.847380 0.248181
H25   H     H_    0.687888 0.598977 0.759283 0.236781
H26   H     H_    0.560650 0.512697 0.806531 0.237767
H27   H     H_    0.602143 0.493087 0.973127 0.273837
H28   H     H_    0.659862 0.446332 0.828885 0.237064
H29   H     H_    0.520129 0.760118 0.390437 0.069784
H30   H     H_    0.743852 0.169127 0.165964 0.003761
H31   H     H_    0.260761 0.474369 0.440395 0.091920
H32   H     H_    0.027451 0.737407 0.369137 0.086526
H33   H     H_    0.730310 0.987712 0.055075 0.023267
H34   H     H_    0.834245 0.287805 0.295361 0.143421
H35   H     H_    0.203818 0.407743 0.103618 0.048501
H36   H     H_    0.241724 0.025699 0.295168 0.028021
H37   H     H_    0.815308 0.398188 0.176872 0.020567
H38   H     H_    0.329670 0.988344 0.757582 0.194376
H39   H     H_    0.830071 0.514751 0.759204 0.203837
H40   H     H_    0.640094 0.003166 0.869408 0.123559
H41   H     H_    0.137525 0.466258 0.871354 0.137853
H42   H     H_    0.240428 0.024314 0.554219 0.100934
N1    N     N_R   0.498810 0.000000 0.142780 -0.111061
N2    N     N_R   0.998810 0.500000 0.142780 -0.129464
N3    N     N_R   0.498740 0.000000 0.857170 -0.105532
N4    N     N_R   0.998740 0.500000 0.857170 -0.105718
N5    N     N_2   0.193858 0.894733 0.852184 -0.307175
N6    N     N_2   0.679738 0.579265 0.857253 -0.307824
O1    O     O_R   0.408390 0.908380 0.614690 -0.648751
O2    O     O_R   0.591620 0.908390 0.614640 -0.635608
O3    O     O_R   0.091620 0.591610 0.614640 -0.631181
O4    O     O_R   0.091620 0.408390 0.614640 -0.621380
O5    O     O_R   0.591610 0.091610 0.385310 -0.526295
O6    O     O_R   0.591610 0.908390 0.385310 -0.566625
O7    O     O_R   0.091610 0.591610 0.385310 -0.558948
O8    O     O_R   0.091610 0.408390 0.385310 -0.603561
O9    O     O_2   0.559770 0.642578 0.341956 -0.518129
O10   O     O_2   0.620993 0.215318 0.214371 -0.524875
O11   O     O_2   0.388677 0.435882 0.418491 -0.511457
O12   O     O_R   0.408390 0.091620 0.614690 -0.625625
O13   O     O_2   0.076963 0.842473 0.287312 -0.593816
O14   O     O_2   0.689737 0.997942 0.241651 -0.550453
O15   O     O_2   0.197272 0.515592 0.209958 -0.541755
O16   O     O_2   0.297047 0.118639 0.185569 -0.546632
O17   O     O_2   0.733633 0.471797 0.289413 -0.571867
O18   O     O_R   0.908390 0.408380 0.614690 -0.658875
O19   O     O_R   0.908390 0.591620 0.614690 -0.638239
O20   O     O_R   0.408370 0.908380 0.385360 -0.637017
O21   O     O_R   0.408370 0.091620 0.385360 -0.579415
O22   O     O_R   0.908370 0.408380 0.385360 -0.631226
O23   O     O_R   0.908370 0.591620 0.385360 -0.606746
O24   O     O_R   0.591620 0.091610 0.614640 -0.625984
Zn1   Zn    Zn3+2 0.500010 0.000000 0.653130 0.941532
Zn2   Zn    Zn3+2 0.000010 0.500000 0.653130 0.928013
Zn3   Zn    Zn3+2 0.499980 0.000000 0.346870 1.034058
Zn4   Zn    Zn3+2 0.999980 0.500000 0.346870 0.989803

loop_
_geom_bond_atom_site_label_1
_geom_bond_atom_site_label_2
_ccdc_geom_bond_type
C44   C49   A    
C33   C55   A    
C64   H29   S    
C29   H40   S    
C34   O19   A    
C15   N6    S    
C62   H22   S    
C22   N1    A    
C36   C42   A    
C4    C8    A    
C2    C65   S    
O18   Zn2   S    
C69   H33   S    
C17   H39   S    
C39   C41   A    
C46   H15   S    
O12   Zn1   S    
C29   N3    A    
C55   C60   A    
C21   N2    A    
C68   H32   S    
O20   Zn3   S    
C22   C29   A    
C3    C7    A    
C1    C59   S    
C34   O23   A    
C6    C25   S    
N3    Zn1   S    
C71   H36   S    
C5    C74   A    
N2    Zn4   S    
O22   Zn4   S    
C1    O20   A    
O19   Zn2   S    
C17   C19   A    
C62   H24   S    
C11   H18   S    
C72   O17   D    
C60   C67   A    
C52   C54   A    
C48   H17   S    
O8    Zn4   S    
C41   C46   A    
C25   O24   A    
C43   C48   A    
C8    C52   A    
C22   C69   S    
C28   O8    A    
O23   Zn4   S    
C63   H27   S    
C30   H41   S    
C12   C58   S    
C72   H37   S    
C14   N5    S    
C12   O12   A    
C62   H21   S    
C4    C56   A    
C34   C60   S    
C65   O10   D    
C40   H9    S    
C5    C49   A    
C2    C6    A    
C26   O2    A    
C63   H28   S    
C32   C54   A    
C20   N1    A    
O2    Zn1   S    
C28   O4    A    
C71   O16   D    
C40   C44   A    
C54   C59   A    
C10   C21   A    
C37   H6    S    
C45   C58   A    
C24   C70   S    
C23   O18   A    
C4    C68   S    
O4    Zn2   S    
C73   H34   S    
C47   C51   A    
C61   C73   A    
C49   C55   A    
C41   H10   S    
C36   H5    S    
C6    C50   A    
C7    C28   S    
C13   H19   S    
C51   C53   A    
C37   C43   A    
C35   C39   A    
C1    O1    A    
C63   H26   S    
C70   H35   S    
C66   O11   D    
C9    C20   A    
C56   H12   S    
C64   O9    D    
C48   C52   A    
C42   H11   S    
C26   O6    A    
C32   C37   A    
C31   C53   A    
C9    C11   A    
C2    C73   A    
H25   N6    S    
O1    Zn1   S    
C19   N4    A    
N4    Zn2   S    
C69   O14   D    
C13   C15   A    
C38   H7    S    
C27   O7    A    
C47   H16   S    
C14   C16   A    
C23   O22   A    
C3    C66   S    
C66   H31   S    
C31   H42   S    
C63   N6    S    
C16   H38   S    
O24   Zn1   S    
C23   C61   S    
C15   C17   A    
C19   C21   A    
C50   C57   A    
C68   O13   D    
C9    C71   S    
C39   H8    S    
C10   C13   A    
C32   H2    S    
C53   C58   A    
C56   C59   A    
C57   C61   A    
C46   C50   A    
C35   H4    S    
C24   N2    A    
C33   C38   A    
O3    Zn2   S    
C12   O21   A    
C45   H1    S    
C35   C57   A    
C43   H13   S    
C25   O5    A    
C7    C51   A    
O7    Zn4   S    
O5    Zn3   S    
C67   C74   A    
C38   C40   A    
C27   O3    A    
C33   H3    S    
C30   N4    A    
C11   C14   A    
C3    C45   A    
C18   C20   A    
C42   C47   A    
C24   C30   A    
C67   H23   S    
C5    C26   S    
H20   N5    S    
O6    Zn3   S    
O21   Zn3   S    
C70   O15   D    
C16   C18   A    
C8    C27   S    
C64   C74   S    
C31   C36   A    
N1    Zn3   S    
C65   H30   S    
C44   H14   S    
C18   N3    A    
C62   N5    S    
C10   C72   S    
