data_mof_unit_26721.cif
_audit_creation_date              2012-10-26T19:20:17-0400
_audit_creation_method            fapswitch 2.2
_symmetry_space_group_name_H-M    P1
_symmetry_Int_Tables_number       1
_space_group_crystal_system       triclinic
_cell_length_a                    15.862151
_cell_length_b                    10.931164
_cell_length_c                    9.669743
_cell_angle_alpha                 88.680004
_cell_angle_beta                  90.1915
_cell_angle_gamma                 90.239388
_cell_volume                      1676.18549389

loop_
_atom_site_label
_atom_site_type_symbol
_atom_type_description
_atom_site_fract_x
_atom_site_fract_y
_atom_site_fract_z
_atom_type_partial_charge
C1    C     C_R   0.502864 0.264362 0.502193 0.561813
C2    C     C_2   0.492134 0.865423 0.492345 -0.101456
C3    C     C_2   0.530959 0.066683 0.395144 0.236164
C4    C     C_R   0.339777 0.499509 0.499779 0.543814
C5    C     C_2   0.515760 0.130781 0.511150 0.241523
C6    C     C_2   0.440276 0.450631 0.923152 -0.048472
C7    C     C_2   0.445385 0.436493 0.080620 0.373731
C8    C     C_R   0.498933 0.734386 0.498190 0.541202
C9    C     C_R   0.660241 0.499832 0.500201 0.548299
C10   C     C_3   0.971954 0.410125 0.589503 -0.098856
C11   C     C_3   0.027352 0.386928 0.460816 -0.135894
C12   C     C_3   0.082772 0.497197 0.498151 0.070922
C13   C     C_1   0.250047 0.498514 0.499224 -0.020028
C14   C     C_1   0.750002 0.499097 0.500555 -0.033545
C15   C     C_3   0.027930 0.520684 0.624093 0.308410
C16   C     C_3   0.464354 0.089282 0.733991 -0.023265
C17   C     C_3   0.467446 0.987460 0.844218 -0.379005
C18   C     C_3   0.365012 0.257476 0.086264 -0.004154
C19   C     C_3   0.321681 0.170735 0.189057 -0.339777
C20   C     C_3   0.999481 0.565529 0.850864 -0.010353
C21   C     C_3   0.038754 0.586911 0.992064 -0.368978
C22   C     C_3   0.608887 0.104049 0.197728 -0.014307
C23   C     C_3   0.972569 0.608889 0.537351 -0.100906
C24   C     C_3   0.623661 0.205490 0.089992 -0.351892
C25   C     C_3   0.917271 0.497863 0.500332 0.010972
C26   C     C_3   0.027916 0.584084 0.409044 -0.137001
C27   C     C_3   0.970977 0.473819 0.371748 -0.118043
C28   C     C_1   0.174477 0.497727 0.498677 -0.024376
C29   C     C_1   0.825586 0.498438 0.500566 -0.066548
C30   C     C_2   0.539106 0.932125 0.404200 -0.109089
Cu1   Cu    Cu3+1 0.500020 0.500020 0.638630 0.925859
Cu2   Cu    Cu3+1 0.499980 0.499980 0.361370 1.001555
H1    H     H_    0.384542 0.417419 0.871019 0.140032
H2    H     H_    0.459614 0.896551 0.797135 0.168144
H3    H     H_    0.554823 0.522216 0.893819 0.198115
H4    H     H_    0.421975 0.211028 0.046286 0.137868
H5    H     H_    0.319762 0.276086 0.000504 0.100710
H6    H     H_    0.262345 0.212280 0.226138 0.139925
H7    H     H_    0.306496 0.083123 0.138481 0.090226
H8    H     H_    0.363427 0.151763 0.279240 0.186407
H9    H     H_    0.947882 0.339457 0.663785 0.097100
H10   H     H_    0.945681 0.454120 0.267398 0.110185
H11   H     H_    0.948951 0.699451 0.569054 0.095291
H12   H     H_    0.537830 0.560577 0.102987 0.157824
H13   H     H_    0.956249 0.485305 0.860560 0.121897
H14   H     H_    0.962681 0.648377 0.820367 0.125002
H15   H     H_    0.082651 0.666268 0.986165 0.162305
H16   H     H_    0.988536 0.606289 0.068128 0.086086
H17   H     H_    0.073985 0.504380 0.027753 0.160960
H18   H     H_    0.445187 0.906300 0.557192 0.112900
H19   H     H_    0.606007 0.015489 0.143639 0.123534
H20   H     H_    0.663718 0.103822 0.270445 0.121314
H21   H     H_    0.572430 0.205853 0.011567 0.144738
H22   H     H_    0.625637 0.295654 0.140595 0.174528
H23   H     H_    0.052253 0.654366 0.334519 0.106874
H24   H     H_    0.684625 0.190649 0.036954 0.094768
H25   H     H_    0.581245 0.886501 0.333868 0.106940
H26   H     H_    0.051244 0.296679 0.428545 0.105092
H27   H     H_    0.401630 0.086540 0.681672 0.098813
H28   H     H_    0.471064 0.176145 0.790000 0.165029
H29   H     H_    0.528831 0.989897 0.899688 0.162586
H30   H     H_    0.416005 0.000120 0.920140 0.094904
N1    N     N_2   0.499090 0.498660 0.846910 -0.375559
N2    N     N_2   0.499070 0.498630 0.153040 -0.319572
O1    O     O_R   0.500010 0.321960 0.617040 -0.513522
O2    O     O_3   0.385992 0.366806 0.153586 -0.496436
O3    O     O_3   0.064010 0.544190 0.754475 -0.553459
O4    O     O_3   0.531760 0.125053 0.265767 -0.564767
O5    O     O_R   0.499990 0.321920 0.382900 -0.423369
O6    O     O_R   0.379090 0.500010 0.617050 -0.503120
O7    O     O_R   0.379060 0.499970 0.382910 -0.439160
O8    O     O_R   0.500010 0.678080 0.617100 -0.485303
O9    O     O_R   0.499990 0.678040 0.382960 -0.504813
O10   O     O_R   0.620940 0.500030 0.617090 -0.493518
O11   O     O_R   0.620910 0.499990 0.382950 -0.509316
O12   O     O_3   0.531992 0.074740 0.640204 -0.586502

loop_
_geom_bond_atom_site_label_1
_geom_bond_atom_site_label_2
_ccdc_geom_bond_type
C20   O3    S    
C3    O4    S    
C26   H23   S    
Cu2   O11   S    
C4    O6    A    
H12   N2    S    
C26   C27   S    
C12   C28   S    
C1    C5    S    
C18   H5    S    
C10   C15   S    
C24   H22   S    
C30   H25   S    
C23   H11   S    
C18   C19   S    
C16   H28   S    
C23   C26   S    
C4    C13   S    
C2    H18   S    
C17   H29   S    
Cu1   O6    S    
C16   C17   S    
C1    O1    A    
C13   C28   T    
C11   H26   S    
C20   H13   S    
C21   H16   S    
C15   C23   S    
C10   H9    S    
C21   H17   S    
Cu2   O7    S    
C25   C29   S    
C8    O8    A    
Cu1   N1    S    
Cu2   N2    S    
C19   H8    S    
Cu2   O9    S    
Cu1   O10   S    
C24   H21   S    
C1    O5    A    
C12   C26   S    
C16   H27   S    
C6    N1    D    
C3    C30   S    
C9    C14   S    
C19   H6    S    
C17   H30   S    
Cu1   Cu2   S    
C12   C15   S    
C11   C27   S    
C15   O3    S    
C22   O4    S    
Cu2   O5    S    
C19   H7    S    
C10   C25   S    
Cu1   O8    S    
C22   C24   S    
C25   C27   S    
C17   H2    S    
C14   C29   T    
C22   H20   S    
Cu1   O1    S    
C18   O2    S    
C16   O12   S    
C2    C8    S    
C3    C5    D    
C11   C12   S    
C6    C7    S    
C24   H24   S    
C6    H1    S    
C2    C30   D    
C5    O12   S    
C7    O2    S    
C27   H10   S    
C8    O9    A    
C23   C25   S    
C7    N2    D    
C10   C11   S    
C20   C21   S    
C9    O10   A    
H3    N1    S    
C9    O11   A    
C18   H4    S    
C4    O7    A    
C20   H14   S    
C22   H19   S    
C21   H15   S    
