data_mof_unit_31800.cif
_audit_creation_date              2013-03-05T15:51:31-0500
_audit_creation_method            fapswitch 2.2
_symmetry_space_group_name_H-M    P1
_symmetry_Int_Tables_number       1
_space_group_crystal_system       triclinic
_cell_length_a                    15.880579
_cell_length_b                    10.866269
_cell_length_c                    9.583231
_cell_angle_alpha                 90.337044
_cell_angle_beta                  89.99859
_cell_angle_gamma                 92.540402
_cell_volume                      1652.05380316

loop_
_atom_site_label
_atom_site_type_symbol
_atom_site_description
_atom_site_fract_x
_atom_site_fract_y
_atom_site_fract_z
_atom_type_partial_charge
O1    O     O_R   0.499990 0.319640 0.618810 -0.591666
O2    O     O_R   0.500000 0.319660 0.381240 -0.580487
C1    C     C_R   0.506770 0.263106 0.500381 0.794597
O3    O     O_R   0.379430 0.499990 0.618840 -0.576490
O4    O     O_R   0.379440 0.500020 0.381260 -0.574365
C2    C     C_R   0.340250 0.499725 0.500047 0.829501
Cu1   Cu    Cu3+1 0.499990 0.499990 0.640660 0.925579
Cu2   Cu    Cu3+1 0.500010 0.500010 0.359340 0.942336
O5    O     O_R   0.500000 0.680340 0.618760 -0.614198
O6    O     O_R   0.500010 0.680360 0.381190 -0.597849
O7    O     O_R   0.620560 0.499980 0.618740 -0.598870
O8    O     O_R   0.620570 0.500010 0.381160 -0.584383
C3    C     C_R   0.495587 0.737641 0.501504 0.796524
C4    C     C_R   0.659736 0.500587 0.499952 0.823071
C5    C     C_3   0.046686 0.436109 0.631992 -0.373283
C6    C     C_3   0.046602 0.432444 0.369381 -0.376308
C7    C     C_3   0.949009 0.432703 0.369351 -0.366258
H1    H     H_    0.922642 0.339852 0.635467 0.171920
H2    H     H_    0.067030 0.339454 0.635471 0.165410
H3    H     H_    0.071440 0.477543 0.272884 0.165065
H4    H     H_    0.066949 0.335725 0.368079 0.166543
H5    H     H_    0.922556 0.336109 0.368030 0.175866
H6    H     H_    0.927037 0.477935 0.272847 0.172468
C8    C     C_1   0.749444 0.501215 0.499935 -0.139023
C9    C     C_3   0.082722 0.501090 0.499946 0.320624
C10   C     C_3   0.949097 0.436379 0.631973 -0.373441
C11   C     C_3   0.917204 0.501521 0.499899 0.300036
C12   C     C_3   0.955349 0.635277 0.498383 -0.356664
C13   C     C_3   0.052968 0.635023 0.498423 -0.381186
C14   C     C_1   0.825025 0.501558 0.499902 -0.089817
C15   C     C_1   0.174929 0.500709 0.499991 -0.112167
C16   C     C_1   0.250514 0.500240 0.500031 -0.181155
H7    H     H_    0.077977 0.686397 0.591474 0.165911
H8    H     H_    0.077925 0.683782 0.404263 0.167620
H9    H     H_    0.933539 0.686769 0.591411 0.171681
H10   H     H_    0.071590 0.483879 0.727459 0.164386
H11   H     H_    0.927193 0.484295 0.727419 0.169061
H12   H     H_    0.933476 0.684140 0.404199 0.187697
H13   H     H_    0.498159 0.109554 0.279299 0.159235
C17   C     C_R   0.554428 0.122373 0.755127 -0.148583
H14   H     H_    0.588633 0.210562 0.754448 0.165879
C18   C     C_R   0.544249 0.064389 0.883627 -0.132951
H15   H     H_    0.566544 0.110097 0.978184 0.149757
C19   C     C_R   0.502491 0.949706 0.890552 -0.145172
H16   H     H_    0.489976 0.907353 0.990868 0.134956
C20   C     C_R   0.478922 0.887687 0.767945 -0.166421
H17   H     H_    0.443431 0.801561 0.780367 0.169259
C21   C     C_R   0.497714 0.939594 0.635258 0.091465
C22   C     C_R   0.523003 0.065392 0.630956 0.099973
C23   C     C_R   0.514656 0.129343 0.503179 -0.118029
C24   C     C_R   0.502396 0.063125 0.378635 -0.188930
H18   H     H_    0.490446 0.887487 0.281075 0.159874
C25   C     C_R   0.495326 0.935949 0.380076 -0.170590
C26   C     C_R   0.492620 0.872376 0.506877 -0.111848
H19   H     H_    0.406379 0.358121 0.128330 0.132462
C27   C     C_R   0.610839 0.665966 0.144823 -0.250881
H20   H     H_    0.616080 0.670350 0.254590 0.238356
C28   C     C_R   0.664470 0.749633 0.073689 0.320967
C29   C     C_R   0.664156 0.747602 0.928998 -0.270693
H21   H     H_    0.705259 0.810554 0.870507 0.199791
C30   C     C_R   0.610998 0.664957 0.856854 -0.215261
H22   H     H_    0.616834 0.671685 0.746959 0.225445
C31   C     C_R   0.554464 0.581411 0.925661 0.203310
C32   C     C_R   0.554436 0.581602 0.075116 0.154089
N1    N     N_R   0.500800 0.501210 0.147910 -0.185044
C33   C     C_R   0.448528 0.422028 0.073431 -0.058863
H23   H     H_    0.406403 0.358180 0.869637 0.141500
C34   C     C_R   0.448529 0.422088 0.925431 -0.066893
N2    N     N_R   0.500820 0.501290 0.852040 -0.194953
N3    N     N_R   0.719304 0.836272 0.148677 0.127893
O9    O     O_R   0.719265 0.839758 0.284492 -0.388641
O10   O     O_R   0.769058 0.913830 0.081658 -0.368743

loop_
_geom_bond_atom_site_label_1
_geom_bond_atom_site_label_2
_geom_bond_distance
_ccdc_geom_bond_type
Cu1   N2    2.025710 S    
O4    Cu2   1.926210 S    
C2    C16   1.425309 S    
C27   C32   1.417376 A    
C10   H11   1.113184 S    
Cu1   O5    1.972157 S    
C6    H4    1.113132 S    
C7    H5    1.113149 S    
Cu1   O7    1.926211 S    
Cu2   O8    1.925953 S    
H13   C24   1.083491 S    
C15   C16   1.200580 T    
H1    C10   1.113156 S    
C12   H12   1.113208 S    
C6    H3    1.113151 S    
C32   N1    1.384357 A    
C22   C23   1.420597 A    
C17   C18   1.392722 A    
C23   C24   1.399165 A    
O8    C4    1.297111 A    
C31   N2    1.381499 A    
O2    Cu2   1.972158 S    
C29   H21   1.083097 S    
C25   C26   1.401042 A    
C27   H20   1.055847 S    
C11   C14   1.463875 S    
C5    H2    1.113137 S    
C12   C13   1.550370 S    
C10   C11   1.549818 S    
C7    H6    1.113189 S    
C18   C19   1.387372 A    
O3    Cu1   1.925951 S    
O4    C2    1.297321 A    
C13   H8    1.113118 S    
O3    C2    1.297304 A    
C17   H14   1.080436 S    
C1    C23   1.464807 S    
C19   C20   1.393978 A    
O2    C1    1.306496 A    
C20   C21   1.420417 A    
N1    C33   1.366871 A    
C9    C13   1.550082 S    
C30   H22   1.059890 S    
O7    C4    1.297180 A    
C8    C14   1.200109 T    
C29   C30   1.386596 A    
C5    C9    1.549850 S    
C33   C34   1.418324 A    
C24   C25   1.381660 A    
H23   C34   1.081728 S    
C7    C11   1.549807 S    
C6    C7    1.549955 S    
C13   H7    1.113118 S    
C5    H10   1.113148 S    
Cu2   N1    2.026336 S    
N3    O9    1.301878 A    
H18   C25   1.083490 S    
Cu2   O6    1.969660 S    
C3    C26   1.467509 S    
C18   H15   1.082727 S    
C4    C8    1.424332 S    
C6    C9    1.549881 S    
C21   C26   1.427544 A    
Cu1   Cu2   2.695955 S    
O5    C3    1.291271 A    
C20   H17   1.078066 S    
C21   C22   1.408392 A    
C5    C10   1.549897 S    
N3    O10   1.301680 A    
O1    C1    1.294107 A    
C28   C29   1.386659 A    
O1    Cu1   1.969661 S    
H19   C33   1.081721 S    
C9    C15   1.464483 S    
C34   N2    1.366991 A    
C30   C31   1.414119 A    
C28   N3    1.442358 S    
C19   H16   1.082862 S    
C17   C22   1.418581 A    
C12   H9    1.113155 S    
C27   C28   1.398311 A    
C31   C32   1.432251 A    
C11   C12   1.549785 S    
O6    C3    1.310418 A    
