data_mof_unit_38111.cif
_audit_creation_date              2012-12-11T16:08:36-0500
_audit_creation_method            fapswitch 2.2
_symmetry_space_group_name_H-M    P1
_symmetry_Int_Tables_number       1
_space_group_crystal_system       triclinic
_cell_length_a                    12.887108
_cell_length_b                    13.331334
_cell_length_c                    27.663449
_cell_angle_alpha                 94.96959
_cell_angle_beta                  89.839815
_cell_angle_gamma                 119.074229
_cell_volume                      4133.93652746

loop_
_atom_site_label
_atom_site_type_symbol
_atom_type_description
_atom_site_fract_x
_atom_site_fract_y
_atom_site_fract_z
_atom_type_partial_charge
C1    C     C_R   0.630176 0.895150 0.427668 0.543841
C2    C     C_R   0.644591 0.414009 0.237417 -0.081174
C3    C     C_R   0.637709 0.399290 0.286961 -0.097050
C4    C     C_R   0.677541 0.329039 0.305647 0.035510
C5    C     C_R   0.690670 0.358075 0.206255 0.041437
C6    C     C_1   0.697732 0.375159 0.155435 -0.049647
C7    C     C_1   0.658732 0.303431 0.355407 -0.068140
C8    C     C_1   0.704740 0.398305 0.113969 -0.008894
C9    C     C_R   0.151057 0.745509 0.355394 -0.131896
C10   C     C_R   0.125220 0.732226 0.305865 0.026190
C11   C     C_R   0.101975 0.712539 0.205083 0.009446
C12   C     C_R   0.601846 0.222767 0.440754 0.548597
C13   C     C_R   0.077019 0.615584 0.229181 -0.137823
C14   C     C_R   0.088124 0.625283 0.279456 -0.130982
C15   C     C_R   0.092606 0.702844 0.155078 -0.130434
C16   C     C_R   0.106685 0.796103 0.130362 -0.014173
C17   C     C_R   0.210543 0.949290 0.358011 -0.137089
C18   C     C_R   0.184717 0.937433 0.308352 -0.040412
C19   C     C_R   0.146031 0.829420 0.281877 0.048695
C20   C     C_R   0.206608 0.033655 0.284255 -0.111734
C21   C     C_R   0.191441 0.023825 0.233608 0.278593
C22   C     C_R   0.156492 0.916722 0.206714 0.022307
C23   C     C_R   0.267836 0.876299 0.426326 0.548695
C24   C     C_R   0.133984 0.819547 0.231236 0.018253
C25   C     C_R   0.140790 0.903459 0.155966 -0.117383
C26   C     C_R   0.201821 0.855220 0.380624 -0.001658
C27   C     C_R   0.758160 0.940846 0.356218 -0.001530
C28   C     C_R   0.749574 0.935542 0.305449 0.031215
C29   C     C_R   0.736995 0.923154 0.203901 0.022569
C30   C     C_R   0.818937 0.024757 0.230496 -0.146860
C31   C     C_R   0.828132 0.029658 0.280501 -0.138958
C32   C     C_R   0.743453 0.912063 0.153823 -0.129562
C33   C     C_R   0.676292 0.804526 0.127488 -0.023003
C34   C     C_R   0.626509 0.900085 0.565473 0.538726
C35   C     C_R   0.582607 0.748933 0.354928 0.000175
C36   C     C_R   0.577137 0.740243 0.303248 -0.029596
C37   C     C_R   0.658809 0.835475 0.279006 0.016844
C38   C     C_R   0.489462 0.641824 0.274857 -0.116768
C39   C     C_R   0.487799 0.633621 0.224024 0.260329
C40   C     C_R   0.574109 0.725080 0.200328 0.017281
C41   C     C_R   0.655184 0.828353 0.227801 0.020203
C42   C     C_R   0.585699 0.713573 0.149977 -0.121055
C43   C     C_R   0.661402 0.857356 0.380373 0.014358
C44   C     C_R   0.749085 0.329197 0.648589 -0.139604
C45   C     C_R   0.599186 0.222086 0.580075 0.546345
C46   C     C_R   0.776839 0.377428 0.697037 0.015643
C47   C     C_R   0.813645 0.447838 0.797344 -0.042278
C48   C     C_R   0.897549 0.428491 0.771952 -0.117754
C49   C     C_R   0.882011 0.397097 0.721577 0.277861
C50   C     C_R   0.822951 0.469024 0.848097 -0.135191
C51   C     C_R   0.734208 0.481791 0.873149 -0.004887
C52   C     C_R   0.547610 0.301854 0.656331 0.004201
C53   C     C_R   0.587659 0.380063 0.698608 0.022223
C54   C     C_R   0.695198 0.402645 0.722046 -0.015746
C55   C     C_R   0.516890 0.423362 0.721784 0.022027
C56   C     C_R   0.272195 0.879820 0.563552 0.539620
C57   C     C_R   0.537461 0.459825 0.771426 -0.113860
C58   C     C_R   0.632444 0.463104 0.796813 0.001456
C59   C     C_R   0.715473 0.440685 0.771813 0.036910
C60   C     C_R   0.643538 0.485549 0.847082 -0.139045
C61   C     C_R   0.634196 0.288280 0.628355 -0.021981
C62   C     C_1   0.226800 0.864811 0.611122 -0.033494
C63   C     C_R   0.084201 0.754638 0.720283 -0.129102
C64   C     C_R   0.070966 0.743705 0.769920 -0.139223
C65   C     C_R   0.258176 0.919816 0.787683 -0.082219
C66   C     C_R   0.272380 0.930020 0.737888 -0.106938
C67   C     C_1   0.636677 0.273017 0.395696 -0.028457
C68   C     C_R   0.184850 0.847899 0.704166 0.030534
C69   C     C_R   0.157131 0.826532 0.803693 0.022477
C70   C     C_1   0.136844 0.815997 0.854496 -0.071922
C71   C     C_1   0.202690 0.856080 0.653127 -0.075890
C72   C     C_1   0.108046 0.799033 0.895666 -0.017061
C73   C     C_1   0.638134 0.872989 0.613345 -0.007691
C74   C     C_R   0.743368 0.841312 0.726530 -0.112508
C75   C     C_R   0.750131 0.830804 0.776216 -0.011677
C76   C     C_R   0.560736 0.829573 0.785617 0.278236
C77   C     C_R   0.557930 0.844136 0.735996 -0.101032
C78   C     C_R   0.725348 0.274483 0.274640 -0.106545
C79   C     C_R   0.647946 0.847660 0.706479 -0.029464
C80   C     C_R   0.657510 0.823783 0.805870 0.057446
C81   C     C_1   0.662230 0.807954 0.856588 -0.014326
C82   C     C_1   0.643329 0.858983 0.655475 -0.058150
C83   C     C_1   0.678852 0.794008 0.897676 -0.018654
C84   C     C_R   0.061663 0.770129 0.080013 0.548616
C85   C     C_R   0.716905 0.441361 0.067382 0.560896
C86   C     C_R   0.719084 0.782397 0.080820 0.548236
C87   C     C_R   0.057896 0.766417 0.941649 0.539590
C88   C     C_R   0.735312 0.494131 0.926369 0.568244
C89   C     C_R   0.732253 0.289226 0.225037 -0.107077
C90   C     C_R   0.715042 0.776882 0.943685 0.534195
Cr1   Cr    Cr6+3 0.416430 0.829200 0.492370 1.006851
Cr2   Cr    Cr6+3 0.674630 0.087020 0.504170 1.007136
Cr3   Cr    Cr6+3 0.408920 0.083740 0.503490 0.997283
Cr4   Cr    Cr6+3 0.914010 0.832750 0.013970 1.020199
Cr5   Cr    Cr6+3 0.922310 0.578600 0.003000 1.018183
Cr6   Cr    Cr6+3 0.656280 0.574630 0.003870 1.024749
H1    H     H_    0.755155 0.218911 0.288661 0.110018
H2    H     H_    0.238762 0.117413 0.304493 0.120174
H3    H     H_    0.248313 0.034140 0.377833 0.131870
H4    H     H_    0.811042 0.983801 0.136276 0.127482
H5    H     H_    0.879985 0.099012 0.212470 0.083095
H6    H     H_    0.896615 0.108971 0.299018 0.109427
H7    H     H_    0.531247 0.631292 0.129082 0.178116
H8    H     H_    0.419077 0.570150 0.290851 0.115748
H9    H     H_    0.768895 0.246334 0.201383 0.104820
H10   H     H_    0.896514 0.471318 0.868005 0.137866
H11   H     H_    0.812628 0.313958 0.628041 0.172682
H12   H     H_    0.973701 0.434610 0.791330 0.118358
H13   H     H_    0.578512 0.501514 0.866152 0.129958
H14   H     H_    0.478107 0.484097 0.790459 0.105064
H15   H     H_    0.016188 0.690551 0.694606 0.106062
H16   H     H_    0.613100 0.468272 0.223328 0.145044
H17   H     H_    0.991937 0.672245 0.782094 0.117500
H18   H     H_    0.325456 0.984230 0.813513 0.138344
H19   H     H_    0.351675 0.001460 0.725689 0.103131
H20   H     H_    0.813469 0.846104 0.703432 0.121356
H21   H     H_    0.485029 0.851483 0.720501 0.125134
H22   H     H_    0.599435 0.440885 0.310457 0.111782
H23   H     H_    0.065425 0.618935 0.135743 0.137083
H24   H     H_    0.142135 0.672606 0.373286 0.120870
H25   H     H_    0.050195 0.532587 0.209097 0.094918
H26   H     H_    0.071599 0.550240 0.297524 0.100489
H27   H     H_    0.150913 0.974553 0.136473 0.162395
O1    O     O_R   0.296680 0.802170 0.437540 -0.520381
O2    O     O_R   0.662610 0.183990 0.557860 -0.500547
O3    O     O_R   0.500730 0.201280 0.562180 -0.517495
O4    O     O_R   0.312500 0.978850 0.548170 -0.511868
O5    O     O_3   0.499990 0.999990 0.500010 -0.235694
O6    O     O_R   0.820790 0.857990 0.068830 -0.514865
O7    O     O_R   0.016700 0.827330 0.062850 -0.495964
O8    O     O_R   0.041970 0.673520 0.060040 -0.520232
O9    O     O_R   0.817980 0.483660 0.048840 -0.495088
O10   O     O_R   0.637200 0.461990 0.052510 -0.494285
O11   O     O_R   0.664790 0.681920 0.057970 -0.500995
O12   O     O_R   0.525380 0.838530 0.443500 -0.498840
O13   O     O_R   0.815840 0.852920 0.961840 -0.506156
O14   O     O_R   0.012100 0.822630 0.963670 -0.494360
O15   O     O_R   0.037010 0.668460 0.953040 -0.521621
O16   O     O_R   0.813390 0.478970 0.949660 -0.498150
O17   O     O_R   0.632250 0.456930 0.945520 -0.506968
O18   O     O_R   0.660200 0.677230 0.958780 -0.520831
O19   O     O_3   0.830870 0.661990 0.006950 -0.270541
O20   O     O_R   0.702130 0.995190 0.446810 -0.520280
O21   O     O_R   0.661770 0.181390 0.458760 -0.499730
O22   O     O_R   0.499820 0.198480 0.455280 -0.511588
O23   O     O_R   0.311660 0.976250 0.449080 -0.504133
O24   O     O_R   0.297580 0.804960 0.544440 -0.506870
O25   O     O_R   0.526220 0.841130 0.542590 -0.499920
O26   O     O_R   0.703030 0.997990 0.553710 -0.507393
O27   O     O_3   0.222655 0.121624 0.210335 -0.555939
C91   C     C_3   0.125529 0.142496 0.210432 -0.127805
H28   H     H_    0.047146 0.069929 0.189841 0.115318
H29   H     H_    0.102281 0.158240 0.248075 0.105106
H30   H     H_    0.150416 0.221236 0.191965 0.148963
C92   C     C_3   0.874935 0.027009 0.383844 -0.249332
C93   C     C_3   0.891476 0.149584 0.392924 -0.391848
H31   H     H_    0.972750 0.211896 0.375728 0.100984
H32   H     H_    0.814159 0.154673 0.378212 0.170628
H33   H     H_    0.902967 0.177261 0.432480 0.161551
H34   H     H_    0.882347 0.995618 0.418926 0.152294
H35   H     H_    0.950540 0.029816 0.363339 0.124742
O28   O     O_3   0.405865 0.532578 0.197650 -0.570729
C94   C     C_3   0.296499 0.532319 0.194843 -0.127469
H36   H     H_    0.305638 0.609014 0.178004 0.126369
H37   H     H_    0.258312 0.527799 0.231223 0.111804
H38   H     H_    0.232568 0.454466 0.171449 0.134529
C95   C     C_3   0.514028 0.643622 0.383304 -0.269671
C96   C     C_3   0.595084 0.630105 0.419495 -0.435044
H39   H     H_    0.670339 0.628175 0.400553 0.151477
H40   H     H_    0.630580 0.701229 0.449201 0.152604
H41   H     H_    0.543829 0.547775 0.436128 0.136757
H42   H     H_    0.440132 0.647821 0.402240 0.171717
H43   H     H_    0.473163 0.561622 0.359733 0.124049
O29   O     O_3   0.961047 0.369729 0.697960 -0.569486
C97   C     C_3   0.064764 0.472861 0.690138 -0.135554
H44   H     H_    0.044707 0.524376 0.665983 0.116421
H45   H     H_    0.128362 0.450634 0.671569 0.140638
H46   H     H_    0.109378 0.525233 0.724896 0.109163
C98   C     C_3   0.424523 0.438080 0.694281 -0.284363
C99   C     C_3   0.450814 0.562922 0.698702 -0.445030
H47   H     H_    0.447761 0.593608 0.736868 0.142775
H48   H     H_    0.539918 0.617492 0.684836 0.173986
H49   H     H_    0.383651 0.570673 0.676627 0.130913
H50   H     H_    0.425475 0.416161 0.655007 0.160538
H51   H     H_    0.335021 0.382621 0.707820 0.144221
C100  C     C_3   0.420177 0.199762 0.655650 -0.236612
C101  C     C_3   0.326865 0.204580 0.622850 -0.393774
H52   H     H_    0.267265 0.226243 0.644971 0.114440
H53   H     H_    0.367616 0.268134 0.595760 0.167566
H54   H     H_    0.269163 0.118545 0.603223 0.166613
H55   H     H_    0.422067 0.118355 0.644865 0.151482
H56   H     H_    0.387622 0.189444 0.693154 0.129542
C102  C     C_3   0.858453 0.830233 0.796743 -0.276324
C103  C     C_3   0.944592 0.947685 0.823086 -0.412602
H57   H     H_    0.973426 0.015608 0.797669 0.160121
H58   H     H_    0.902544 0.969725 0.854243 0.169022
H59   H     H_    0.024281 0.946308 0.837124 0.153341
H60   H     H_    0.832223 0.761460 0.821622 0.147027
H61   H     H_    0.905589 0.810781 0.766942 0.151318
O30   O     O_3   0.473672 0.829288 0.815048 -0.558500
C104  C     C_3   0.370472 0.720729 0.807098 -0.126189
H62   H     H_    0.303209 0.718555 0.832691 0.158128
H63   H     H_    0.388618 0.649839 0.814616 0.101591
H64   H     H_    0.331359 0.705890 0.769623 0.109714

loop_
_geom_bond_atom_site_label_1
_geom_bond_atom_site_label_2
_ccdc_geom_bond_type
C66   C68   A    
C14   H26   S    
C65   H18   S    
C103  H58   S    
C35   C36   A    
C52   C53   A    
Cr2   O2    S    
Cr1   O24   S    
C97   H45   S    
C53   C54   A    
C92   H35   S    
C46   C49   A    
C2    H16   S    
Cr4   O7    S    
C37   C41   A    
C6    C8    T    
C33   C42   A    
C36   C37   A    
C94   H37   S    
C8    C85   S    
C29   C32   A    
C77   H21   S    
C52   C61   A    
C85   O9    A    
C5    C6    S    
C56   O4    A    
C103  H59   S    
C58   C60   A    
C15   C16   A    
C11   C24   A    
C16   C84   S    
C13   H25   S    
C7    C67   T    
C18   C19   A    
C104  H62   S    
C91   H30   S    
C84   O7    A    
C100  H55   S    
C23   C26   S    
Cr2   O20   S    
O29   C97   S    
C88   O17   A    
C101  H54   S    
C38   H8    S    
C60   H13   S    
Cr6   O18   S    
Cr3   O3    S    
C11   C15   A    
C1    C43   S    
C96   H41   S    
C94   H36   S    
C44   C46   A    
O30   C104  S    
C22   C25   A    
C86   O11   A    
C47   C48   A    
C35   C95   S    
C91   H28   S    
Cr3   O22   S    
C47   C50   A    
C35   C43   A    
C75   C80   A    
C45   O3    A    
C18   C20   A    
C99   H49   S    
C95   H43   S    
C45   C61   S    
C40   C42   A    
C103  H57   S    
C13   C14   A    
C42   H7    S    
Cr5   O8    S    
C104  H63   S    
C52   C100  S    
C87   O14   A    
C4    C7    S    
Cr2   O5    S    
C9    C10   A    
C49   O29   S    
C81   C83   T    
C34   O26   A    
C99   H48   S    
C9    C26   A    
C17   C18   A    
C97   H46   S    
C54   C59   A    
C53   C55   A    
C78   C89   A    
C27   C92   S    
C38   C39   A    
C12   C67   S    
C92   C93   S    
Cr4   O6    S    
C28   C31   A    
C66   H19   S    
Cr4   O19   S    
C31   H6    S    
C96   H39   S    
C94   H38   S    
C76   C77   A    
C85   O10   A    
Cr1   O5    S    
C45   O2    A    
C95   C96   S    
C63   H15   S    
Cr6   O11   S    
C58   C59   A    
C102  H61   S    
Cr6   O10   S    
C47   C59   A    
C17   H3    S    
C34   O25   A    
C12   O21   A    
C93   H31   S    
C12   O22   A    
C51   C88   S    
C33   C86   S    
Cr3   O4    S    
C88   O16   A    
C4    C78   A    
C29   C30   A    
C1    O20   A    
C3    H22   S    
C27   C43   A    
C90   O13   A    
Cr4   O13   S    
C57   H14   S    
C10   C19   A    
C74   H20   S    
C46   C54   A    
C78   H1    S    
C50   C51   A    
C77   C79   A    
Cr1   O12   S    
Cr3   O23   S    
C64   C69   A    
C39   O28   S    
C25   H27   S    
C23   O1    A    
C98   C99   S    
C75   C102  S    
C40   C41   A    
C65   C66   A    
C74   C79   A    
C55   C57   A    
C76   O30   S    
C23   O23   A    
C104  H64   S    
C56   C62   S    
C2    C5    A    
C17   C26   A    
C87   O15   A    
C3    C4    A    
C73   C82   T    
C39   C40   A    
C72   C87   S    
C99   H47   S    
O28   C94   S    
C98   H50   S    
C44   H11   S    
C16   C25   A    
Cr4   O14   S    
C83   C90   S    
C63   C68   A    
C48   C49   A    
Cr5   O15   S    
C64   H17   S    
C29   C41   A    
C92   H34   S    
C55   C98   S    
C93   H33   S    
C76   C80   A    
C80   C81   S    
Cr5   O9    S    
Cr6   O17   S    
C79   C82   S    
Cr1   O25   S    
C86   O6    A    
C95   H42   S    
C98   H51   S    
C44   C61   A    
C84   O8    A    
Cr5   O16   S    
C102  H60   S    
Cr1   O1    S    
C32   C33   A    
C56   O24   A    
C93   H32   S    
C19   C24   A    
Cr3   O5    S    
C101  H52   S    
C97   H44   S    
C1    O12   A    
C36   C38   A    
C11   C13   A    
C30   C31   A    
C21   O27   S    
C57   C58   A    
C48   H12   S    
C28   C37   A    
C68   C71   S    
C65   C69   A    
C30   H5    S    
C96   H40   S    
C15   H23   S    
C62   C71   T    
C2    C3    A    
C22   C24   A    
C91   H29   S    
C100  H56   S    
C69   C70   S    
Cr2   O21   S    
C101  H53   S    
C90   O18   A    
C34   C73   S    
Cr6   O19   S    
C63   C64   A    
C32   H4    S    
C20   H2    S    
C20   C21   A    
Cr5   O19   S    
C102  C103  S    
C89   H9    S    
Cr2   O26   S    
C50   H10   S    
C9    H24   S    
O27   C91   S    
C70   C72   T    
C51   C60   A    
C100  C101  S    
C21   C22   A    
C5    C89   A    
C74   C75   A    
C10   C14   A    
C27   C28   A    
