data_mof_unit_61230.cif
_audit_creation_date              2013-03-05T16:46:29-0500
_audit_creation_method            fapswitch 2.2
_symmetry_space_group_name_H-M    P1
_symmetry_Int_Tables_number       1
_space_group_crystal_system       triclinic
_cell_length_a                    15.837226
_cell_length_b                    17.102322
_cell_length_c                    27.816119
_cell_angle_alpha                 90.970379
_cell_angle_beta                  92.962112
_cell_angle_gamma                 97.279496
_cell_volume                      7461.28047341

loop_
_atom_site_label
_atom_site_type_symbol
_atom_site_description
_atom_site_fract_x
_atom_site_fract_y
_atom_site_fract_z
_atom_type_partial_charge
O1    O     O_R   0.420530 0.382500 0.497820 -0.510038
O2    O     O_R   0.579470 0.617500 0.502180 -0.510107
O3    O     O_R   0.563720 0.388950 0.501760 -0.605918
O4    O     O_R   0.436280 0.611050 0.498240 -0.605915
C1    C     C_R   0.488836 0.348553 0.500815 0.851214
C2    C     C_R   0.511164 0.651447 0.499184 0.851125
O5    O     O_R   0.428410 0.496790 0.428290 -0.560292
O6    O     O_R   0.571590 0.503210 0.571710 -0.560285
O7    O     O_R   0.571600 0.503240 0.432230 -0.587015
O8    O     O_R   0.428400 0.496760 0.567770 -0.586893
C3    C     C_R   0.499849 0.500028 0.407366 0.841038
C4    C     C_R   0.500154 0.499986 0.592633 0.840942
Cu1   Cu    Cu3+1 0.415220 0.496180 0.497670 1.018468
Cu2   Cu    Cu3+1 0.584780 0.503820 0.502330 1.018366
C5    C     C_R   0.488568 0.429894 0.176993 0.583832
C6    C     C_R   0.518752 0.569948 0.823249 0.586781
O9    O     O_2   0.477920 0.361621 0.200892 -0.511033
O10   O     O_2   0.536407 0.637800 0.799558 -0.508953
N1    N     N_R   0.499268 0.500172 0.202058 -0.458598
N2    N     N_R   0.500813 0.500084 0.797966 -0.458578
C7    C     C_R   0.510669 0.570443 0.179114 0.581217
C8    C     C_R   0.482035 0.430320 0.820712 0.577638
C9    C     C_R   0.421725 0.498594 0.276600 0.312925
C10   C     C_R   0.578172 0.500114 0.723367 0.313553
C11   C     C_R   0.422328 0.498605 0.326796 -0.200783
C12   C     C_R   0.577536 0.500124 0.673169 -0.200782
C13   C     C_R   0.576123 0.501841 0.330962 -0.188042
C14   C     C_R   0.424074 0.499527 0.669062 -0.188435
C15   C     C_R   0.575606 0.501865 0.280844 -0.147080
C16   C     C_R   0.424621 0.499569 0.719180 -0.146304
C17   C     C_R   0.498675 0.500185 0.253529 0.294097
C18   C     C_R   0.501407 0.499985 0.746482 0.292810
C19   C     C_R   0.499847 0.500173 0.101950 -0.040433
C20   C     C_R   0.500106 0.500167 0.898083 -0.040495
C21   C     C_R   0.488445 0.428572 0.126511 -0.027379
C22   C     C_R   0.518849 0.571292 0.873731 -0.028001
C23   C     C_R   0.477592 0.357371 0.100337 -0.126710
C24   C     C_R   0.537754 0.641989 0.900134 -0.125770
C25   C     C_R   0.511198 0.571769 0.128678 -0.027979
C26   C     C_R   0.481438 0.429034 0.871147 -0.027604
C27   C     C_R   0.499442 0.500141 0.354406 -0.088586
C28   C     C_R   0.500579 0.499914 0.645592 -0.088098
H1    H     H_    0.636494 0.503077 0.351289 0.176979
H2    H     H_    0.363825 0.499323 0.648756 0.176360
H3    H     H_    0.635036 0.503132 0.263119 0.157634
H4    H     H_    0.365324 0.499380 0.736921 0.158045
H5    H     H_    0.469792 0.301486 0.118405 0.192555
H6    H     H_    0.553462 0.697366 0.882292 0.193022
C29   C     C_R   0.483022 0.427596 0.973214 0.043246
C30   C     C_R   0.513699 0.572969 0.026728 0.042690
C31   C     C_R   0.516912 0.572766 0.975725 0.042534
C32   C     C_R   0.486187 0.427390 0.024398 0.043219
C33   C     C_R   0.500009 0.500178 0.949224 0.074724
C34   C     C_R   0.499915 0.500178 0.050808 0.074691
C35   C     C_R   0.462809 0.357493 0.944879 -0.189272
C36   C     C_R   0.523285 0.643755 0.054760 -0.189562
C37   C     C_R   0.462291 0.358363 0.894958 -0.127331
C38   C     C_R   0.522225 0.642972 0.104636 -0.126522
O11   O     O_2   0.464366 0.362469 0.794571 -0.511440
O12   O     O_2   0.521275 0.638710 0.205065 -0.510440
C39   C     C_R   0.476650 0.356598 0.050387 -0.189239
C40   C     C_R   0.537069 0.642878 0.950037 -0.189771
H7    H     H_    0.445550 0.300556 0.959984 0.145942
H8    H     H_    0.530382 0.701358 0.039371 0.145694
H9    H     H_    0.469681 0.299002 0.033373 0.145725
H10   H     H_    0.554165 0.699840 0.967334 0.145905
C41   C     C_R   0.481723 0.262343 0.502112 -0.086987
C42   C     C_R   0.518277 0.737656 0.497885 -0.086781
C43   C     C_R   0.546138 0.224793 0.482402 -0.262924
C44   C     C_R   0.453863 0.775208 0.517597 -0.263121
C45   C     C_R   0.542993 0.143320 0.483491 -0.133620
C46   C     C_R   0.457008 0.856681 0.516505 -0.133720
C47   C     C_R   0.474993 0.097599 0.504700 0.331817
C48   C     C_R   0.525007 0.902400 0.495294 0.331882
C49   C     C_R   0.410625 0.134882 0.524154 -0.194861
C50   C     C_R   0.589373 0.865115 0.475839 -0.194789
C51   C     C_R   0.413307 0.216686 0.523325 0.256956
C52   C     C_R   0.586691 0.783312 0.476670 0.256931
N3    N     N_2   0.468937 0.014408 0.507688 -0.235829
N4    N     N_2   0.531063 0.985591 0.492305 -0.235817
H11   H     H_    0.358635 0.099921 0.540799 0.179421
H12   H     H_    0.641362 0.900075 0.459193 0.179423
N5    N     N_R   0.712130 0.509560 0.505840 -0.190757
N6    N     N_R   0.287870 0.490440 0.494160 -0.190628
C53   C     C_R   0.749918 0.460984 0.476431 -0.000048
C54   C     C_R   0.250087 0.539050 0.523550 0.000148
C55   C     C_R   0.839434 0.462932 0.477564 -0.263350
C56   C     C_R   0.160572 0.537109 0.522416 -0.263363
C57   C     C_R   0.891731 0.515784 0.509451 0.341800
C58   C     C_R   0.108270 0.484229 0.490548 0.341845
C59   C     C_R   0.851529 0.564720 0.538956 -0.291565
C60   C     C_R   0.148465 0.435258 0.461063 -0.291449
C61   C     C_R   0.762461 0.561322 0.536964 0.460139
C62   C     C_R   0.237532 0.438647 0.463056 0.460094
N7    N     N_2   0.983377 0.522579 0.513531 -0.213252
N8    N     N_2   0.016624 0.477438 0.486467 -0.213247
H13   H     H_    0.133107 0.576537 0.546221 0.172383
H14   H     H_    0.866903 0.423532 0.453742 0.172495
H15   H     H_    0.889817 0.605965 0.563777 0.184015
H16   H     H_    0.110173 0.393988 0.436258 0.184055
H17   H     H_    0.406122 0.883450 0.532170 0.171201
H18   H     H_    0.593881 0.116552 0.467827 0.171267
Br1   Br    Br    0.324827 0.261625 0.554792 -0.442597
Br2   Br    Br    0.675168 0.738369 0.445202 -0.443769
H19   H     H_    0.289375 0.579761 0.548148 0.141984
H20   H     H_    0.710634 0.420296 0.451818 0.142345
Br3   Br    Br    0.716767 0.632304 0.579620 -0.438750
Br4   Br    Br    0.283212 0.367599 0.420438 -0.439582
H21   H     H_    0.637228 0.500040 0.655870 0.205421
H22   H     H_    0.362477 0.497543 0.344063 0.206103
Br5   Br    Br    0.684424 0.499435 0.759463 -0.420092
Br6   Br    Br    0.315206 0.496674 0.240402 -0.420261
H23   H     H_    0.446612 0.302983 0.875039 0.192712
H24   H     H_    0.530000 0.698854 0.124329 0.192795
H25   H     H_    0.400950 0.741419 0.534154 0.170236
H26   H     H_    0.599052 0.258583 0.465846 0.170406

loop_
_geom_bond_atom_site_label_1
_geom_bond_atom_site_label_2
_geom_bond_distance
_ccdc_geom_bond_type
C43   H26   1.083730 S    
C13   C15   1.393691 A    
N7    N8    1.250710 D    
C41   C51   1.413922 A    
C1    C41   1.465581 S    
N1    C17   1.432231 S    
O5    C3    1.294269 A    
C9    Br6   1.915725 S    
C31   C40   1.416271 A    
Cu1   N6    2.004017 S    
C62   Br4   1.915128 S    
C30   C34   1.421477 A    
C48   C50   1.395930 A    
O1    C1    1.290637 A    
C50   C52   1.394907 A    
N1    C7    1.366425 A    
N6    C54   1.367892 A    
C32   C39   1.416263 A    
C54   C56   1.412549 A    
C46   H17   1.082579 S    
N5    C61   1.375670 A    
C14   C28   1.405055 A    
O4    Cu1   1.950199 S    
C43   C45   1.388850 A    
C4    C28   1.472800 S    
C19   C25   1.408519 A    
C35   H7    1.075966 S    
C36   H8    1.075926 S    
C23   H5    1.083558 S    
C24   H6    1.083568 S    
C56   H13   1.082284 S    
C6    N2    1.366677 A    
C55   H14   1.082284 S    
C2    C42   1.465576 S    
C48   N4    1.417954 S    
Cu1   Cu2   2.668252 S    
C47   C49   1.395928 A    
O2    C2    1.290635 A    
C10   Br5   1.915875 S    
Cu2   N5    2.004017 S    
C5    C21   1.403918 A    
C32   C34   1.421448 A    
C53   C55   1.412545 A    
C42   C52   1.413921 A    
C40   H10   1.075937 S    
C52   Br2   1.922840 S    
C7    O12   1.349690 S    
O4    C2    1.293449 A    
C11   C27   1.405788 A    
C8    O11   1.349706 S    
C45   C47   1.409660 A    
C49   H11   1.083436 S    
C37   H23   1.083565 S    
C29   C35   1.416242 A    
C25   C38   1.395128 A    
C14   H2    1.083013 S    
C30   C36   1.416281 A    
C15   H3    1.082868 S    
C31   C33   1.421479 A    
C9    C17   1.403838 A    
C57   N7    1.439727 S    
C5    N1    1.366476 A    
O7    Cu2   1.950018 S    
C10   C18   1.404147 A    
C39   H9    1.075959 S    
C59   C61   1.402590 A    
C49   C51   1.394905 A    
C13   C27   1.405153 A    
C58   C60   1.394690 A    
C7    C25   1.403945 A    
O6    C4    1.294228 A    
C29   C32   1.422117 A    
C8    C26   1.403958 A    
C60   C62   1.402585 A    
C30   C31   1.422193 A    
C47   N3    1.417952 S    
C6    O10   1.349720 S    
N6    C62   1.375674 A    
O7    C3    1.293943 A    
C12   H21   1.082868 S    
O3    Cu2   1.950197 S    
O8    C4    1.293948 A    
C11   H22   1.082819 S    
C46   C48   1.409662 A    
N5    C53   1.367885 A    
C45   H18   1.082578 S    
C56   C58   1.413124 A    
C35   C37   1.388563 A    
C20   C26   1.408494 A    
C51   Br1   1.922836 S    
C54   H19   1.081735 S    
O1    Cu1   1.956694 S    
C50   H12   1.083437 S    
C53   H20   1.081734 S    
C60   H16   1.083406 S    
N2    C18   1.432570 S    
C19   C34   1.422615 A    
C5    O9    1.349698 S    
O6    Cu2   1.951916 S    
C26   C37   1.395150 A    
C21   C23   1.395124 A    
C16   H4    1.082876 S    
C10   C12   1.395810 A    
N2    C8    1.366519 A    
O3    C1    1.293452 A    
O8    Cu1   1.950016 S    
C23   C39   1.388559 A    
C58   N8    1.439722 S    
C44   H25   1.083729 S    
C59   H15   1.083405 S    
C22   C24   1.395132 A    
C15   C17   1.399024 A    
C6    C22   1.403925 A    
C16   C18   1.399213 A    
C29   C33   1.421444 A    
C14   C16   1.393658 A    
C19   C21   1.408521 A    
C36   C38   1.388576 A    
C3    C27   1.472863 S    
C20   C22   1.408454 A    
C9    C11   1.395799 A    
C12   C28   1.405727 A    
O2    Cu2   1.956694 S    
N3    N4    1.246310 D    
C13   H1    1.083008 S    
O5    Cu1   1.951918 S    
C20   C33   1.422633 A    
C42   C44   1.402024 A    
C57   C59   1.394695 A    
C38   H24   1.083559 S    
C55   C57   1.413125 A    
C44   C46   1.388847 A    
C41   C43   1.402024 A    
C61   Br3   1.915150 S    
C24   C40   1.388560 A    
