data_mof_unit_56412.cif
_audit_creation_date              2013-03-05T16:06:16-0500
_audit_creation_method            fapswitch 2.2
_symmetry_space_group_name_H-M    P1
_symmetry_Int_Tables_number       1
_space_group_crystal_system       triclinic
_cell_length_a                    10.812159
_cell_length_b                    9.504319
_cell_length_c                    27.845667
_cell_angle_alpha                 90.001963
_cell_angle_beta                  89.853272
_cell_angle_gamma                 89.921461
_cell_volume                      2861.47015675

loop_
_atom_site_label
_atom_site_type_symbol
_atom_site_description
_atom_site_fract_x
_atom_site_fract_y
_atom_site_fract_z
_atom_type_partial_charge
O1    O     O_R   0.319640 0.618740 0.500000 -0.571105
O2    O     O_R   0.680360 0.381260 0.500000 -0.571274
O3    O     O_R   0.680360 0.618740 0.500000 -0.575386
O4    O     O_R   0.319640 0.381260 0.500000 -0.574900
C1    C     C_R   0.262289 0.500107 0.499974 0.881632
C2    C     C_R   0.737656 0.499908 0.499893 0.882870
O5    O     O_R   0.500020 0.618770 0.430260 -0.563606
O6    O     O_R   0.499980 0.381230 0.569740 -0.565803
O7    O     O_R   0.499980 0.618770 0.569740 -0.557378
O8    O     O_R   0.500020 0.381230 0.430260 -0.557829
C3    C     C_R   0.499859 0.499970 0.407274 0.838263
C4    C     C_R   0.501084 0.500054 0.592634 0.841315
Cu1   Cu    Cu3+1 0.500000 0.640660 0.500000 0.981666
Cu2   Cu    Cu3+1 0.500000 0.359340 0.500000 0.980589
C5    C     C_R   0.390097 0.515710 0.176715 0.552336
C6    C     C_R   0.616953 0.529900 0.822253 0.554156
O9    O     O_2   0.282418 0.523156 0.201223 -0.539585
O10   O     O_2   0.721129 0.558905 0.797374 -0.538180
N1    N     N_R   0.499436 0.503183 0.201055 -0.455649
N2    N     N_R   0.510407 0.498093 0.798248 -0.457791
C7    C     C_R   0.609862 0.493351 0.177102 0.539601
C8    C     C_R   0.403143 0.468372 0.822287 0.541040
C9    C     C_R   0.539609 0.382752 0.277474 -0.144236
C10   C     C_R   0.454235 0.610838 0.722411 -0.147804
C11   C     C_R   0.541610 0.380674 0.327828 0.077575
C12   C     C_R   0.450666 0.612866 0.672107 0.077148
C13   C     C_R   0.456211 0.619250 0.328334 0.083621
C14   C     C_R   0.562021 0.388613 0.670918 0.083883
C15   C     C_R   0.457101 0.619040 0.278116 -0.161949
C16   C     C_R   0.564180 0.389243 0.721170 -0.161907
C17   C     C_R   0.498428 0.501496 0.252648 0.296982
C18   C     C_R   0.510035 0.499455 0.746801 0.306442
C19   C     C_R   0.501612 0.509464 0.101022 -0.048614
C20   C     C_R   0.508329 0.505335 0.898142 -0.047830
C21   C     C_R   0.389249 0.519548 0.126302 -0.049762
C22   C     C_R   0.617962 0.533765 0.872680 -0.050668
C23   C     C_R   0.278963 0.536909 0.100938 -0.196480
C24   C     C_R   0.724802 0.570187 0.897863 -0.197421
C25   C     C_R   0.612970 0.495755 0.126720 -0.009537
C26   C     C_R   0.399954 0.471770 0.872640 -0.011458
C27   C     C_R   0.499391 0.499973 0.353931 -0.054089
C28   C     C_R   0.504209 0.500292 0.645804 -0.050565
H1    H     H_    0.425112 0.710977 0.258750 0.153690
H2    H     H_    0.608051 0.303604 0.740382 0.148519
H3    H     H_    0.192519 0.553037 0.119967 0.189770
H4    H     H_    0.808064 0.600046 0.878669 0.190018
C29   C     C_R   0.393151 0.493165 0.973989 0.066926
C30   C     C_R   0.617601 0.513583 0.025215 0.067468
C31   C     C_R   0.618779 0.532088 0.974527 0.039573
C32   C     C_R   0.389356 0.513998 0.024526 0.039478
C33   C     C_R   0.506846 0.510397 0.949032 0.011007
C34   C     C_R   0.502766 0.512645 0.050108 0.010464
C35   C     C_R   0.288574 0.449390 0.947673 -0.163060
C36   C     C_R   0.726670 0.489558 0.051800 -0.162899
C37   C     C_R   0.291590 0.440382 0.897883 -0.167513
C38   C     C_R   0.724532 0.482535 0.101643 -0.167051
O11   O     O_2   0.299975 0.435808 0.797485 -0.538154
O12   O     O_2   0.716467 0.482952 0.201977 -0.540515
C39   C     C_R   0.277799 0.537466 0.050725 0.131665
C40   C     C_R   0.726038 0.572645 0.948086 0.129083
H5    H     H_    0.412660 0.695526 0.742923 0.142218
H6    H     H_    0.571381 0.292164 0.257278 0.148712
H7    H     H_    0.208446 0.408138 0.879269 0.186818
H8    H     H_    0.810919 0.465632 0.120426 0.186232
H9    H     H_    0.204684 0.414784 0.965002 0.171226
H10   H     H_    0.814376 0.468727 0.034707 0.169286
C41   C     C_R   0.065102 0.407348 0.469303 0.067635
C42   C     C_R   0.934689 0.592983 0.530304 0.067189
C43   C     C_R   0.935599 0.407102 0.469320 0.064701
C44   C     C_R   0.064123 0.593487 0.530202 0.063876
C45   C     C_R   0.871476 0.499845 0.499858 -0.075119
C46   C     C_R   0.128367 0.500328 0.499833 -0.075925
C47   C     C_R   0.422487 0.074584 0.470511 -0.005508
C48   C     C_R   0.577536 0.925417 0.529478 -0.005600
C49   C     C_R   0.577631 0.074337 0.529439 -0.016009
C50   C     C_R   0.422381 0.925663 0.470555 -0.013063
H11   H     H_    0.360549 0.130884 0.446863 0.142705
H12   H     H_    0.639496 0.869118 0.553117 0.141464
H13   H     H_    0.639914 0.130433 0.552947 0.140969
H14   H     H_    0.360101 0.869563 0.447044 0.139847
N3    N     N_R   0.500000 0.852070 0.500000 -0.160022
N4    N     N_R   0.500000 0.147930 0.500000 -0.160501
N5    N     N_3   0.408894 0.740251 0.353036 -0.579454
H15   H     H_    0.317722 0.756804 0.341922 0.221865
H16   H     H_    0.461124 0.827669 0.342632 0.222418
N6    N     N_3   0.621493 0.275978 0.645567 -0.584447
H17   H     H_    0.714464 0.273462 0.655787 0.221388
H18   H     H_    0.580748 0.181381 0.656385 0.224220
N7    N     N_3   0.390546 0.727367 0.647788 -0.553096
H19   H     H_    0.364643 0.805919 0.672133 0.216287
H20   H     H_    0.308835 0.687832 0.633174 0.229250
N8    N     N_3   0.588767 0.258781 0.352327 -0.555624
H21   H     H_    0.604985 0.176512 0.328169 0.212355
H22   H     H_    0.674612 0.286067 0.366727 0.233383
N9    N     N_3   0.165046 0.576373 0.027177 -0.611267
H23   H     H_    0.139598 0.676860 0.038924 0.235951
H24   H     H_    0.095809 0.506263 0.037933 0.210346
N10   N     N_3   0.832623 0.630553 0.971323 -0.608046
H25   H     H_    0.844823 0.733644 0.959090 0.234657
H26   H     H_    0.910107 0.572017 0.960818 0.218551
N11   N     N_3   0.133343 0.316876 0.437470 -0.590818
H27   H     H_    0.109765 0.212416 0.444755 0.215648
H28   H     H_    0.109209 0.340437 0.402055 0.222708
N12   N     N_3   0.866434 0.683408 0.562160 -0.590804
H29   H     H_    0.890092 0.787896 0.554963 0.215774
H30   H     H_    0.890278 0.659565 0.597582 0.222327
N13   N     N_3   0.868241 0.316247 0.437559 -0.588519
H31   H     H_    0.893184 0.339365 0.402151 0.212645
H32   H     H_    0.891961 0.211894 0.445022 0.225023
N14   N     N_3   0.131213 0.685224 0.561715 -0.586476
H33   H     H_    0.105155 0.663709 0.597115 0.209605
H34   H     H_    0.107945 0.789351 0.553685 0.226230

loop_
_geom_bond_atom_site_label_1
_geom_bond_atom_site_label_2
_geom_bond_distance
_ccdc_geom_bond_type
C10   H5    1.083437 S    
C13   C15   1.398377 A    
N9    H23   1.045774 S    
O3    C2    1.287413 A    
N1    C17   1.436740 S    
C8    O11   1.349781 S    
N12   H30   1.044930 S    
C43   N13   1.436381 S    
C12   N7    1.437285 S    
C5    N1    1.369241 A    
C41   N11   1.436785 S    
C20   C33   1.417938 A    
C19   C25   1.408088 A    
C31   C40   1.425651 A    
C20   C26   1.408668 A    
C32   C39   1.425324 A    
N1    C7    1.369213 A    
C10   C12   1.401508 A    
C1    C46   1.448005 S    
C40   N10   1.433588 S    
N6    H18   1.045753 S    
Cu1   N3    2.009308 S    
C41   C46   1.405776 A    
C43   C45   1.405710 A    
O7    Cu1   1.953076 S    
N14   H33   1.044818 S    
C4    C28   1.481008 S    
C44   N14   1.435732 S    
C9    H6    1.083364 S    
C25   C38   1.397718 A    
C14   C16   1.399548 A    
C31   C33   1.419953 A    
C37   H7    1.083440 S    
C32   C34   1.419723 A    
N13   H31   1.044943 S    
C38   H8    1.083454 S    
N7    H20   1.044050 S    
C35   H9    1.078112 S    
O3    Cu1   1.960894 S    
O6    C4    1.296920 A    
C29   C35   1.412117 A    
N11   H28   1.044947 S    
Cu1   Cu2   2.673755 S    
C15   H1    1.083568 S    
N13   H32   1.045100 S    
C16   H2    1.083504 S    
O2    C2    1.287367 A    
C39   N9    1.433794 S    
C5    C21   1.404315 A    
N12   H29   1.045120 S    
O5    C3    1.297896 A    
C29   C32   1.421557 A    
C35   C37   1.389365 A    
C2    C45   1.446881 S    
C36   C38   1.389664 A    
C48   C49   1.415387 A    
N11   H27   1.045123 S    
C42   N12   1.436997 S    
O8    Cu2   1.953076 S    
C11   C27   1.420961 A    
N6    H17   1.045672 S    
C29   C33   1.420251 A    
C19   C34   1.418076 A    
C9    C17   1.396462 A    
C30   C36   1.412288 A    
C10   C18   1.395110 A    
C13   C27   1.418253 A    
N5    H15   1.045664 S    
C7    C25   1.403416 A    
C30   C34   1.420489 A    
C6    N2    1.367540 A    
C26   C37   1.397360 A    
C8    C26   1.402804 A    
N8    H22   1.045033 S    
C23   C39   1.398339 A    
C24   C40   1.398786 A    
C6    O10   1.349623 S    
C30   C31   1.422373 A    
N5    H16   1.045748 S    
N2    C8    1.367422 A    
N10   H26   1.046145 S    
C14   N6    1.433015 S    
C47   C50   1.415395 A    
O1    C1    1.287531 A    
O1    Cu1   1.961462 S    
Cu2   N4    2.009309 S    
C48   N3    1.366615 A    
C23   H3    1.083923 S    
C47   N4    1.366632 A    
C12   C28   1.418609 A    
N2    C18   1.432642 S    
C5    O9    1.349772 S    
C11   N8    1.437951 S    
O6    Cu2   1.953062 S    
C21   C23   1.397037 A    
C50   H14   1.081466 S    
O4    C1    1.287827 A    
C50   N3    1.366655 A    
N9    H24   1.046120 S    
C49   N4    1.366636 A    
C36   H10   1.078035 S    
C22   C24   1.396851 A    
C7    O12   1.349777 S    
C15   C17   1.395574 A    
C6    C22   1.404721 A    
C16   C18   1.394810 A    
C42   C45   1.405004 A    
C14   C28   1.416656 A    
N8    H21   1.045762 S    
C19   C21   1.405691 A    
C3    C27   1.485396 S    
C20   C22   1.406203 A    
C9    C11   1.402519 A    
O4    Cu2   1.960894 S    
O2    Cu2   1.961462 S    
O7    C4    1.296030 A    
N14   H34   1.045145 S    
C24   H4    1.083916 S    
O8    C3    1.297431 A    
C13   N5    1.433168 S    
O5    Cu1   1.953062 S    
C42   C44   1.399467 A    
N10   H25   1.045767 S    
C48   H12   1.081521 S    
C47   H11   1.081532 S    
C44   C46   1.405984 A    
C41   C43   1.400210 A    
N7    H19   1.045855 S    
C49   H13   1.081416 S    
