data_mof_unit_26408.cif
_audit_creation_date              2012-12-10T16:55:05-0500
_audit_creation_method            fapswitch 2.2
_symmetry_space_group_name_H-M    P1
_symmetry_Int_Tables_number       1
_space_group_crystal_system       triclinic
_cell_length_a                    9.750341
_cell_length_b                    10.932404
_cell_length_c                    15.501264
_cell_angle_alpha                 89.162934
_cell_angle_beta                  73.962795
_cell_angle_gamma                 89.638153
_cell_volume                      1587.87273542

loop_
_atom_site_label
_atom_site_type_symbol
_atom_type_description
_atom_site_fract_x
_atom_site_fract_y
_atom_site_fract_z
_atom_type_partial_charge
C1    C     C_R   0.999877 0.265483 0.501029 0.834131
C2    C     C_R   0.670213 0.480859 0.906467 0.091695
C3    C     C_R   0.766673 0.441476 0.954948 0.158761
C4    C     C_R   0.521638 0.491563 0.951282 0.070248
C5    C     C_R   0.473677 0.471815 0.045945 0.057083
C6    C     C_R   0.574125 0.432725 0.091506 -0.192654
C7    C     C_R   0.717239 0.417379 0.046597 -0.226369
C8    C     C_R   0.419047 0.518290 0.904340 -0.216880
C9    C     C_R   0.275450 0.531131 0.948906 -0.234150
C10   C     C_R   0.228095 0.518946 0.041813 0.170596
C11   C     C_R   0.326434 0.490089 0.091554 0.089032
C12   C     C_R   0.917056 0.498729 0.672019 0.774273
C13   C     C_R   0.082827 0.536234 0.085631 -0.221245
C14   C     C_R   0.033460 0.526675 0.178719 -0.174193
C15   C     C_R   0.274142 0.483976 0.185610 -0.234698
C16   C     C_2   0.886490 0.933579 0.501438 -0.140840
C17   C     C_2   0.004487 0.866510 0.493925 -0.308410
C18   C     C_2   0.888770 0.067664 0.497609 -0.154596
C19   C     C_2   0.000545 0.133267 0.505213 -0.308032
C20   C     C_2   0.390442 0.506835 0.572104 -0.015920
C21   C     C_2   0.543476 0.482260 0.570787 -0.014167
C22   C     C_R   0.000361 0.734456 0.498733 0.856704
C23   C     C_R   0.082981 0.500283 0.327914 0.803901
C24   C     C_R   0.870408 0.487819 0.770301 -0.037887
C25   C     C_R   0.129408 0.502325 0.229269 -0.057796
C26   C     C_R   0.912053 0.425172 0.910981 -0.212806
C27   C     C_R   0.963617 0.447726 0.819092 -0.197482
C28   C     C_R   0.726351 0.507786 0.814519 -0.245661
Cu1   Cu    Cu3+1 0.138640 0.500020 0.499980 0.989597
Cu2   Cu    Cu3+1 0.861360 0.499980 0.500020 1.050522
H1    H     H_    0.789966 0.386364 0.084158 0.155485
H2    H     H_    0.007538 0.559105 0.047953 0.145910
H3    H     H_    0.784116 0.889435 0.509440 0.196755
H4    H     H_    0.108991 0.907133 0.482293 0.159965
H5    H     H_    0.793521 0.113153 0.489694 0.175736
H6    H     H_    0.094958 0.091484 0.516631 0.151341
H7    H     H_    0.315247 0.530814 0.635325 0.125372
H8    H     H_    0.409028 0.445827 0.451072 0.255953
H9    H     H_    0.562317 0.450829 0.633157 0.091081
H10   H     H_    0.344656 0.468296 0.227037 0.172455
H11   H     H_    0.921201 0.541415 0.211068 0.195870
H12   H     H_    0.200945 0.551952 0.910151 0.145733
H13   H     H_    0.985434 0.392327 0.947399 0.140289
H14   H     H_    0.075251 0.430951 0.786000 0.146615
H15   H     H_    0.660368 0.544824 0.775174 0.144405
H16   H     H_    0.545704 0.409503 0.161896 0.168237
H17   H     H_    0.445052 0.527188 0.832401 0.134085
N1    N     N_2   0.346430 0.498660 0.500980 -0.220070
N2    N     N_2   0.652550 0.498630 0.501000 0.006695
O1    O     O_R   0.117050 0.321960 0.499980 -0.593729
O2    O     O_R   0.882890 0.321920 0.500020 -0.587138
O3    O     O_R   0.052910 0.500040 0.629810 -0.598515
O4    O     O_R   0.818750 0.499990 0.629840 -0.608901
O5    O     O_R   0.117110 0.678080 0.499980 -0.556140
O6    O     O_R   0.882950 0.678040 0.500020 -0.517903
O7    O     O_R   0.181250 0.500010 0.370160 -0.578683
O8    O     O_R   0.947090 0.499960 0.370190 -0.514197
S1    S     S_3+6 0.633543 0.596310 0.413309 0.094284
O9    O     O_2   0.603984 0.521304 0.339896 -0.349356
O10   O     O_2   0.515670 0.688108 0.446169 -0.288823
O11   O     O_3   0.781062 0.678184 0.366297 -0.493649
H18   H     H_    0.759714 0.724011 0.315932 0.348081

loop_
_geom_bond_atom_site_label_1
_geom_bond_atom_site_label_2
_ccdc_geom_bond_type
C8    C9    A    
C2    C4    A    
Cu2   O2    S    
Cu1   Cu2   S    
Cu1   O7    S    
C16   H3    S    
Cu2   O6    S    
C12   C24   S    
C13   H2    S    
H8    N1    S    
C12   O4    A    
C21   H9    S    
C24   C27   A    
C4    C8    A    
Cu1   O5    S    
S1    O11   S    
C21   N2    D    
C2    C3    A    
C9    H12   S    
C8    H17   S    
C23   O7    A    
C22   O5    A    
C13   C14   A    
C20   H7    S    
C1    O2    A    
C26   C27   A    
C20   N1    D    
Cu1   O1    S    
C14   H11   S    
C5    C6    A    
C9    C10   A    
C12   O3    A    
Cu2   N2    S    
C26   H13   S    
C5    C11   A    
C6    C7    A    
C3    C7    A    
C19   H6    S    
C23   C25   S    
C14   C25   A    
O11   H18   S    
C28   H15   S    
Cu2   O4    S    
C15   H10   S    
C15   C25   A    
C7    H1    S    
C10   C11   A    
Cu1   N1    S    
S1    O10   D    
Cu2   O8    S    
C24   C28   A    
C20   C21   S    
C18   H5    S    
C16   C18   S    
C18   C19   D    
C17   H4    S    
C23   O8    A    
C16   C17   D    
C2    C28   A    
C22   O6    A    
C6    H16   S    
S1    O9    D    
C1    O1    A    
C1    C19   S    
C11   C15   A    
C27   H14   S    
C10   C13   A    
C3    C26   A    
N2    S1    S    
C17   C22   S    
C4    C5    A    
Cu1   O3    S    
