data_mof_unit_23014.cif
_audit_creation_date              2013-03-05T15:42:18-0500
_audit_creation_method            fapswitch 2.2
_symmetry_space_group_name_H-M    P1
_symmetry_Int_Tables_number       1
_space_group_crystal_system       triclinic
_cell_length_a                    11.087136
_cell_length_b                    10.896885
_cell_length_c                    9.710666
_cell_angle_alpha                 89.024184
_cell_angle_beta                  102.970602
_cell_angle_gamma                 90.156836
_cell_volume                      1143.0962981

loop_
_atom_site_label
_atom_site_type_symbol
_atom_site_description
_atom_site_fract_x
_atom_site_fract_y
_atom_site_fract_z
_atom_type_partial_charge
O1    O     O_R   0.500020 0.321960 0.617050 -0.542311
O2    O     O_R   0.499980 0.321920 0.382890 -0.573013
C1    C     C_R   0.494847 0.265508 0.500140 0.833717
O3    O     O_R   0.320700 0.500020 0.574050 -0.560286
O4    O     O_R   0.320660 0.499980 0.339890 -0.574602
C2    C     C_R   0.262842 0.497693 0.442121 0.768076
Cu1   Cu    Cu3+1 0.500020 0.500020 0.638640 1.044018
Cu2   Cu    Cu3+1 0.499980 0.499980 0.361360 1.079927
O5    O     O_R   0.500020 0.678080 0.617110 -0.617132
O6    O     O_R   0.499980 0.678040 0.382950 -0.534663
O7    O     O_R   0.679340 0.500020 0.660110 -0.535365
O8    O     O_R   0.679300 0.499980 0.425950 -0.549149
C3    C     C_R   0.503878 0.734696 0.499690 0.796680
C4    C     C_R   0.737306 0.499642 0.558102 0.748065
H1    H     H_    0.881779 0.506168 0.379280 0.248417
H2    H     H_    0.120753 0.487389 0.622317 0.213783
C5    C     C_2   0.127148 0.494673 0.407702 0.314428
C6    C     C_2   0.068127 0.494906 0.513967 -0.189813
C7    C     C_2   0.872851 0.500639 0.593726 0.155962
C8    C     C_2   0.933410 0.502618 0.488365 -0.211201
C9    C     C_2   0.434011 0.934546 0.398005 0.263345
C10   C     C_2   0.515345 0.868226 0.496787 0.170874
C11   C     C_2   0.451949 0.067702 0.386227 -0.146915
C12   C     C_2   0.478927 0.134077 0.503451 -0.297544
H3    H     H_    0.435464 0.111440 0.282277 0.181461
H4    H     H_    0.483489 0.090866 0.606288 0.173419
C13   C     C_2   0.417711 0.440540 0.901027 0.575601
N1    N     N_2   0.498650 0.498660 0.846590 -0.274912
H5    H     H_    0.545575 0.569821 0.903158 0.200790
C14   C     C_2   0.406378 0.466479 0.051903 -0.131109
N2    N     N_2   0.498620 0.498630 0.152710 -0.056464
H6    H     H_    0.316180 0.457901 0.076333 0.118276
N3    N     N_R   0.615669 0.472046 0.131318 0.214674
O9    O     O_R   0.699820 0.557291 0.149423 -0.348532
O10   O     O_R   0.648054 0.358432 0.120886 -0.385227
N4    N     N_R   0.937494 0.498799 0.739947 0.123133
O11   O     O_R   0.905528 0.420595 0.827970 -0.366011
O12   O     O_R   0.014156 0.586588 0.788994 -0.343583
O13   O     O_3   0.061436 0.503232 0.268153 -0.532809
C15   C     C_3   0.076281 0.394740 0.195164 0.078215
H7    H     H_    0.152960 0.333051 0.250203 0.087660
H8    H     H_    0.096894 0.421808 0.092163 0.207475
C16   C     C_3   0.956278 0.321976 0.166358 -0.627429
H9    H     H_    0.880216 0.379513 0.104276 0.319323
H10   H     H_    0.966379 0.239055 0.104966 0.208231
H11   H     H_    0.933116 0.293081 0.267564 0.227822
N5    N     N_R   0.327219 0.880320 0.306335 0.115039
O14   O     O_R   0.281893 0.929714 0.182646 -0.352940
O15   O     O_R   0.262901 0.796421 0.354474 -0.354205
O16   O     O_3   0.624599 0.924847 0.567570 -0.595490
C17   C     C_3   0.669299 0.875642 0.704924 0.065594
H12   H     H_    0.712940 0.784524 0.699641 0.178171
H13   H     H_    0.593964 0.867802 0.763697 0.157826
C18   C     C_3   0.767591 0.961072 0.786473 -0.683434
H14   H     H_    0.727066 0.053180 0.794037 0.245797
H15   H     H_    0.803915 0.923376 0.894793 0.225262
H16   H     H_    0.845255 0.970233 0.731965 0.258800
O17   O     O_3   0.335554 0.363518 0.812639 -0.557753
C19   C     C_3   0.289019 0.269408 0.887891 0.023015
H17   H     H_    0.215514 0.306134 0.937021 0.149647
H18   H     H_    0.363828 0.225830 0.970196 0.160173
C20   C     C_3   0.230996 0.170789 0.784896 -0.697789
H19   H     H_    0.301870 0.131031 0.733963 0.236146
H20   H     H_    0.192608 0.096591 0.842178 0.227638
H21   H     H_    0.155039 0.210916 0.701957 0.243204

loop_
_geom_bond_atom_site_label_1
_geom_bond_atom_site_label_2
_geom_bond_distance
_ccdc_geom_bond_type
O4    Cu2   1.951951 S    
C14   H6    1.081819 S    
C11   C12   1.335062 D    
N2    N3    1.391518 S    
C20   H19   1.110585 S    
C20   H20   1.110566 S    
C7    C8    1.343729 D    
Cu2   O8    1.945853 S    
C16   H9    1.108831 S    
C17   C18   1.521015 S    
C15   C16   1.520476 S    
C13   N1    1.297798 D    
N4    O12   1.301445 A    
C5    C6    1.340251 D    
C9    N5    1.443755 S    
C19   H17   1.111197 S    
N5    O15   1.301685 A    
C9    C10   1.359131 D    
C18   H16   1.110818 S    
C13   C14   1.529423 S    
Cu1   O7    1.951951 S    
C16   H10   1.110523 S    
N1    H5    1.028459 S    
C1    C12   1.443245 S    
H1    C8    1.085257 S    
O3    Cu1   1.945852 S    
O4    C2    1.296842 A    
O3    C2    1.298274 A    
C15   H7    1.116788 S    
N3    O10   1.301906 A    
O8    C4    1.299928 A    
C3    C10   1.460602 S    
N3    O9    1.300544 A    
C6    C8    1.460504 S    
C7    N4    1.439611 S    
C9    C11   1.470026 S    
C14   N2    1.298931 D    
O7    C4    1.296223 A    
C18   H15   1.110561 S    
C16   H11   1.110515 S    
C19   H18   1.115281 S    
C17   H13   1.114727 S    
C17   H12   1.112704 S    
C10   O16   1.398928 S    
Cu1   Cu2   2.692482 S    
C11   H3    1.086625 S    
H2    C6    1.084391 S    
C5    O13   1.388775 S    
O13   C15   1.417424 S    
Cu1   O5    1.947987 S    
C2    C5    1.466476 S    
O5    C3    1.296283 A    
C18   H14   1.111065 S    
N4    O11   1.300759 A    
C19   C20   1.520854 S    
O2    C1    1.297125 A    
C20   H21   1.111138 S    
O16   C17   1.411546 S    
O17   C19   1.411612 S    
O1    Cu1   1.955140 S    
Cu2   N2    2.023104 S    
C4    C7    1.464545 S    
O6    C3    1.292220 A    
Cu2   O6    1.955139 S    
O2    Cu2   1.947987 S    
Cu1   N1    2.022598 S    
N5    O14   1.301305 A    
C12   H4    1.087631 S    
C15   H8    1.109891 S    
O1    C1    1.290311 A    
C13   O17   1.392919 S    
