data_mof_unit_22338.cif
_audit_creation_date              2012-12-11T16:22:05-0500
_audit_creation_method            fapswitch 2.2
_symmetry_space_group_name_H-M    P1
_symmetry_Int_Tables_number       1
_space_group_crystal_system       triclinic
_cell_length_a                    13.53342
_cell_length_b                    14.002468
_cell_length_c                    30.058959
_cell_angle_alpha                 97.653692
_cell_angle_beta                  91.207117
_cell_angle_gamma                 118.612077
_cell_volume                      4932.43075431

loop_
_atom_site_label
_atom_site_type_symbol
_atom_type_description
_atom_site_fract_x
_atom_site_fract_y
_atom_site_fract_z
_atom_type_partial_charge
C1    C     C_R   0.723597 0.099761 0.568603 0.544696
C2    C     C_R   0.366941 0.691064 0.680299 0.007508
C3    C     C_R   0.264705 0.658420 0.654182 0.156649
C4    C     C_R   0.266880 0.680292 0.609857 0.147433
C5    C     C_R   0.249870 0.654174 0.829613 -0.157807
C6    C     C_R   0.222336 0.617734 0.870812 0.088467
C7    C     C_R   0.410530 0.636038 0.883004 0.135148
C8    C     C_R   0.437367 0.674537 0.841560 0.245599
C9    C     C_R   0.353160 0.676354 0.813944 -0.022440
C10   C     C_1   0.363084 0.684763 0.767266 -0.062638
C11   C     C_1   0.365770 0.687178 0.727653 -0.048688
C12   C     C_R   0.384761 0.789059 0.551235 0.537938
C13   C     C_R   0.301043 0.603828 0.897566 0.014411
C14   C     C_3   0.223763 0.140647 0.717421 0.133615
C15   C     C_3   0.238134 0.074331 0.752201 -0.140691
C16   C     C_1   0.283151 0.205718 0.874674 -0.014445
C17   C     C_1   0.372027 0.139139 0.614495 -0.005988
C18   C     C_3   0.278933 0.248225 0.751931 0.139674
C19   C     C_3   0.294494 0.183117 0.786580 -0.011646
C20   C     C_3   0.395820 0.276279 0.736451 0.147738
C21   C     C_3   0.340452 0.168576 0.701219 0.040253
C22   C     C_3   0.412259 0.212410 0.771143 0.194778
C23   C     C_R   0.399369 0.118881 0.569890 0.542014
C24   C     C_3   0.356713 0.105094 0.736717 0.152168
C25   C     C_1   0.283418 0.191745 0.834613 -0.054190
C26   C     C_1   0.357339 0.154492 0.653475 -0.018564
C27   C     C_3   0.928741 0.261181 0.732699 -0.119985
C28   C     C_3   0.835680 0.258261 0.762493 -0.073488
C29   C     C_1   0.894309 0.202406 0.877682 -0.028277
C30   C     C_1   0.780984 0.133526 0.612821 -0.005736
C31   C     C_3   0.943909 0.181136 0.759758 -0.121531
C32   C     C_3   0.850217 0.177772 0.788844 0.011903
C33   C     C_3   0.852997 0.080221 0.726489 -0.144464
C34   C     C_R   0.719126 0.095158 0.442567 0.572647
C35   C     C_3   0.838950 0.160860 0.700175 0.054626
C36   C     C_3   0.759640 0.076550 0.756443 -0.087261
C37   C     C_3   0.747591 0.157108 0.729643 0.257777
C38   C     C_1   0.867158 0.189524 0.837985 -0.070457
C39   C     C_1   0.815836 0.150108 0.651667 -0.035332
C40   C     C_3   0.265153 0.694989 0.257859 -0.121109
C41   C     C_3   0.361866 0.765327 0.230149 -0.113051
C42   C     C_1   0.311833 0.608654 0.111176 -0.013525
C43   C     C_1   0.364620 0.735636 0.378178 -0.019155
C44   C     C_3   0.245670 0.587922 0.227272 -0.088485
C45   C     C_R   0.381641 0.784290 0.424434 0.540810
C46   C     C_3   0.343181 0.658828 0.200391 0.021419
C47   C     C_3   0.333285 0.582672 0.258656 0.177115
C48   C     C_3   0.351675 0.686937 0.289081 0.056265
C49   C     C_3   0.430329 0.650719 0.231294 -0.073866
C50   C     C_3   0.448716 0.757622 0.262014 -0.118394
C51   C     C_1   0.331344 0.637295 0.151277 -0.059119
C52   C     C_1   0.356679 0.707815 0.338136 -0.049423
C53   C     C_R   0.359391 0.127575 0.398414 0.018791
C54   C     C_R   0.410859 0.231347 0.383744 0.149751
C55   C     C_R   0.406176 0.235241 0.336952 0.156293
C56   C     C_R   0.395655 0.114123 0.442724 0.550225
C57   C     C_R   0.345536 0.136287 0.306205 0.035856
C58   C     C_R   0.284770 0.036121 0.321491 -0.168662
C59   C     C_R   0.291243 0.031660 0.367203 -0.174364
C60   C     C_R   0.264988 0.069405 0.140360 0.216499
C61   C     C_R   0.249185 0.097477 0.098667 0.128012
C62   C     C_R   0.423853 0.274329 0.117908 0.093817
C63   C     C_R   0.439646 0.245026 0.159626 0.120222
C64   C     C_R   0.354708 0.147751 0.171978 -0.002718
C65   C     C_1   0.351009 0.138335 0.218944 -0.008892
C66   C     C_1   0.347588 0.135962 0.258615 -0.003644
C67   C     C_R   0.372130 0.738057 0.592313 -0.042560
C68   C     C_R   0.324133 0.203262 0.088315 -0.015511
C69   C     C_R   0.772582 0.130175 0.401018 0.031047
C70   C     C_R   0.772599 0.049568 0.367771 -0.191900
C71   C     C_R   0.791292 0.069220 0.323885 -0.195526
C72   C     C_R   0.814217 0.170853 0.312791 0.039392
C73   C     C_R   0.827093 0.257220 0.346099 0.244967
C74   C     C_R   0.802590 0.236054 0.390644 0.226262
C75   C     C_R   0.890245 0.303733 0.166949 0.197124
C76   C     C_R   0.917245 0.312305 0.122333 -0.151682
C77   C     C_R   0.845086 0.114804 0.105282 -0.146499
C78   C     C_R   0.471923 0.760970 0.617633 -0.142700
C79   C     C_R   0.817153 0.104683 0.149598 0.098398
C80   C     C_R   0.843251 0.200093 0.180667 0.088829
C81   C     C_1   0.830415 0.192966 0.227447 0.066491
C82   C     C_1   0.823141 0.184722 0.266550 0.046147
C83   C     C_R   0.899541 0.218877 0.091998 -0.039477
C84   C     C_R   0.281389 0.233752 0.921523 0.539133
C85   C     C_R   0.265198 0.546714 0.937585 0.567848
C86   C     C_R   0.944446 0.221670 0.922728 0.540661
C87   C     C_R   0.294118 0.242905 0.049031 0.573188
C88   C     C_R   0.275952 0.558947 0.065084 0.544045
C89   C     C_R   0.471032 0.737076 0.661479 0.122283
C90   C     C_R   0.954266 0.233160 0.049797 0.543318
Cr1   Cr    Cr6+3 0.583430 0.162610 0.509470 1.077015
Cr2   Cr    Cr6+3 0.584210 0.916680 0.495400 1.008555
Cr3   Cr    Cr6+3 0.332380 0.920740 0.495100 1.008704
Cr4   Cr    Cr6+3 0.086810 0.177030 0.983130 1.024849
Cr5   Cr    Cr6+3 0.337180 0.419300 0.994610 1.024753
Cr6   Cr    Cr6+3 0.084840 0.422330 0.995830 1.023003
H1    H     H_    0.830419 0.332466 0.776995 0.085287
H2    H     H_    0.996295 0.336234 0.722005 0.105385
H3    H     H_    0.688299 0.002072 0.766123 0.119965
H4    H     H_    0.862495 0.008663 0.711471 0.106958
H5    H     H_    0.186404 0.657553 0.808193 0.117343
H6    H     H_    0.024631 0.189695 0.773819 0.158005
H7    H     H_    0.373943 0.841044 0.217714 0.117594
H8    H     H_    0.197642 0.713344 0.269246 0.118180
H9    H     H_    0.531872 0.827654 0.276902 0.112998
H10   H     H_    0.497702 0.632102 0.219962 0.098893
H11   H     H_    0.162700 0.517288 0.212612 0.138574
H12   H     H_    0.236793 0.960268 0.297794 0.118167
H13   H     H_    0.250064 0.951318 0.377565 0.150427
H14   H     H_    0.958978 0.393034 0.112321 0.128818
H15   H     H_    0.749393 0.967872 0.374719 0.150270
H16   H     H_    0.829832 0.041968 0.082010 0.125489
H17   H     H_    0.784166 0.003561 0.298145 0.121516
H18   H     H_    0.551895 0.803511 0.603844 0.153054
H19   H     H_    0.173353 0.992663 0.759183 0.105232
O1    O     O_R   0.493980 0.188910 0.559650 -0.501646
O2    O     O_R   0.480180 0.824400 0.444640 -0.495755
O3    O     O_R   0.308310 0.808540 0.439800 -0.512085
O4    O     O_R   0.340740 0.020600 0.455570 -0.514831
O5    O     O_3   0.500010 0.000010 0.499990 -0.254016
O6    O     O_R   0.969650 0.150960 0.933380 -0.499960
O7    O     O_R   0.187740 0.180870 0.937580 -0.491960
O8    O     O_R   0.358510 0.327410 0.940870 -0.529687
O9    O     O_R   0.324180 0.507870 0.953930 -0.478209
O10   O     O_R   0.170560 0.527890 0.952050 -0.476087
O11   O     O_R   0.987620 0.318470 0.945550 -0.501208
O12   O     O_R   0.678640 0.153520 0.554450 -0.483362
O13   O     O_R   0.976400 0.159270 0.031530 -0.528685
O14   O     O_R   0.194000 0.188570 0.028560 -0.473736
O15   O     O_R   0.365260 0.335720 0.039020 -0.477838
O16   O     O_R   0.330440 0.515580 0.044910 -0.492227
O17   O     O_R   0.177310 0.536200 0.050190 -0.511050
O18   O     O_R   0.993870 0.326170 0.036530 -0.500756
O19   O     O_3   0.169610 0.339550 0.991190 -0.256202
O20   O     O_R   0.698130 0.004030 0.549500 -0.522989
O21   O     O_R   0.481060 0.827210 0.535360 -0.508085
O22   O     O_R   0.309260 0.811560 0.537660 -0.515375
O23   O     O_R   0.341620 0.023400 0.546290 -0.502074
O24   O     O_R   0.493030 0.185890 0.461780 -0.465599
O25   O     O_R   0.677760 0.150720 0.463730 -0.439299
O26   O     O_R   0.697180 0.001010 0.451640 -0.533622
N1    N     N_2   0.111208 0.586537 0.882940 -0.480400
H20   H     H_    0.087190 0.645247 0.879902 0.243097
C91   C     C_3   0.026967 0.478246 0.860557 -0.271591
H21   H     H_    0.945346 0.454428 0.875217 0.143366
H22   H     H_    0.053909 0.416447 0.865155 0.172986
H23   H     H_    0.014472 0.478300 0.823902 0.112803
N2    N     N_2   0.123490 0.104135 0.687067 -0.515931
H24   H     H_    0.065859 0.124284 0.700885 0.261351
C92   C     C_3   0.072275 0.991106 0.664485 -0.319172
H25   H     H_    0.004382 0.975634 0.638562 0.144662
H26   H     H_    0.034326 0.933856 0.689114 0.124718
H27   H     H_    0.135862 0.974574 0.647491 0.159233
N3    N     N_2   0.400222 0.028918 0.727373 -0.484644
H28   H     H_    0.367570 0.978127 0.696605 0.245003
C93   C     C_3   0.397816 0.969542 0.763526 -0.289667
H29   H     H_    0.447339 0.926197 0.755669 0.155657
H30   H     H_    0.309386 0.907945 0.767304 0.120378
H31   H     H_    0.435766 0.026741 0.795927 0.177062
N4    N     N_2   0.505104 0.254465 0.806116 -0.528713
H32   H     H_    0.512496 0.320568 0.828539 0.235951
C94   C     C_3   0.611320 0.268014 0.792527 -0.259812
H33   H     H_    0.679696 0.323765 0.819579 0.097736
H34   H     H_    0.630507 0.304237 0.761012 0.214771
H35   H     H_    0.608337 0.187066 0.788469 0.215833
N5    N     N_2   0.480632 0.380196 0.725037 -0.515337
H36   H     H_    0.457315 0.397801 0.695639 0.250306
C95   C     C_3   0.530289 0.473396 0.761264 -0.298765
H37   H     H_    0.584738 0.549609 0.747411 0.147683
H38   H     H_    0.584426 0.462429 0.785918 0.151744
H39   H     H_    0.464032 0.484453 0.778544 0.167602
N6    N     N_2   0.235547 0.324106 0.763148 -0.535353
H40   H     H_    0.270679 0.374786 0.793801 0.246483
C96   C     C_3   0.229519 0.382059 0.727731 -0.306968
H41   H     H_    0.190808 0.433633 0.739860 0.130946
H42   H     H_    0.177169 0.323038 0.697340 0.171002
H43   H     H_    0.315041 0.437825 0.718766 0.153749
O27   O     O_3   0.644962 0.143506 0.711284 -0.703185
H44   H     H_    0.605023 0.067670 0.693908 0.337613
N7    N     N_2   0.316959 0.484147 0.275177 -0.519036
H45   H     H_    0.254233 0.457598 0.296710 0.257510
C97   C     C_3   0.307067 0.396463 0.240816 -0.289867
H46   H     H_    0.296357 0.325461 0.256763 0.177731
H47   H     H_    0.384725 0.424805 0.222892 0.164745
H48   H     H_    0.232318 0.368536 0.216230 0.137110
N8    N     N_2   0.157436 0.018523 0.066927 -0.476751
H49   H     H_    0.159523 0.945847 0.057961 0.266769
C98   C     C_3   0.046734 0.000044 0.078071 -0.237447
H50   H     H_    0.015048 0.942693 0.102927 0.165169
H51   H     H_    0.986714 0.962361 0.047102 0.137530
H52   H     H_    0.049572 0.078935 0.092158 0.168752
O28   O     O_3   0.188254 0.966587 0.149592 -0.720304
H53   H     H_    0.217644 0.951693 0.176774 0.321830
N9    N     N_2   0.158642 0.604861 0.672408 -0.483529
H54   H     H_    0.153969 0.551823 0.694022 0.236237
C99   C     C_3   0.116035 0.677689 0.690327 -0.294755
H55   H     H_    0.172125 0.735910 0.720238 0.123880
H56   H     H_    0.030063 0.628255 0.700745 0.138155
H57   H     H_    0.110428 0.724990 0.664416 0.161810
N10   N     N_2   0.471529 0.329771 0.415880 -0.494982
H58   H     H_    0.539244 0.393949 0.404885 0.250339
C100  C     C_3   0.400568 0.364197 0.440738 -0.301298
H59   H     H_    0.454073 0.437470 0.466582 0.144728
H60   H     H_    0.340429 0.297378 0.458242 0.153206
H61   H     H_    0.352644 0.386348 0.417512 0.133971
N11   N     N_2   0.538880 0.313853 0.190106 -0.522415
H62   H     H_    0.580480 0.396505 0.187998 0.247681
C101  C     C_3   0.615072 0.269379 0.194382 -0.289058
H63   H     H_    0.645761 0.256723 0.161333 0.151880
H64   H     H_    0.572317 0.189521 0.207018 0.153195
H65   H     H_    0.688942 0.327697 0.218799 0.187260
N12   N     N_2   0.504859 0.377200 0.106457 -0.482384
H66   H     H_    0.528416 0.445567 0.130703 0.237581
C102  C     C_3   0.597169 0.375564 0.083655 -0.276010
H67   H     H_    0.645802 0.454309 0.070653 0.138200
H68   H     H_    0.564376 0.306847 0.054622 0.159042
H69   H     H_    0.654961 0.366490 0.107307 0.136379
N13   N     N_2   0.462772 0.337232 0.320437 -0.525526
H70   H     H_    0.456829 0.401452 0.338963 0.258742
C103  C     C_3   0.576462 0.367357 0.309349 -0.275071
H71   H     H_    0.608570 0.439684 0.291573 0.158042
H72   H     H_    0.577490 0.298217 0.286950 0.183553
H73   H     H_    0.633669 0.388905 0.340411 0.143095
O29   O     O_3   0.913422 0.395624 0.198086 -0.710320
H74   H     H_    0.946160 0.461590 0.182993 0.315499
O30   O     O_3   0.861618 0.359534 0.333965 -0.707488
H75   H     H_    0.901536 0.416915 0.360768 0.327785
O31   O     O_3   0.802485 0.314627 0.423709 -0.699171
H76   H     H_    0.781106 0.362591 0.409298 0.323633
N14   N     N_2   0.162098 0.643752 0.584073 -0.488317
H77   H     H_    0.147963 0.705340 0.575574 0.266225
C104  C     C_3   0.130965 0.552085 0.548046 -0.272807
H78   H     H_    0.044195 0.523826 0.532667 0.157702
H79   H     H_    0.131698 0.482220 0.561500 0.157852
H80   H     H_    0.190228 0.577113 0.521530 0.141538
N15   N     N_2   0.764915 0.998718 0.162961 -0.527748
H81   H     H_    0.710133 0.936482 0.137757 0.250539
C105  C     C_3   0.842631 0.970518 0.183885 -0.309088
H82   H     H_    0.900443 0.964718 0.159362 0.141653
H83   H     H_    0.794226 0.889552 0.195266 0.139679
H84   H     H_    0.893360 0.033003 0.213741 0.156120
O32   O     O_3   0.544664 0.704989 0.828692 -0.732242
H85   H     H_    0.555889 0.741073 0.801665 0.322980
N16   N     N_2   0.493677 0.628039 0.909648 -0.479220
H86   H     H_    0.568070 0.701636 0.917696 0.268617
C106  C     C_3   0.513019 0.537274 0.892518 -0.251302
H87   H     H_    0.566376 0.557323 0.863993 0.157614
H88   H     H_    0.431667 0.460902 0.880863 0.159524
H89   H     H_    0.557676 0.521862 0.919723 0.143506
N17   N     N_2   0.573808 0.765443 0.688034 -0.518969
H90   H     H_    0.564408 0.722930 0.714525 0.250797
C107  C     C_3   0.674811 0.786798 0.665931 -0.321389
H91   H     H_    0.742502 0.797918 0.690994 0.129940
H92   H     H_    0.706663 0.864220 0.651571 0.151997
H93   H     H_    0.657280 0.716252 0.639182 0.148924

loop_
_geom_bond_atom_site_label_1
_geom_bond_atom_site_label_2
_ccdc_geom_bond_type
C28   H1    S    
Cr5   O9    S    
Cr5   O16   S    
C21   C26   S    
C27   H2    S    
N4    C94   S    
C86   O11   A    
C73   C74   A    
C14   C18   S    
C23   O23   A    
C85   O10   A    
C57   C66   S    
Cr2   O2    S    
O29   H74   S    
C103  H72   S    
O27   H44   S    
C53   C59   A    
C103  H71   S    
C7    C8    A    
C47   C49   S    
Cr2   O21   S    
C53   C54   A    
Cr1   O1    S    
C84   O8    A    
C15   C19   S    
C37   O27   S    
C105  H84   S    
C17   C23   S    
Cr1   O12   S    
C98   H52   S    
C17   C26   T    
C32   C36   S    
C87   O15   A    
C93   H29   S    
C35   C37   S    
N6    H40   S    
N2    C92   S    
C79   N15   S    
C69   C70   A    
C99   H57   S    
C73   O30   S    
C102  H68   S    
C43   C52   T    
C44   H11   S    
N4    H32   S    
C77   C83   A    
N17   C107  S    
C70   H15   S    
N15   C105  S    
C14   N2    S    
C16   C84   S    
C33   C36   S    
C54   N10   S    
N16   H86   S    
C71   H17   S    
C85   O9    A    
C98   H51   S    
C18   C19   S    
C99   H55   S    
C34   O25   A    
C49   C50   S    
C96   H41   S    
C1    C30   S    
C2    C89   A    
C74   O31   S    
Cr3   O23   S    
C59   H13   S    
C23   O1    A    
C54   C55   A    
C93   H30   S    
C95   H39   S    
C31   C32   S    
C44   C46   S    
N10   H58   S    
C100  H61   S    
C29   C38   T    
C30   C39   T    
Cr5   O15   S    
C41   C46   S    
C31   C33   S    
C70   C71   A    
Cr3   O5    S    
C32   C38   S    
C6    N1    S    
C75   C80   A    
C106  H87   S    
C40   C44   S    
N3    C93   S    
C44   C47   S    
C42   C51   T    
Cr6   O17   S    
C63   N11   S    
C22   C24   S    
C95   H38   S    
N9    H54   S    
C78   C89   A    
N5    C95   S    
C78   H18   S    
C67   C78   A    
Cr1   O5    S    
C91   H23   S    
C2    C11   S    
C76   C83   A    
O31   H76   S    
N7    C97   S    
C60   C64   A    
C81   C82   T    
C55   N13   S    
C94   H34   S    
C77   C79   A    
C45   O3    A    
C12   C67   S    
C105  H83   S    
Cr4   O14   S    
C100  H59   S    
C27   C31   S    
C3    N9    S    
C31   H6    S    
C95   H37   S    
C28   C32   S    
C19   C22   S    
N2    H24   S    
C91   H22   S    
N15   H81   S    
C89   N17   S    
C101  H63   S    
C90   O18   A    
N11   H62   S    
C72   C73   A    
Cr6   O19   S    
C24   N3    S    
C27   C35   S    
C58   C59   A    
C63   C64   A    
C46   C51   S    
C92   H27   S    
C104  H80   S    
C41   H7    S    
C98   H50   S    
C97   H48   S    
C4    N14   S    
C7    N16   S    
C77   H16   S    
C35   C39   S    
C75   C76   A    
C5    C9    A    
C62   C63   A    
C92   H26   S    
C40   H8    S    
C94   H35   S    
N13   C103  S    
C47   C48   S    
C34   C69   S    
C50   H9    S    
C7    C13   A    
C60   O28   S    
C86   O6    A    
C104  H79   S    
O32   H85   S    
C8    C9    A    
C57   C58   A    
Cr6   O11   S    
C69   C74   A    
N12   H66   S    
Cr4   O19   S    
N14   C104  S    
Cr2   O26   S    
C43   C45   S    
C96   H43   S    
N3    H28   S    
C49   H10   S    
C100  H60   S    
N8    H49   S    
C107  H93   S    
Cr1   O24   S    
Cr4   O7    S    
C99   H56   S    
C40   C41   S    
N12   C102  S    
C75   O29   S    
O30   H75   S    
C18   N6    S    
C55   C57   A    
N5    H36   S    
C34   O26   A    
C15   H19   S    
C56   O4    A    
Cr2   O20   S    
C42   C88   S    
Cr3   O3    S    
C88   O17   A    
N8    C98   S    
C3    C4    A    
N9    C99   S    
C41   C50   S    
N1    C91   S    
C79   C80   A    
C14   C21   S    
C107  H92   S    
C94   H33   S    
C9    C10   S    
C53   C56   S    
C45   O2    A    
C16   C25   T    
C40   C48   S    
C83   C90   S    
C105  H82   S    
C15   C24   S    
C62   N12   S    
C103  H73   S    
C102  H67   S    
C12   O22   A    
C93   H31   S    
C46   C49   S    
C1    O12   A    
C20   C22   S    
C80   C81   S    
C102  H69   S    
C4    C67   A    
Cr6   O18   S    
C58   H12   S    
Cr4   O13   S    
C47   N7    S    
C20   N5    S    
C92   H25   S    
C5    H5    S    
C62   C68   A    
C91   H21   S    
C33   H4    S    
O28   H53   S    
C87   O14   A    
C29   C86   S    
C2    C3    A    
C56   O24   A    
C28   C37   S    
C71   C72   A    
C65   C66   T    
C64   C65   S    
C6    C13   A    
C61   C68   A    
N13   H70   S    
C5    C6    A    
C22   N4    S    
C36   C37   S    
C101  H65   S    
N6    C96   S    
C48   C50   S    
C61   N8    S    
C33   C35   S    
C96   H42   S    
N16   C106  S    
Cr6   O10   S    
C36   H3    S    
C18   C20   S    
Cr5   O19   S    
Cr2   O5    S    
N14   H77   S    
C19   C25   S    
C76   H14   S    
C97   H47   S    
N17   H90   S    
Cr3   O22   S    
C10   C11   T    
Cr1   O25   S    
Cr4   O6    S    
C104  H78   S    
C48   C52   S    
C20   C21   S    
C101  H64   S    
C106  H88   S    
C12   O21   A    
C21   C24   S    
C13   C85   S    
C27   C28   S    
N1    H20   S    
C68   C87   S    
C90   O13   A    
C14   C15   S    
C60   C61   A    
Cr3   O4    S    
C88   O16   A    
C8    O32   S    
C1    O20   A    
N11   C101  S    
C84   O7    A    
N10   C100  S    
C72   C82   S    
N7    H45   S    
C97   H46   S    
Cr5   O8    S    
C107  H91   S    
C106  H89   S    
