data_mof_unit_48244.cif
_audit_creation_date              2012-12-10T16:53:07-0500
_audit_creation_method            fapswitch 2.2
_symmetry_space_group_name_H-M    P1
_symmetry_Int_Tables_number       1
_space_group_crystal_system       triclinic
_cell_length_a                    10.863462
_cell_length_b                    10.939235
_cell_length_c                    9.656752
_cell_angle_alpha                 90.068567
_cell_angle_beta                  89.460291
_cell_angle_gamma                 90.13111
_cell_volume                      1147.53403423

loop_
_atom_site_label
_atom_site_type_symbol
_atom_type_description
_atom_site_fract_x
_atom_site_fract_y
_atom_site_fract_z
_atom_type_partial_charge
C1    C     C_R   0.501506 0.265269 0.500001 0.851910
C2    C     C_R   0.059449 0.491278 0.634272 0.105552
C3    C     C_R   0.126779 0.508227 0.507924 -0.100998
C4    C     C_R   0.063796 0.513376 0.382194 -0.209258
C5    C     C_R   0.937082 0.503411 0.379874 -0.211381
C6    C     C_R   0.871282 0.477332 0.501501 -0.091454
C7    C     C_2   0.504720 0.932923 0.386477 -0.164294
C8    C     C_2   0.492915 0.866667 0.502517 -0.313462
C9    C     C_2   0.499847 0.066836 0.386251 -0.154578
C10   C     C_2   0.507561 0.133412 0.502373 -0.321315
C11   C     C_2   0.417866 0.442551 0.922813 -0.216251
C12   C     C_R   0.261770 0.505611 0.501896 0.800074
C13   C     C_2   0.425904 0.430043 0.080170 0.591410
C14   C     C_R   0.498717 0.734753 0.500159 0.850078
C15   C     C_R   0.737306 0.489397 0.499898 0.792361
C16   C     C_R   0.109394 0.508959 0.767981 -0.252073
C17   C     C_R   0.048382 0.466542 0.886067 -0.271512
C18   C     C_R   0.935763 0.404913 0.874060 0.547508
C19   C     C_R   0.878444 0.403114 0.745245 -0.225005
C20   C     C_R   0.935026 0.456143 0.626724 0.024467
Cu1   Cu    Cu3+1 0.500020 0.500020 0.638630 0.939090
Cu2   Cu    Cu3+1 0.499980 0.499980 0.361370 0.991131
H1    H     H_    0.521094 0.092731 0.603077 0.146497
H2    H     H_    0.341268 0.400180 0.870237 0.178934
H3    H     H_    0.576832 0.531026 0.893416 0.202934
H4    H     H_    0.549530 0.565133 0.103976 0.144288
H5    H     H_    0.089362 0.482060 0.986285 0.151772
H6    H     H_    0.890613 0.516883 0.282310 0.186516
H7    H     H_    0.476373 0.907604 0.602941 0.145753
H8    H     H_    0.491588 0.111351 0.286318 0.176304
N1    N     N_2   0.498640 0.498660 0.846910 -0.301793
N2    N     N_2   0.498610 0.498630 0.153040 -0.307719
O1    O     O_R   0.500020 0.321960 0.617040 -0.584350
O2    O     O_R   0.499980 0.321920 0.382900 -0.530184
O3    O     O_R   0.319670 0.500020 0.617100 -0.596889
O4    O     O_R   0.319630 0.499980 0.382950 -0.535412
O5    O     O_R   0.500020 0.678080 0.617100 -0.576334
O6    O     O_R   0.499980 0.678040 0.382960 -0.585789
O7    O     O_R   0.680370 0.500020 0.617050 -0.585493
O8    O     O_R   0.680330 0.499980 0.382900 -0.577525
H9    H     H_    0.112281 0.527951 0.285018 0.171616
O9    O     O_3   0.346572 0.352611 0.152924 -0.535678
C21   C     C_3   0.322169 0.243559 0.079978 -0.392109
H10   H     H_    0.406138 0.205485 0.028910 0.160612
H11   H     H_    0.247442 0.257817 0.004062 0.157189
H12   H     H_    0.288571 0.174142 0.155049 0.193853
H13   H     H_    0.191907 0.561303 0.785482 0.190567
O10   O     O_3   0.871925 0.358791 0.987746 -0.589720
C22   C     C_3   0.948436 0.282624 0.067411 -0.335229
H14   H     H_    0.011068 0.337568 0.133132 0.177936
H15   H     H_    0.001810 0.217317 0.001805 0.152236
H16   H     H_    0.889351 0.227703 0.138147 0.197230
H17   H     H_    0.790722 0.356670 0.738937 0.172925
H18   H     H_    0.516765 0.888092 0.286833 0.165063

loop_
_geom_bond_atom_site_label_1
_geom_bond_atom_site_label_2
_ccdc_geom_bond_type
H3    N1    S    
C21   H10   S    
H4    N2    S    
Cu1   O3    S    
C10   H1    S    
C12   O4    A    
C5    H6    S    
C2    C16   A    
C9    C10   D    
C13   N2    D    
C19   C20   A    
Cu1   O7    S    
C22   H16   S    
Cu2   O8    S    
C19   H17   S    
C2    C3    A    
C11   N1    D    
C7    C8    D    
Cu1   Cu2   S    
C14   O5    A    
C21   H11   S    
C15   O7    A    
Cu1   N1    S    
C16   C17   A    
Cu2   N2    S    
C9    H8    S    
C8    H7    S    
C16   H13   S    
O10   C22   S    
C1    O2    A    
C17   C18   A    
C5    C6    A    
Cu2   O2    S    
C21   H12   S    
C12   O3    A    
C15   O8    A    
Cu1   O1    S    
O9    C21   S    
C1    O1    A    
C14   O6    A    
C17   H5    S    
C11   H2    S    
C11   C13   S    
C6    C20   A    
Cu1   O5    S    
C22   H14   S    
C4    H9    S    
C7    C9    S    
C18   C19   A    
C13   O9    S    
C8    C14   S    
C3    C12   S    
C7    H18   S    
C6    C15   S    
C2    C20   A    
Cu2   O4    S    
C1    C10   S    
C3    C4    A    
C18   O10   S    
C4    C5    A    
C22   H15   S    
Cu2   O6    S    
