data_mof_unit_67429.cif
_audit_creation_date              2013-03-05T15:40:04-0500
_audit_creation_method            fapswitch 2.2
_symmetry_space_group_name_H-M    P1
_symmetry_Int_Tables_number       1
_space_group_crystal_system       triclinic
_cell_length_a                    7.527879
_cell_length_b                    8.673378
_cell_length_c                    11.012621
_cell_angle_alpha                 88.114385
_cell_angle_beta                  71.61466
_cell_angle_gamma                 103.002545
_cell_volume                      660.632272566

loop_
_atom_site_label
_atom_site_type_symbol
_atom_site_description
_atom_site_fract_x
_atom_site_fract_y
_atom_site_fract_z
_atom_type_partial_charge
O1    O     O_R   0.622710 0.286400 0.490790 -0.553500
O2    O     O_R   0.377290 0.713600 0.509210 -0.521176
O3    O     O_R   0.303660 0.256330 0.514730 -0.644120
O4    O     O_R   0.696340 0.743670 0.485270 -0.609133
C1    C     C_R   0.451951 0.199715 0.503705 0.843934
C2    C     C_R   0.548505 0.800387 0.494587 0.863330
O5    O     O_R   0.600900 0.509520 0.671740 -0.553572
O6    O     O_R   0.399100 0.490480 0.328260 -0.585581
O7    O     O_R   0.281840 0.479450 0.695690 -0.570447
O8    O     O_R   0.718160 0.520550 0.304310 -0.609877
C3    C     C_R   0.420719 0.486806 0.743154 0.729875
C4    C     C_R   0.578908 0.510396 0.256919 0.722560
Cu1   Cu    Cu3+1 0.688910 0.517800 0.485820 1.004346
Cu2   Cu    Cu3+1 0.311090 0.482200 0.514180 1.007639
H1    H     H_    0.332072 0.445489 0.133311 0.192757
H2    H     H_    0.667016 0.527553 0.867894 0.222751
C5    C     C_2   0.373079 0.466347 0.882624 0.248012
C6    C     C_2   0.625538 0.522586 0.117587 0.253004
C7    C     C_2   0.517714 0.493999 0.931412 -0.241867
C8    C     C_2   0.480914 0.483424 0.069452 -0.264269
C9    C     C_2   0.425121 0.031347 0.505902 -0.373924
C10   C     C_2   0.575796 0.968898 0.489364 -0.376938
H3    H     H_    0.280040 0.958453 0.522149 0.197232
H4    H     H_    0.720893 0.041873 0.472229 0.173575
N1    N     N_2   0.027170 0.455360 0.535550 0.127792
N2    N     N_2   0.972830 0.544640 0.464450 0.124326
O9    O     O_3   0.816797 0.567083 0.037800 -0.535045
C11   C     C_3   0.873562 0.734695 0.011019 0.071515
H5    H     H_    0.891147 0.790066 0.097450 0.114468
H6    H     H_    0.766758 0.782526 0.980299 0.127891
C12   C     C_3   0.065856 0.782517 0.901594 -0.732104
H7    H     H_    0.050815 0.729643 0.813732 0.263941
H8    H     H_    0.112593 0.914108 0.879942 0.160247
H9    H     H_    0.178009 0.740172 0.928917 0.263306
O10   O     O_3   0.181325 0.425074 0.961668 -0.538365
C13   C     C_3   0.118440 0.257232 0.983919 0.092571
H10   H     H_    0.210378 0.205891 0.027592 0.127389
H11   H     H_    0.121426 0.205076 0.892591 0.114126
C14   C     C_3   0.912071 0.209505 0.077079 -0.734465
H12   H     H_    0.814324 0.252049 0.034172 0.266868
H13   H     H_    0.863133 0.077861 0.097933 0.164028
H14   H     H_    0.904256 0.262012 0.168749 0.251095
O11   O     O_3   0.877711 0.370935 0.636280 -0.472474
C15   C     C_3   0.913398 0.224830 0.665688 0.211517
H15   H     H_    0.029574 0.242398 0.708792 0.169532
H16   H     H_    0.948699 0.160851 0.578677 0.134476
C16   C     C_3   0.731774 0.121259 0.765433 -0.905439
H17   H     H_    0.609752 0.099740 0.726937 0.253571
H18   H     H_    0.757726 0.005032 0.790348 0.207367
H19   H     H_    0.691770 0.181305 0.854041 0.252148
O12   O     O_3   0.117180 0.670521 0.398111 -0.480359
C17   C     C_3   0.095175 0.709251 0.279996 0.200651
H20   H     H_    0.970733 0.762554 0.294519 0.161324
H21   H     H_    0.080574 0.602979 0.226521 0.176259
C18   C     C_3   0.274828 0.834225 0.198634 -0.893812
H22   H     H_    0.404605 0.786137 0.179679 0.243940
H23   H     H_    0.259561 0.869398 0.105386 0.207816
H24   H     H_    0.294882 0.941663 0.249865 0.249286

loop_
_geom_bond_atom_site_label_1
_geom_bond_atom_site_label_2
_geom_bond_distance
_ccdc_geom_bond_type
O5    Cu1   1.936345 S    
O7    Cu2   1.939462 S    
C12   H8    1.109848 S    
C16   H19   1.110306 S    
N2    O12   1.348867 S    
C7    C8    1.452533 S    
C15   C16   1.522470 S    
O6    C4    1.301640 A    
C18   H22   1.110135 S    
C11   C12   1.521904 S    
N1    O11   1.349492 S    
O9    C11   1.412705 S    
C11   H6    1.115987 S    
C12   H9    1.109391 S    
C16   H18   1.110812 S    
C14   H13   1.110070 S    
O8    Cu1   1.939462 S    
Cu1   Cu2   2.705621 S    
C17   H20   1.105495 S    
O5    C3    1.301436 A    
O7    C3    1.298914 A    
O2    C2    1.295488 A    
O3    Cu2   1.946989 S    
O8    C4    1.298311 A    
H2    C7    1.086597 S    
O1    C1    1.296391 A    
Cu2   N1    2.032954 S    
C13   H11   1.112181 S    
C11   H5    1.111357 S    
C5    C7    1.338531 D    
C17   C18   1.522764 S    
C17   H21   1.113313 S    
C14   H14   1.111246 S    
C6    C8    1.338335 D    
C18   H23   1.109240 S    
O11   C15   1.401416 S    
H1    C8    1.086318 S    
O2    Cu2   1.950631 S    
C10   H4    1.086418 S    
Cu1   N2    2.032954 S    
O1    Cu1   1.950631 S    
O12   C17   1.401593 S    
C2    C10   1.426038 S    
C14   H12   1.109465 S    
C1    C9    1.426809 S    
C15   H15   1.104563 S    
O4    C2    1.291768 A    
C18   H24   1.111068 S    
C4    C6    1.456598 S    
O4    Cu1   1.946988 S    
C13   H10   1.114978 S    
O6    Cu2   1.936344 S    
C5    O10   1.387054 S    
N1    N2    1.297974 D    
C9    C10   1.328803 D    
C9    H3    1.087711 S    
C13   C14   1.521385 S    
C12   H7    1.110991 S    
C3    C5    1.457787 S    
C6    O9    1.386927 S    
C16   H17   1.109967 S    
C15   H16   1.112411 S    
O3    C1    1.291173 A    
O10   C13   1.413017 S    
