data_mof_unit_62794.cif
_audit_creation_date              2012-12-10T18:53:11-0500
_audit_creation_method            fapswitch 2.2
_symmetry_space_group_name_H-M    P1
_symmetry_Int_Tables_number       1
_space_group_crystal_system       triclinic
_cell_length_a                    28.400575
_cell_length_b                    26.745848
_cell_length_c                    18.281191
_cell_angle_alpha                 90.653732
_cell_angle_beta                  90.020236
_cell_angle_gamma                 89.824064
_cell_volume                      13885.3762484

loop_
_atom_site_label
_atom_site_type_symbol
_atom_type_description
_atom_site_fract_x
_atom_site_fract_y
_atom_site_fract_z
_atom_type_partial_charge
C1    C     C_R   0.066298 0.434256 0.499932 0.900126
C2    C     C_R   0.934145 0.566159 0.500540 0.912226
C3    C     C_R   0.932421 0.435375 0.499607 0.888140
C4    C     C_R   0.068272 0.563797 0.500286 0.879921
C5    C     C_R   0.568098 0.935933 0.499680 0.899214
C6    C     C_R   0.433343 0.065624 0.500681 0.922298
C7    C     C_R   0.434105 0.933770 0.499339 0.920534
C8    C     C_R   0.567283 0.064870 0.500189 0.887451
C9    C     C_R   0.254092 0.708041 0.548053 -0.071233
C10   C     C_R   0.769501 0.265321 0.410669 -0.074623
C11   C     C_R   0.762480 0.273914 0.544117 -0.074737
C12   C     C_R   0.229347 0.734920 0.425788 -0.070292
C13   C     C_R   0.785711 0.751059 0.449253 -0.074388
C14   C     C_R   0.235183 0.273652 0.562915 -0.066072
C15   C     C_R   0.231378 0.266842 0.428726 -0.072739
C16   C     C_R   0.763388 0.725888 0.573494 -0.069999
C17   C     C_R   0.731099 0.233443 0.544890 -0.072272
C18   C     C_R   0.265722 0.770831 0.425827 -0.071734
C19   C     C_R   0.287487 0.746903 0.550812 -0.072255
C20   C     C_R   0.731996 0.230611 0.410556 -0.075912
C21   C     C_R   0.266535 0.229417 0.429807 -0.071891
C22   C     C_R   0.727170 0.762152 0.574093 -0.067653
C23   C     C_R   0.752009 0.789730 0.452193 -0.072069
C24   C     C_R   0.270572 0.236536 0.563950 -0.064879
C25   C     C_R   0.784081 0.287896 0.477494 -0.058225
C26   C     C_R   0.223507 0.703575 0.487004 -0.064997
C27   C     C_R   0.215788 0.288749 0.495299 -0.078178
C28   C     C_R   0.791618 0.719378 0.510122 -0.066648
C29   C     C_R   0.293583 0.778138 0.489470 -0.065322
C30   C     C_R   0.713621 0.213557 0.477936 -0.056084
C31   C     C_R   0.721475 0.793879 0.513295 -0.066680
C32   C     C_R   0.285923 0.214348 0.497428 -0.080383
C33   C     C_R   0.999251 0.500282 0.078279 -0.248960
C34   C     C_R   0.998787 0.500594 0.922224 -0.224308
C35   C     C_R   0.505378 0.998982 0.077917 -0.232302
C36   C     C_R   0.505688 0.999292 0.921921 -0.230479
C37   C     C_R   0.015644 0.459024 0.723442 -0.010843
C38   C     C_R   0.999743 0.544365 0.278476 -0.038555
C39   C     C_R   0.984278 0.541344 0.723814 -0.018107
C40   C     C_R   0.000002 0.455750 0.276863 -0.038669
C41   C     C_R   0.514561 0.957954 0.721420 -0.038483
C42   C     C_R   0.514472 0.041555 0.277834 -0.034505
C43   C     C_R   0.485578 0.041145 0.725190 -0.016719
C44   C     C_R   0.486596 0.958204 0.275585 -0.017041
C45   C     C_R   0.015113 0.459047 0.800821 0.503763
C46   C     C_R   0.999229 0.544890 0.201222 0.522435
C47   C     C_R   0.983421 0.541584 0.801232 0.505055
C48   C     C_R   0.000030 0.455344 0.199565 0.523128
C49   C     C_R   0.519172 0.958363 0.798559 0.522657
C50   C     C_R   0.518490 0.040804 0.200670 0.515662
C51   C     C_R   0.487911 0.041226 0.802465 0.510444
C52   C     C_R   0.488231 0.957718 0.198221 0.510337
C53   C     C_R   0.142960 0.594689 0.440320 -0.032884
C54   C     C_R   0.889820 0.359111 0.545336 -0.084432
C55   C     C_R   0.857225 0.403882 0.440597 -0.030551
C56   C     C_R   0.117995 0.633188 0.556347 -0.066331
C57   C     C_R   0.850232 0.592345 0.518293 -0.031810
C58   C     C_R   0.094767 0.346355 0.480454 -0.034509
C59   C     C_R   0.151022 0.411510 0.518331 -0.031815
C60   C     C_R   0.910135 0.655927 0.491962 -0.041112
C61   C     C_R   0.645321 0.092781 0.448944 -0.020209
C62   C     C_R   0.410838 0.843834 0.510577 -0.052211
C63   C     C_R   0.350816 0.905737 0.476043 -0.043323
C64   C     C_R   0.606007 0.144856 0.541321 -0.093780
C65   C     C_R   0.350349 0.092963 0.533065 -0.059308
C66   C     C_R   0.616134 0.864750 0.444701 -0.064915
C67   C     C_R   0.643352 0.905134 0.558034 -0.031220
C68   C     C_R   0.404844 0.152829 0.476729 -0.053304
C69   C     C_R   0.179525 0.629628 0.436636 -0.119154
C70   C     C_R   0.858852 0.320044 0.530776 -0.148268
C71   C     C_R   0.821938 0.367466 0.435357 -0.120182
C72   C     C_R   0.152416 0.669647 0.547630 -0.139134
C73   C     C_R   0.815761 0.629758 0.517079 -0.108908
C74   C     C_R   0.131998 0.311961 0.477738 -0.112218
C75   C     C_R   0.187306 0.376109 0.513933 -0.099897
C76   C     C_R   0.875040 0.692562 0.496356 -0.123923
C77   C     C_R   0.679862 0.129820 0.442559 -0.109486
C78   C     C_R   0.376443 0.806609 0.506334 -0.127945
C79   C     C_R   0.316880 0.867858 0.478216 -0.112658
C80   C     C_R   0.636596 0.183687 0.525135 -0.153701
C81   C     C_R   0.314670 0.129193 0.528393 -0.114083
C82   C     C_R   0.649971 0.827616 0.454009 -0.144441
C83   C     C_R   0.679107 0.869080 0.562578 -0.113143
C84   C     C_R   0.368100 0.187673 0.473464 -0.113925
C85   C     C_R   0.183972 0.667442 0.489384 0.099757
C86   C     C_R   0.822916 0.325153 0.479406 0.101409
C87   C     C_R   0.828079 0.679748 0.507651 0.087759
C88   C     C_R   0.177818 0.326572 0.494568 0.086355
C89   C     C_R   0.675409 0.175602 0.479695 0.098012
C90   C     C_R   0.329539 0.818359 0.491851 0.089574
C91   C     C_R   0.323362 0.175925 0.498546 0.091790
C92   C     C_R   0.682129 0.830194 0.511346 0.101670
C93   C     C_R   0.965019 0.473247 0.961197 0.547691
C94   C     C_R   0.033237 0.527401 0.038891 0.561657
C95   C     C_R   0.032781 0.527789 0.961893 0.546707
C96   C     C_R   0.965009 0.473344 0.038219 0.562297
C97   C     C_R   0.463044 0.998303 0.961189 0.553994
C98   C     C_R   0.548066 0.000264 0.038711 0.552125
C99   C     C_R   0.548226 0.999989 0.961565 0.553751
C100  C     C_R   0.462897 0.997805 0.038157 0.556083
C101  C     C_R   0.998880 0.500343 0.840270 0.033569
C102  C     C_R   0.999498 0.500157 0.160686 -0.009448
C103  C     C_R   0.505441 0.000062 0.839818 0.017187
C104  C     C_R   0.504873 0.998859 0.160065 0.017246
C105  C     C_R   0.110527 0.596758 0.500052 -0.174832
C106  C     C_R   0.891934 0.400302 0.497043 -0.154470
C107  C     C_R   0.897800 0.605139 0.503176 -0.149860
C108  C     C_R   0.104262 0.396862 0.500352 -0.149764
C109  C     C_R   0.607474 0.100097 0.499164 -0.168378
C110  C     C_R   0.398121 0.894260 0.496166 -0.155264
C111  C     C_R   0.395779 0.103980 0.503451 -0.149900
C112  C     C_R   0.610009 0.902389 0.499686 -0.153940
Cu1   Cu    Cu3+1 0.000000 0.500000 0.573360 1.111269
Cu2   Cu    Cu3+1 0.000000 0.500000 0.426640 1.060731
Cu3   Cu    Cu3+1 0.500000 0.000000 0.573360 1.083279
Cu4   Cu    Cu3+1 0.500000 0.000000 0.426640 1.091149
H1    H     H_    0.205236 0.627044 0.392917 0.174787
H2    H     H_    0.859840 0.287062 0.564716 0.179778
H3    H     H_    0.793254 0.372240 0.396936 0.173764
H4    H     H_    0.156587 0.698644 0.589105 0.173814
H5    H     H_    0.779148 0.620381 0.526300 0.181004
H6    H     H_    0.125351 0.273044 0.464166 0.180769
H7    H     H_    0.223110 0.386626 0.527623 0.180768
H8    H     H_    0.884169 0.731677 0.490843 0.178923
H9    H     H_    0.710761 0.122713 0.409235 0.174388
H10   H     H_    0.386176 0.767803 0.514177 0.176353
H11   H     H_    0.280367 0.876278 0.466172 0.188502
H12   H     H_    0.632966 0.219129 0.554015 0.179328
H13   H     H_    0.279754 0.121827 0.549496 0.193378
H14   H     H_    0.653454 0.797919 0.413401 0.173992
H15   H     H_    0.705564 0.871889 0.605196 0.172536
H16   H     H_    0.374483 0.225080 0.453529 0.180066
N1    N     N_R   0.000000 0.500000 0.683620 -0.283179
N2    N     N_R   1.000000 0.500000 0.316380 -0.315651
N3    N     N_R   0.500000 0.000000 0.683620 -0.297896
N4    N     N_R   0.500000 0.000000 0.316380 -0.295906
O1    O     O_R   0.049900 0.450090 0.561980 -0.561252
O2    O     O_R   0.950100 0.549910 0.438020 -0.550707
O3    O     O_R   0.950100 0.549910 0.561980 -0.563637
O4    O     O_R   0.049900 0.450090 0.438020 -0.554639
O5    O     O_R   0.950100 0.450090 0.438020 -0.573234
O6    O     O_R   0.049900 0.549910 0.561980 -0.506973
O7    O     O_R   0.049900 0.549910 0.438020 -0.576450
O8    O     O_R   0.950100 0.450090 0.561980 -0.510546
O9    O     O_R   0.549900 0.950090 0.561980 -0.604864
O10   O     O_R   0.450100 0.049910 0.438020 -0.532805
O11   O     O_R   0.450100 0.049910 0.561980 -0.559485
O12   O     O_R   0.549900 0.950090 0.438020 -0.507594
O13   O     O_R   0.450100 0.950090 0.438020 -0.561224
O14   O     O_R   0.549900 0.049910 0.561980 -0.520884
O15   O     O_R   0.549900 0.049910 0.438020 -0.596979
O16   O     O_R   0.450100 0.950090 0.561980 -0.523660
C113  C     C_2   0.035211 0.413409 0.689543 1.025512
O17   O     O_2   0.010875 0.387125 0.650099 -0.559808
O18   O     O_R   0.081663 0.399485 0.704732 -0.680802
H17   H     H_    0.091347 0.367576 0.678206 0.356160
C114  C     C_2   0.999794 0.593214 0.316001 1.038508
O19   O     O_2   0.962501 0.614674 0.328012 -0.547831
O20   O     O_R   0.042513 0.617345 0.329695 -0.713204
H18   H     H_    0.038108 0.651722 0.352617 0.352128
C115  C     C_2   0.967691 0.587764 0.689964 1.015692
O21   O     O_2   0.993957 0.611956 0.651492 -0.558018
O22   O     O_R   0.922008 0.604934 0.704177 -0.676256
H19   H     H_    0.914495 0.637148 0.677812 0.352332
C116  C     C_2   0.000241 0.406982 0.312756 1.037851
O23   O     O_2   0.037654 0.385635 0.323478 -0.550928
O24   O     O_R   0.957636 0.382835 0.326394 -0.713758
H20   H     H_    0.962228 0.348323 0.347612 0.349604
C117  C     C_2   0.520505 0.908899 0.685570 1.015011
O25   O     O_2   0.486699 0.888380 0.657317 -0.563479
O26   O     O_R   0.563765 0.884050 0.689622 -0.688982
H21   H     H_    0.563312 0.850310 0.663771 0.349921
C118  C     C_2   0.521423 0.090286 0.313175 1.021990
O27   O     O_2   0.487400 0.113209 0.336554 -0.566985
O28   O     O_R   0.566116 0.112038 0.314083 -0.692844
H22   H     H_    0.566230 0.146143 0.338872 0.347386
C119  C     C_2   0.463107 0.085456 0.693418 1.034180
O29   O     O_2   0.485453 0.113404 0.654502 -0.562814
O30   O     O_R   0.416154 0.096333 0.710383 -0.682239
H23   H     H_    0.404372 0.127666 0.685479 0.348729
C120  C     C_2   0.467924 0.912579 0.308789 1.015568
O31   O     O_2   0.492550 0.887483 0.348838 -0.561721
O32   O     O_R   0.422097 0.897221 0.292178 -0.671066
H24   H     H_    0.413008 0.865438 0.318326 0.352574
F1    F     F_    0.030591 0.418340 0.837896 -0.578072
F2    F     F_    0.997400 0.589297 0.165817 -0.560213
F3    F     F_    0.967980 0.582694 0.838724 -0.575310
F4    F     F_    0.001614 0.410999 0.162500 -0.560110
F5    F     F_    0.533653 0.916514 0.833781 -0.566941
F6    F     F_    0.532727 0.082433 0.164904 -0.568480
F7    F     F_    0.473168 0.081991 0.841440 -0.576190
F8    F     F_    0.474505 0.916300 0.160045 -0.574882
C121  C     C_2   0.141891 0.555489 0.382153 0.922969
O33   O     O_2   0.133115 0.512098 0.397155 -0.583208
O34   O     O_R   0.152843 0.568087 0.310117 -0.691433
H25   H     H_    0.151213 0.538323 0.275369 0.368770
C122  C     C_2   0.916362 0.355675 0.614423 0.960177
O35   O     O_2   0.913906 0.389606 0.659664 -0.505757
O36   O     O_R   0.939862 0.311230 0.631284 -0.709763
H26   H     H_    0.953910 0.311806 0.682272 0.377575
C123  C     C_2   0.854925 0.445257 0.386948 0.914896
O37   O     O_2   0.866936 0.487593 0.404034 -0.588173
O38   O     O_R   0.837474 0.435775 0.316598 -0.698134
H27   H     H_    0.837331 0.466671 0.284969 0.369167
C124  C     C_2   0.093031 0.634380 0.627131 0.958976
O39   O     O_2   0.093707 0.597763 0.666567 -0.506539
O40   O     O_R   0.072970 0.679233 0.652125 -0.707792
H28   H     H_    0.059376 0.676482 0.703190 0.375767
C125  C     C_2   0.834767 0.540916 0.536711 0.898319
O41   O     O_2   0.860659 0.512830 0.570447 -0.566478
O42   O     O_R   0.789494 0.525088 0.517386 -0.719358
H29   H     H_    0.782943 0.489477 0.532802 0.357968
C126  C     C_2   0.046544 0.327439 0.464665 0.910302
O43   O     O_2   0.041340 0.289991 0.426454 -0.529654
O44   O     O_R   0.007077 0.351155 0.494564 -0.764748
H30   H     H_    0.976757 0.333666 0.480492 0.329732
C127  C     C_2   0.163862 0.463090 0.541896 0.880684
O45   O     O_2   0.137197 0.488032 0.580050 -0.558696
O46   O     O_R   0.207667 0.482593 0.522319 -0.713791
H31   H     H_    0.212479 0.517968 0.541381 0.365895
C128  C     C_2   0.959048 0.672864 0.477225 0.900023
O47   O     O_2   0.965618 0.711229 0.442878 -0.529943
O48   O     O_R   0.997625 0.646333 0.503752 -0.761424
H32   H     H_    0.028569 0.663092 0.491660 0.331306
C129  C     C_2   0.651782 0.046301 0.404804 0.921921
O49   O     O_2   0.639450 0.005948 0.428617 -0.570734
O50   O     O_R   0.673585 0.048599 0.336342 -0.696600
H33   H     H_    0.676301 0.014596 0.311584 0.373459
C130  C     C_2   0.459721 0.827598 0.527337 0.937883
O51   O     O_2   0.466364 0.790850 0.565321 -0.526663
O52   O     O_R   0.498219 0.852847 0.498529 -0.753037
H34   H     H_    0.529200 0.837018 0.513343 0.328407
C131  C     C_2   0.335002 0.955712 0.449988 0.864080
O53   O     O_2   0.362965 0.985338 0.424344 -0.578305
O54   O     O_R   0.287122 0.968179 0.451876 -0.720752
H35   H     H_    0.280512 0.002673 0.431746 0.370212
C132  C     C_2   0.576641 0.151774 0.606986 0.958919
O55   O     O_2   0.579192 0.121524 0.656472 -0.529665
O56   O     O_R   0.550213 0.195628 0.615913 -0.710562
H36   H     H_    0.534134 0.197854 0.665339 0.376836
C133  C     C_2   0.337831 0.045339 0.570541 0.871623
O57   O     O_2   0.368009 0.015706 0.589749 -0.571800
O58   O     O_R   0.290604 0.034826 0.585757 -0.720372
H37   H     H_    0.286374 0.001743 0.611463 0.373753
C134  C     C_2   0.590778 0.863247 0.374260 0.955840
O59   O     O_2   0.591700 0.899381 0.333910 -0.528967
O60   O     O_R   0.570165 0.818491 0.350520 -0.709244
H38   H     H_    0.556482 0.820872 0.299443 0.371844
C135  C     C_2   0.644621 0.946975 0.612121 0.920717
O61   O     O_2   0.655923 0.938982 0.675513 -0.501550
O62   O     O_R   0.635195 0.995813 0.590146 -0.739761
H39   H     H_    0.637863 0.020993 0.631811 0.364478
C136  C     C_2   0.452634 0.170501 0.456735 0.954363
O63   O     O_2   0.457123 0.205331 0.414459 -0.523376
O64   O     O_R   0.492613 0.148795 0.487463 -0.757424
H40   H     H_    0.522640 0.164370 0.468521 0.330360
C137  C     C_2   0.250620 0.672202 0.609605 0.892678
O65   O     O_2   0.251377 0.627185 0.597089 -0.547288
O66   O     O_R   0.245709 0.689979 0.681434 -0.713956
H41   H     H_    0.243379 0.661980 0.718160 0.370966
C138  C     C_2   0.793245 0.278185 0.340925 0.907042
O67   O     O_2   0.836011 0.274096 0.335560 -0.515946
O68   O     O_R   0.766731 0.295451 0.281860 -0.707178
H42   H     H_    0.786919 0.303175 0.237708 0.379056
C139  C     C_2   0.772319 0.302127 0.613143 0.890327
O69   O     O_2   0.765997 0.347366 0.615635 -0.532851
O70   O     O_R   0.789855 0.277213 0.674276 -0.713834
H43   H     H_    0.795610 0.300623 0.717337 0.372186
C140  C     C_2   0.197452 0.730082 0.361545 0.911593
O71   O     O_2   0.154789 0.732831 0.369859 -0.524470
O72   O     O_R   0.216333 0.722188 0.291731 -0.704615
H44   H     H_    0.191143 0.719410 0.252603 0.377891
C141  C     C_2   0.814907 0.743738 0.382327 0.912487
O73   O     O_2   0.816383 0.702789 0.351927 -0.514477
O74   O     O_R   0.840929 0.783591 0.354693 -0.708182
H45   H     H_    0.859463 0.773910 0.309286 0.375456
C142  C     C_2   0.218909 0.297312 0.632641 0.903850
O75   O     O_2   0.176857 0.299693 0.646712 -0.553259
O76   O     O_R   0.251844 0.316835 0.682045 -0.712103
H46   H     H_    0.236545 0.331898 0.727322 0.370598
C143  C     C_2   0.209959 0.282299 0.358073 0.917864
O77   O     O_2   0.206266 0.326656 0.343486 -0.521159
O78   O     O_R   0.193847 0.245994 0.308522 -0.709639
H47   H     H_    0.179992 0.261087 0.262642 0.373235
C144  C     C_2   0.771387 0.694223 0.638825 0.896112
O79   O     O_2   0.810899 0.690514 0.664885 -0.537639
O80   O     O_R   0.733789 0.668422 0.669993 -0.713300
H48   H     H_    0.743712 0.648105 0.713897 0.370943
C145  C     C_2   0.717232 0.211266 0.616035 0.891105
O81   O     O_2   0.723719 0.166690 0.626498 -0.526660
O82   O     O_R   0.695851 0.241033 0.670006 -0.716887
H49   H     H_    0.687629 0.221451 0.715381 0.369771
C146  C     C_2   0.274358 0.801216 0.359456 0.896177
O83   O     O_2   0.314053 0.803812 0.333877 -0.537761
O84   O     O_R   0.237207 0.827179 0.326862 -0.709731
H50   H     H_    0.247584 0.846601 0.282413 0.373867
C147  C     C_2   0.316020 0.754977 0.618194 0.909767
O85   O     O_2   0.316413 0.796064 0.648249 -0.518774
O86   O     O_R   0.342665 0.715690 0.646658 -0.709306
H51   H     H_    0.360662 0.725865 0.692327 0.373933
C148  C     C_2   0.712307 0.211809 0.340078 0.905222
O87   O     O_2   0.669963 0.214635 0.328558 -0.522124
O88   O     O_R   0.742105 0.190369 0.287470 -0.705592
H52   H     H_    0.724486 0.178780 0.242148 0.379641
C149  C     C_2   0.283891 0.206725 0.360037 0.916141
O89   O     O_2   0.286737 0.161267 0.353260 -0.530825
O90   O     O_R   0.297113 0.237513 0.302302 -0.710338
H53   H     H_    0.308308 0.217777 0.257906 0.372110
C150  C     C_2   0.695443 0.767173 0.638553 0.909221
O91   O     O_2   0.652720 0.765907 0.630321 -0.537830
O92   O     O_R   0.714570 0.773523 0.708512 -0.703338
H54   H     H_    0.689495 0.776575 0.747780 0.376295
C151  C     C_2   0.748096 0.825623 0.390723 0.893922
O93   O     O_2   0.748418 0.870635 0.403303 -0.531524
O94   O     O_R   0.743344 0.807872 0.318868 -0.717481
H55   H     H_    0.740703 0.835884 0.282185 0.368616
C152  C     C_2   0.290986 0.220180 0.634877 0.903383
O95   O     O_2   0.333705 0.218651 0.643109 -0.553094
O96   O     O_R   0.261188 0.206474 0.692067 -0.708473
H56   H     H_    0.279161 0.196047 0.737353 0.371220
F9    F     F_    0.931554 0.446913 0.924483 -0.531838
F10   F     F_    0.067689 0.552678 0.074974 -0.522549
F11   F     F_    0.066153 0.554101 0.925850 -0.533622
F12   F     F_    0.930805 0.447883 0.073708 -0.520829
F13   F     F_    0.421385 0.997340 0.924767 -0.526701
F14   F     F_    0.589677 0.001168 0.075242 -0.529106
F15   F     F_    0.589958 0.001124 0.925469 -0.525034
F16   F     F_    0.421085 0.996907 0.074077 -0.525258

loop_
_geom_bond_atom_site_label_1
_geom_bond_atom_site_label_2
_ccdc_geom_bond_type
C114  O19   D    
C123  O38   S    
O82   H49   S    
C53   C69   A    
C148  O87   D    
C77   C89   A    
C39   C47   A    
C48   F4    S    
C4    O6    A    
C6    O10   A    
C19   C29   A    
O72   H44   S    
Cu1   O6    S    
C42   N4    A    
C23   C151  S    
C79   C90   A    
C9    C19   A    
C52   C104  A    
C56   C124  S    
O74   H45   S    
C10   C20   A    
C56   C72   A    
C36   C97   A    
C84   C91   A    
C121  O33   D    
C13   C141  S    
C150  O92   S    
O36   H26   S    
C5    O12   A    
Cu1   N1    S    
C134  O59   D    
C17   C30   A    
C30   C89   S    
C41   C49   A    
C115  O22   S    
C9    C26   A    
C120  O32   S    
C57   C125  S    
C33   C102  S    
C2    O2    A    
O62   H39   S    
C12   C140  S    
C35   C104  S    
C59   C127  S    
C126  O43   D    
C41   C117  S    
C60   C76   A    
C19   C147  S    
C23   C31   A    
C8    O14   A    
O44   H30   S    
C24   C32   A    
C83   H15   S    
C130  O51   D    
C66   C82   A    
C15   C27   A    
O50   H33   S    
C54   C70   A    
C46   F2    S    
C60   C107  A    
C67   C135  S    
C18   C146  S    
C73   H5    S    
C140  O72   S    
Cu1   O1    S    
C37   C45   A    
C97   F13   S    
C77   H9    S    
C136  O64   S    
C99   F15   S    
C40   C48   A    
C79   H11   S    
C38   C114  S    
C11   C17   A    
Cu1   O8    S    
C71   H3    S    
Cu2   O7    S    
C144  O80   S    
O28   H22   S    
C7    O16   A    
C45   F1    S    
C65   C133  S    
C36   C99   A    
C38   N2    A    
O34   H25   S    
C67   C112  A    
C98   C99   A    
O18   H17   S    
C137  O66   S    
C16   C144  S    
C44   C120  S    
C55   C71   A    
C67   C83   A    
C6    C111  S    
C3    O5    A    
C33   C94   A    
C72   C85   A    
C20   C30   A    
C135  O61   D    
C24   C152  S    
O20   H18   S    
C138  O67   D    
C151  O94   S    
C11   C25   A    
Cu3   Cu4   S    
C55   C123  S    
C13   C23   A    
C122  O36   S    
C133  O57   D    
C14   C24   A    
C68   C136  S    
C61   C77   A    
C119  O30   S    
Cu1   O3    S    
Cu2   O4    S    
C131  O53   D    
C44   C52   A    
C116  O24   S    
C118  O27   D    
C142  O75   D    
C147  O86   S    
Cu4   O13   S    
C145  O81   D    
C118  O28   S    
C5    O9    A    
C76   H8    S    
Cu2   O5    S    
C80   H12   S    
C127  O45   D    
C94   F10   S    
C40   N2    A    
C84   H16   S    
O30   H23   S    
C12   C26   A    
C146  O83   D    
C71   C86   A    
O54   H35   S    
C72   H4    S    
C28   C87   S    
C125  O41   D    
Cu2   N2    S    
C18   C29   A    
C139  O70   S    
C76   C87   A    
C40   C116  S    
C42   C50   A    
C10   C25   A    
C119  O29   D    
C47   F3    S    
C35   C100  A    
C33   C96   A    
C41   N3    A    
C97   C100  A    
C51   F7    S    
C58   C74   A    
C117  O26   S    
O46   H31   S    
C62   C78   A    
O70   H43   S    
C5    C112  S    
C143  O78   S    
C7    C110  S    
C142  O76   S    
Cu4   O10   S    
C6    O11   A    
C64   C109  A    
Cu3   N3    S    
C70   H2    S    
C26   C85   S    
C141  O74   S    
C22   C150  S    
Cu2   O2    S    
C122  O35   D    
C93   F9    S    
C38   C46   A    
C53   C105  A    
O78   H47   S    
C1    O4    A    
Cu4   O15   S    
O66   H41   S    
C44   N4    A    
C50   C104  A    
C9    C137  S    
C53   C121  S    
O56   H36   S    
O92   H54   S    
C115  O21   D    
C1    O1    A    
O68   H42   S    
C120  O31   D    
C78   C90   A    
C54   C122  S    
C36   C103  S    
C2    O3    A    
C51   C103  A    
O58   H37   S    
Cu3   O11   S    
C96   F12   S    
C82   C92   A    
C147  O85   D    
C80   C89   A    
C152  O96   S    
C73   C87   A    
O76   H46   S    
C13   C28   A    
C14   C27   A    
C113  O18   S    
C35   C98   A    
C126  O44   S    
O94   H55   S    
C114  O20   S    
C140  O71   D    
C60   C128  S    
C64   C80   A    
C29   C90   S    
C148  O88   S    
C3    C106  S    
C34   C101  S    
C54   C106  A    
C55   C106  A    
O40   H28   S    
C68   C84   A    
C37   C113  S    
C34   C95   A    
O48   H32   S    
O84   H50   S    
Cu4   O12   S    
C124  O39   D    
O90   H53   S    
O86   H51   S    
C144  O79   D    
C69   C85   A    
C65   C81   A    
O80   H48   S    
C48   C102  A    
C64   C132  S    
C45   C101  A    
C14   C142  S    
C74   H6    S    
C134  O60   S    
C78   H10   S    
O24   H20   S    
Cu1   Cu2   S    
C39   N1    A    
C43   C119  S    
C16   C22   A    
C3    O8    A    
C49   C103  A    
Cu4   N4    S    
Cu3   O9    S    
C20   C148  S    
C10   C138  S    
C130  O52   S    
C43   C51   A    
C151  O93   D    
C136  O63   D    
C58   C108  A    
C94   C95   A    
C50   F6    S    
C56   C105  A    
O96   H56   S    
C81   C91   A    
C58   C126  S    
C128  O48   S    
C149  O89   D    
C98   F14   S    
C145  O82   S    
C74   C88   A    
C66   C134  S    
C16   C28   A    
O26   H21   S    
C116  O23   D    
C47   C101  A    
C117  O25   D    
O22   H19   S    
C34   C93   A    
O32   H24   S    
C61   C109  A    
C4    O7    A    
C63   C79   A    
C150  O91   D    
C83   C92   A    
C46   C102  A    
C75   H7    S    
C137  O65   D    
C32   C91   S    
C49   F5    S    
C57   C73   A    
C2    C107  S    
C52   F8    S    
C65   C111  A    
C129  O50   S    
C7    O13   A    
C81   H13   S    
O42   H29   S    
C121  O34   S    
Cu3   O16   S    
C82   H14   S    
C139  O69   D    
O88   H52   S    
C27   C88   S    
C21   C32   A    
C135  O62   S    
C22   C31   A    
C8    O15   A    
C138  O68   S    
C95   F11   S    
C149  O90   S    
C143  O77   D    
C61   C129  S    
C133  O58   S    
C68   C111  A    
C63   C131  S    
C128  O47   D    
C62   C110  A    
C62   C130  S    
C21   C149  S    
C129  O49   D    
C11   C139  S    
C43   N3    A    
C131  O54   S    
C57   C107  A    
C93   C96   A    
C132  O56   S    
C37   N1    A    
C15   C143  S    
C39   C115  S    
O64   H40   S    
C70   C86   A    
C59   C75   A    
C42   C118  S    
O60   H38   S    
C127  O46   S    
C4    C105  S    
C59   C108  A    
C63   C110  A    
C146  O84   S    
C8    C109  S    
C17   C145  S    
C100  F16   S    
Cu3   O14   S    
C69   H1    S    
C25   C86   S    
C125  O42   S    
C152  O95   D    
C1    C108  S    
C75   C88   A    
C15   C21   A    
C123  O37   D    
C31   C92   S    
C12   C18   A    
O52   H34   S    
O38   H27   S    
C66   C112  A    
C113  O17   D    
C132  O55   D    
C124  O40   S    
C141  O73   D    
