data_mof_unit_38068.cif
_audit_creation_date              2012-12-10T17:17:25-0500
_audit_creation_method            fapswitch 2.2
_symmetry_space_group_name_H-M    P1
_symmetry_Int_Tables_number       1
_space_group_crystal_system       triclinic
_cell_length_a                    10.180607
_cell_length_b                    10.84733
_cell_length_c                    12.530931
_cell_angle_alpha                 90.693876
_cell_angle_beta                  109.93176
_cell_angle_gamma                 95.7266
_cell_volume                      1292.86181325

loop_
_atom_site_label
_atom_site_type_symbol
_atom_type_description
_atom_site_fract_x
_atom_site_fract_y
_atom_site_fract_z
_atom_type_partial_charge
C1    C     C_R   0.053271 0.732422 0.495319 0.923856
C2    C     C_R   0.443478 0.582744 0.984563 0.111898
C3    C     C_R   0.369975 0.584389 0.867377 0.090394
C4    C     C_R   0.583382 0.551173 0.019347 0.030551
C5    C     C_R   0.648231 0.529855 0.937562 0.087876
C6    C     C_R   0.582470 0.561365 0.826026 -0.191612
C7    C     C_R   0.447199 0.594529 0.793168 -0.205819
C8    C     C_R   0.656812 0.532285 0.132118 -0.259175
C9    C     C_R   0.850196 0.464118 0.084508 -0.246734
C10   C     C_R   0.221661 0.574164 0.828086 -0.141501
C11   C     C_2   0.088893 0.864902 0.501424 -0.373856
C12   C     C_R   0.138775 0.528430 0.711027 0.891639
C13   C     C_2   0.007187 0.936255 0.532100 -0.142721
C14   C     C_2   0.926924 0.136924 0.524571 -0.359225
C15   C     C_2   0.029865 0.068046 0.528848 -0.141327
C16   C     C_2   0.430166 0.518905 0.498633 -0.139329
C17   C     C_2   0.567442 0.488655 0.489774 -0.107209
C18   C     C_R   0.950049 0.267974 0.510132 0.965644
C19   C     C_R   0.864541 0.488288 0.286738 0.897872
C20   C     C_R   0.777707 0.479223 0.969887 0.365526
C21   C     C_R   0.790613 0.493607 0.165569 -0.121234
C22   C     C_R   0.153215 0.601853 0.903839 -0.130822
C23   C     C_R   0.228703 0.621605 0.019124 -0.136361
C24   C     C_R   0.371590 0.607777 0.060353 -0.191504
H1    H     H_    0.951382 0.428197 0.109864 0.189409
H2    H     H_    0.917082 0.897581 0.553599 0.188782
H3    H     H_    0.827382 0.096676 0.530090 0.154453
H4    H     H_    0.178710 0.904002 0.479889 0.151779
H5    H     H_    0.567124 0.410587 0.434685 0.159996
H6    H     H_    0.428823 0.604581 0.542985 0.146043
H7    H     H_    0.682227 0.628467 0.594676 0.155487
H8    H     H_    0.319935 0.365534 0.413900 0.167206
H9    H     H_    0.634473 0.560285 0.763909 0.184368
H10   H     H_    0.610849 0.547095 0.195970 0.171246
H11   H     H_    0.041473 0.608202 0.874010 0.202689
H12   H     H_    0.422190 0.619775 0.151106 0.131070
H13   H     H_    0.175171 0.642648 0.077326 0.151265
H14   H     H_    0.402837 0.627541 0.709206 0.162186
H15   H     H_    0.129609 0.107848 0.523222 0.191323
N1    N     N_2   0.313640 0.446500 0.454900 -0.189461
N2    N     N_2   0.686360 0.553430 0.545150 -0.180374
O1    O     O_R   0.936910 0.692950 0.509080 -0.618235
O2    O     O_R   0.138320 0.658600 0.480130 -0.624541
O3    O     O_R   0.002900 0.525670 0.675280 -0.572307
O4    O     O_R   0.204310 0.491320 0.646330 -0.610590
O5    O     O_R   0.861680 0.341400 0.519870 -0.590421
O6    O     O_R   0.063090 0.307050 0.490920 -0.612637
O7    O     O_R   0.795690 0.508680 0.353670 -0.623529
O8    O     O_R   0.997100 0.474330 0.324720 -0.611513
Zn1   Zn    Zn3+2 0.865520 0.522940 0.519330 0.969842
Zn2   Zn    Zn3+2 0.134480 0.477060 0.480670 0.943219
Cl1   Cl    Cl    0.843889 0.420981 0.868862 -0.663580

loop_
_geom_bond_atom_site_label_1
_geom_bond_atom_site_label_2
_ccdc_geom_bond_type
C2    C4    A    
C23   C24   A    
C6    C7    A    
C14   H3    S    
N1    Zn2   S    
C17   H5    S    
C14   C18   S    
C9    C20   A    
C1    C11   S    
C6    H9    S    
C4    C8    A    
O2    Zn2   S    
C18   O6    A    
O7    Zn1   S    
C2    C3    A    
C9    H1    S    
C20   Cl1   S    
C3    C10   A    
C8    H10   S    
C10   C22   A    
C22   H11   S    
C11   C13   D    
C15   H15   S    
C24   H12   S    
C10   C12   S    
C11   H4    S    
O1    Zn1   S    
C18   O5    A    
C19   C21   S    
C7    H14   S    
C16   N1    D    
C8    C21   A    
C3    C7    A    
H8    N1    S    
C13   C15   S    
C2    C24   A    
C5    C6    A    
C17   N2    D    
C13   H2    S    
C16   C17   S    
O4    Zn2   S    
C16   H6    S    
C9    C21   A    
N2    Zn1   S    
C1    O1    A    
C12   O3    A    
O3    Zn1   S    
C5    C20   A    
O5    Zn1   S    
C14   C15   D    
C4    C5    A    
O6    Zn2   S    
H7    N2    S    
C23   H13   S    
C19   O8    A    
C1    O2    A    
C22   C23   A    
C19   O7    A    
C12   O4    A    
O8    Zn2   S    
