data_mof_unit_33385.cif
_audit_creation_date              2012-12-10T16:39:39-0500
_audit_creation_method            fapswitch 2.2
_symmetry_space_group_name_H-M    P1
_symmetry_Int_Tables_number       1
_space_group_crystal_system       triclinic
_cell_length_a                    17.081707
_cell_length_b                    16.865145
_cell_length_c                    16.85749
_cell_angle_alpha                 66.85111
_cell_angle_beta                  67.540998
_cell_angle_gamma                 66.937942
_cell_volume                      3956.47088569

loop_
_atom_site_label
_atom_site_type_symbol
_atom_type_description
_atom_site_fract_x
_atom_site_fract_y
_atom_site_fract_z
_atom_type_partial_charge
C1    C     C_R   0.307223 0.012916 0.435397 0.022551
C2    C     C_R   0.325602 0.463088 0.947407 0.006322
C3    C     C_R   0.545826 0.417738 0.977844 0.009658
C4    C     C_R   0.999222 0.457346 0.589800 0.008721
C5    C     C_R   0.966991 0.550118 0.420102 0.007403
C6    C     C_2   0.242416 0.024148 0.241371 1.022459
C7    C     C_2   0.758489 0.950666 0.749250 1.013109
C8    C     C_2   0.901174 0.280846 0.275371 0.988609
C9    C     C_2   0.120653 0.708933 0.696789 1.011620
C10   C     C_2   0.253022 0.257109 0.054413 1.004314
C11   C     C_2   0.751887 0.753750 0.987828 1.007900
C12   C     C_2   0.477795 0.897249 0.802637 1.012513
C13   C     C_R   0.998137 0.685571 0.565770 0.030988
C14   C     C_2   0.579478 0.829790 0.284084 0.998452
C15   C     C_2   0.868402 0.805671 0.514665 1.006545
C16   C     C_2   0.866342 0.234920 0.612369 0.996406
C17   C     C_2   0.794144 0.498096 0.882493 0.965590
C18   C     C_2   0.225826 0.617844 0.890031 0.985990
C19   C     C_2   0.174682 0.117488 0.514945 1.004789
C20   C     C_2   0.759739 0.104568 0.389468 0.986637
C21   C     C_2   0.595265 0.277367 0.842735 0.985178
C22   C     C_2   0.415167 0.693994 0.168016 0.948498
C23   C     C_2   0.849634 0.611141 0.250957 1.017921
C24   C     C_R   0.935356 0.329166 0.460535 0.020998
C25   C     C_2   0.141405 0.393220 0.732996 0.930300
C26   C     C_R   0.449923 0.980441 0.458606 0.017552
C27   C     C_R   0.549411 0.994869 0.549528 0.017597
C28   C     C_R   0.962309 0.461087 0.461242 0.025216
C29   C     C_R   0.998923 0.547336 0.551152 0.028340
C30   C     C_R   0.458779 0.462399 0.970925 0.011980
C31   C     C_R   0.548215 0.545043 0.011426 0.031902
C32   C     C_R   0.961735 0.179320 0.437778 0.916766
C33   C     C_R   0.676954 0.030797 0.546162 0.021916
C34   C     C_R   0.024621 0.822389 0.567420 0.965884
C35   C     C_R   0.178300 0.436961 0.967367 0.883131
C36   C     C_R   0.824925 0.568555 0.019032 0.923609
C37   C     C_R   0.433676 0.971720 0.177851 0.937458
C38   C     C_R   0.568598 0.019388 0.824151 0.924070
C39   C     C_R   0.564398 0.821614 0.032058 0.910174
C40   C     C_R   0.434745 0.178834 0.970144 0.886247
C41   C     C_R   0.036877 0.561999 0.820672 0.925103
C42   C     C_R   0.964033 0.437088 0.179061 0.956557
C43   C     C_R   0.821640 0.029768 0.564362 0.942377
C44   C     C_R   0.937609 0.460200 0.328239 -0.001834
C45   C     C_R   0.171169 0.991178 0.428458 0.932908
C46   C     C_R   0.400204 0.981377 0.408406 0.067934
C47   C     C_R   0.595580 0.010448 0.593244 0.076697
C48   C     C_R   0.945976 0.416435 0.416281 0.065825
C49   C     C_R   0.014425 0.591491 0.597127 0.071880
C50   C     C_R   0.412526 0.418683 0.955675 0.048987
C51   C     C_R   0.595059 0.590054 0.024039 0.094398
C52   C     C_R   0.260039 0.002316 0.387935 -0.160906
C53   C     C_R   0.728405 0.028932 0.599271 -0.110300
C54   C     C_R   0.938235 0.408288 0.278155 -0.127215
C55   C     C_R   0.042374 0.542484 0.676142 0.006774
C56   C     C_R   0.054485 0.590895 0.722102 -0.186390
C57   C     C_R   0.400548 0.276455 0.960162 -0.163673
C58   C     C_R   0.601695 0.726511 0.037615 -0.167598
C59   C     C_R   0.607292 0.012900 0.732113 -0.171612
C60   C     C_R   0.393379 0.968165 0.272271 -0.107402
C61   C     C_R   0.733892 0.606328 0.014847 -0.172148
C62   C     C_R   0.273699 0.406351 0.958483 -0.161327
C63   C     C_R   0.027535 0.727405 0.604144 -0.134393
C64   C     C_R   0.935754 0.278801 0.408657 -0.152268
C65   C     C_R   0.477253 0.983193 0.728053 -0.129204
C66   C     C_R   0.454134 0.330299 0.947258 -0.024150
C67   C     C_R   0.537833 0.915644 0.309592 -0.088762
C68   C     C_R   0.953727 0.733118 0.496645 -0.124117
C69   C     C_R   0.921563 0.297709 0.555613 -0.031920
C70   C     C_R   0.730892 0.480651 0.973481 -0.122354
C71   C     C_R   0.295727 0.559555 0.934278 -0.046344
C72   C     C_R   0.266343 0.056592 0.505479 -0.158527
C73   C     C_R   0.703170 0.045679 0.450261 -0.033476
C74   C     C_R   0.547257 0.298411 0.929917 -0.126103
C75   C     C_R   0.456477 0.697319 0.071814 -0.128354
C76   C     C_R   0.922680 0.555530 0.296239 -0.100047
C77   C     C_R   0.550382 0.671867 0.046401 0.016120
C78   C     C_R   0.058725 0.447218 0.705183 0.017422
C79   C     C_R   0.300567 0.995688 0.301273 -0.141453
C80   C     C_R   0.696019 0.007203 0.692849 -0.117732
C81   C     C_R   0.926174 0.322606 0.321714 -0.096329
C82   C     C_R   0.063407 0.676705 0.676664 -0.119384
C83   C     C_R   0.309493 0.313099 0.981363 -0.236818
C84   C     C_R   0.693828 0.694291 0.017098 -0.143191
C85   C     C_R   0.665087 0.012517 0.411543 -0.017737
C86   C     C_R   0.317069 0.048543 0.560248 -0.072812
C87   C     C_R   0.022085 0.408267 0.671564 -0.041073
C88   C     C_R   0.558549 0.005337 0.684874 0.035241
C89   C     C_R   0.951707 0.596993 0.334893 -0.072084
C90   C     C_R   0.414844 0.667351 0.034731 -0.018830
C91   C     C_R   0.589882 0.333486 0.960490 -0.086521
C92   C     C_R   0.584754 0.943062 0.342953 -0.048523
C93   C     C_R   0.420740 0.007989 0.674805 -0.093646
C94   C     C_R   0.337497 0.601089 0.959758 -0.094766
C95   C     C_R   0.681651 0.423207 0.988336 -0.058977
C96   C     C_R   0.950854 0.336280 0.596535 -0.050071
C97   C     C_R   0.966758 0.687767 0.435597 -0.103670
C98   C     C_R   0.692464 0.015425 0.319952 0.172022
C99   C     C_R   0.444165 0.952256 0.330123 -0.021402
C100  C     C_R   0.285035 0.091637 0.629142 0.118166
C101  C     C_R   0.000194 0.325820 0.718156 0.187475
C102  C     C_R   0.964679 0.683959 0.292795 0.191959
C103  C     C_R   0.332711 0.717874 0.015741 0.175263
C104  C     C_R   0.674873 0.287047 0.974893 0.171092
C105  C     C_R   0.667330 0.960663 0.294167 0.167001
C106  C     C_R   0.332369 0.061078 0.693873 0.135684
C107  C     C_R   0.304221 0.692611 0.963022 0.190332
C108  C     C_R   0.720165 0.331943 0.990410 0.150884
C109  C     C_R   0.946908 0.304726 0.687943 0.197908
C110  C     C_R   0.687300 0.556476 0.007683 0.033046
C111  C     C_R   0.966723 0.731497 0.344762 0.097296
C112  C     C_R   0.541447 0.966941 0.423041 -0.009654
C113  C     C_R   0.460159 0.997684 0.589271 0.014260
C114  C     C_R   0.974072 0.416576 0.547758 0.014113
C115  C     C_R   0.979528 0.594634 0.467926 0.024904
C116  C     C_R   0.417337 0.549219 0.982621 0.006621
C117  C     C_R   0.591449 0.461212 0.994014 0.020441
C118  C     C_R   0.587954 0.986859 0.463021 0.021254
C119  C     C_R   0.408084 0.004760 0.538335 0.046120
C120  C     C_R   0.460029 0.587139 0.009739 0.018474
H1    H     H_    0.188212 0.986693 0.179169 0.358103
H2    H     H_    0.848912 0.126315 0.717871 0.385539
H3    H     H_    0.899979 0.398170 0.915592 0.346417
H4    H     H_    0.100073 0.700122 0.905375 0.372568
H5    H     H_    0.132406 0.053403 0.646141 0.311070
H6    H     H_    0.866868 0.119904 0.285672 0.355991
H7    H     H_    0.576496 0.408702 0.772706 0.318818
H8    H     H_    0.375553 0.827925 0.147755 0.360842
H9    H     H_    0.752155 0.614253 0.208703 0.362929
H10   H     H_    0.201368 0.315773 0.831532 0.368302
H11   H     H_    0.826087 0.942898 0.828798 0.354096
H12   H     H_    0.945162 0.212729 0.183909 0.342201
H13   H     H_    0.127979 0.789706 0.753842 0.352051
H14   H     H_    0.256032 0.300908 0.148526 0.303084
H15   H     H_    0.808678 0.814318 0.024011 0.354105
H16   H     H_    0.345152 0.923505 0.845891 0.330139
H17   H     H_    0.569083 0.739242 0.240808 0.350285
H18   H     H_    0.811408 0.796095 0.432783 0.322370
I1    I     I_    0.282754 0.116071 0.804364 -0.201512
I2    I     I_    0.254701 0.837371 0.056210 -0.191349
I3    I     I_    0.005341 0.731836 0.149241 -0.148553
I4    I     I_    0.027821 0.235093 0.840112 -0.140261
I5    I     I_    0.740770 0.935064 0.168232 -0.124962
I6    I     I_    0.979172 0.865319 0.285310 -0.151884
I7    I     I_    0.816770 0.322374 0.771559 -0.238797
I8    I     I_    0.834304 0.258823 0.039616 -0.210174
I9    I     I_    0.246812 0.804177 0.862802 -0.260401
I10   I     I_    0.210130 0.229788 0.603007 -0.220043
I11   I     I_    0.677884 0.146373 0.228178 -0.226910
I12   I     I_    0.732865 0.148375 0.978289 -0.134444
O1    O     O_R   0.982940 0.138950 0.510160 -0.595058
O2    O     O_R   0.982940 0.510160 0.138950 -0.630184
O3    O     O_R   0.861050 0.017060 0.489840 -0.625851
O4    O     O_R   0.138950 0.982940 0.510160 -0.643497
O5    O     O_R   0.867700 0.025880 0.612340 -0.616659
O6    O     O_R   0.132300 0.974120 0.387660 -0.593037
O7    O     O_R   0.025880 0.612340 0.867700 -0.597327
O8    O     O_R   0.974120 0.387660 0.132300 -0.589270
O9    O     O_R   0.612340 0.867700 0.025880 -0.610656
O10   O     O_R   0.387660 0.132300 0.974120 -0.584615
O11   O     O_R   0.387660 0.974120 0.132300 -0.629337
O12   O     O_R   0.017060 0.861050 0.489840 -0.622702
O13   O     O_R   0.612340 0.025880 0.867700 -0.549897
O14   O     O_R   0.132300 0.387660 0.974120 -0.567509
O15   O     O_R   0.867700 0.612340 0.025880 -0.604585
O16   O     O_R   0.974120 0.132300 0.387660 -0.600864
O17   O     O_R   0.025880 0.867700 0.612340 -0.589512
O18   O     O_2   0.196451 0.101803 0.223087 -0.530319
O19   O     O_R   0.232141 0.959655 0.216251 -0.724154
O20   O     O_2   0.797482 0.873313 0.746442 -0.519650
O21   O     O_R   0.779793 0.987767 0.796667 -0.750543
O22   O     O_2   0.824616 0.304410 0.272814 -0.549277
O23   O     O_R   0.138950 0.510160 0.982940 -0.626676
O24   O     O_R   0.967206 0.224127 0.225213 -0.726076
O25   O     O_2   0.198941 0.694831 0.655995 -0.552064
O26   O     O_R   0.083766 0.763336 0.754071 -0.763837
O27   O     O_2   0.223197 0.212506 0.037285 -0.490042
O28   O     O_R   0.228537 0.260975 0.142244 -0.730275
O29   O     O_2   0.793499 0.774610 0.909551 -0.581302
O30   O     O_R   0.765300 0.777214 0.051707 -0.736957
O31   O     O_2   0.547992 0.843777 0.815357 -0.569520
O32   O     O_R   0.400358 0.875125 0.858488 -0.756776
O33   O     O_2   0.651259 0.781659 0.296798 -0.558702
O34   O     O_R   0.861050 0.489840 0.017060 -0.655141
O35   O     O_R   0.533883 0.799075 0.254019 -0.792408
O36   O     O_2   0.849763 0.835725 0.576640 -0.569924
O37   O     O_R   0.804222 0.835325 0.468835 -0.772281
O38   O     O_2   0.798920 0.245281 0.595268 -0.580883
O39   O     O_R   0.892819 0.162781 0.683480 -0.737523
O40   O     O_2   0.769667 0.563893 0.823068 -0.539346
O41   O     O_R   0.879388 0.441609 0.861461 -0.755518
O42   O     O_2   0.232537 0.615119 0.816519 -0.601541
O43   O     O_R   0.148174 0.668763 0.937277 -0.757855
O44   O     O_2   0.154575 0.176817 0.449398 -0.578581
O45   O     O_R   0.510160 0.982940 0.138950 -0.625431
O46   O     O_R   0.110491 0.107635 0.597458 -0.723290
O47   O     O_2   0.745728 0.176578 0.401045 -0.574888
O48   O     O_R   0.831654 0.075245 0.321777 -0.751061
O49   O     O_2   0.626398 0.199909 0.839252 -0.506230
O50   O     O_R   0.604540 0.346897 0.762878 -0.714980
O51   O     O_2   0.413799 0.621006 0.223500 -0.524526
O52   O     O_R   0.379101 0.770343 0.197962 -0.699838
O53   O     O_2   0.826569 0.693058 0.232475 -0.540839
O54   O     O_R   0.801355 0.569554 0.236952 -0.795411
O55   O     O_2   0.212264 0.392148 0.676107 -0.564264
O56   O     O_R   0.489840 0.017060 0.861050 -0.636278
O57   O     O_R   0.139933 0.347424 0.822571 -0.733751
O58   O     O_R   0.489840 0.861050 0.017060 -0.627798
O59   O     O_R   0.510160 0.138950 0.982940 -0.595845
O60   O     O_R   0.017060 0.489840 0.861050 -0.592684
Zn1   Zn    Zn3+2 0.004880 0.004880 0.583590 1.104142
Zn2   Zn    Zn3+2 0.995120 0.995120 0.416410 1.120195
Zn3   Zn    Zn3+2 0.004880 0.583590 0.004880 1.091594
Zn4   Zn    Zn3+2 0.995120 0.416410 0.995120 1.111676
Zn5   Zn    Zn3+2 0.583590 0.004880 0.004880 1.116718
Zn6   Zn    Zn3+2 0.416410 0.995120 0.995120 1.088145

loop_
_geom_bond_atom_site_label_1
_geom_bond_atom_site_label_2
_ccdc_geom_bond_type
C78   C87   A    
H1    O19   S    
C62   C83   A    
C60   C79   A    
C32   O16   A    
C89   C102  A    
O6    Zn2   S    
C57   C66   A    
C46   C99   A    
C60   C99   A    
H7    O50   S    
C2    C50   A    
C14   O33   D    
C19   C72   S    
C71   C94   A    
C29   C49   A    
C95   C117  A    
C18   O42   D    
O59   Zn5   S    
C98   C105  A    
O1    Zn1   S    
H2    O39   S    
O58   Zn6   S    
C37   O45   A    
C11   C84   S    
C4    C114  A    
H15   O30   S    
C7    O21   S    
C97   C111  A    
C8    O24   S    
C1    C46   A    
C27   C47   A    
O10   Zn6   S    
C10   C83   S    
C9    O26   S    
C3    C91   A    
C104  I12   S    
C44   C76   A    
C59   C88   A    
C31   C117  A    
C36   O15   A    
C85   C98   A    
C70   C110  A    
C58   C77   A    
O16   Zn2   S    
C113  C119  A    
H9    O54   S    
O13   Zn5   S    
C43   C53   S    
C12   O32   S    
O15   Zn3   S    
C31   C120  A    
H4    O43   S    
C6    O19   S    
C14   C67   S    
C57   C83   A    
C86   C119  A    
C36   O34   A    
C102  I3    S    
C97   C115  A    
C52   C79   A    
C86   C100  A    
C116  C120  A    
C91   C104  A    
H17   O35   S    
C4    C29   A    
C75   C90   A    
C67   C99   A    
C9    C82   S    
C69   C96   A    
C65   C93   A    
C30   C50   A    
C101  C109  A    
C19   O46   S    
C24   C64   A    
C87   C101  A    
C5    C115  A    
C18   O43   S    
C96   C114  A    
C102  C111  A    
C42   O8    A    
C22   C75   S    
C21   O49   D    
C43   O5    A    
C61   C110  A    
C6    C79   S    
H13   O26   S    
C24   C69   A    
C108  I8    S    
C33   C53   A    
C20   O47   D    
C15   O36   D    
C6    O18   D    
C94   C107  A    
C34   C63   S    
C1    C72   A    
O9    Zn5   S    
C22   O52   S    
C63   C82   A    
C8    C81   S    
C10   O28   S    
C53   C80   A    
C26   C119  A    
C32   C64   S    
C16   O38   D    
C4    C87   A    
C14   O35   S    
C94   C116  A    
C92   C112  A    
C30   C116  A    
H5    O46   S    
O14   Zn4   S    
C49   C55   A    
C39   C58   S    
C15   O37   S    
C21   C74   S    
C17   O41   S    
C25   C78   S    
C23   O53   D    
C35   O23   A    
C74   C91   A    
C3    C30   A    
O23   Zn3   S    
C51   C77   A    
C41   C56   S    
O4    Zn1   S    
C58   C84   A    
C93   C106  A    
C5    C28   A    
C107  I9    S    
C101  I4    S    
C70   C95   A    
C24   C48   A    
O34   Zn4   S    
C12   O31   D    
C13   C63   A    
C73   C85   A    
C39   O58   A    
C55   C56   A    
C68   C97   A    
C45   O6    A    
H12   O24   S    
H14   O28   S    
C75   C77   A    
C20   O48   S    
C28   C114  A    
C111  I6    S    
C41   O7    A    
C41   O60   A    
C27   C113  A    
C33   C73   A    
C38   O13   A    
C45   O4    A    
O11   Zn6   S    
C51   C110  A    
C33   C47   A    
C13   C49   A    
C11   O29   D    
C21   O50   S    
H3    O41   S    
C2    C71   A    
C26   C112  A    
C64   C81   A    
C104  C108  A    
C42   O2    A    
C65   C88   A    
C37   O11   A    
C12   C65   S    
C27   C118  A    
O56   Zn6   S    
C18   C71   S    
C55   C78   A    
C28   C48   A    
C40   C57   S    
C38   O56   A    
C22   O51   D    
C39   O9    A    
C10   O27   D    
O45   Zn5   S    
C40   O10   A    
C109  I7    S    
C16   C69   S    
C31   C51   A    
C34   O12   A    
C61   C84   A    
C59   C80   A    
C105  I5    S    
O3    Zn2   S    
C72   C86   A    
C50   C66   A    
C56   C82   A    
C36   C61   S    
H11   O21   S    
C17   O40   D    
O8    Zn4   S    
C96   C109  A    
C76   C89   A    
O7    Zn3   S    
C35   O14   A    
C45   C52   S    
C23   O54   S    
C47   C88   A    
O5    Zn1   S    
H18   O37   S    
H10   O57   S    
O17   Zn1   S    
C25   O57   S    
C44   C48   A    
O60   Zn4   S    
C103  I2    S    
C42   C54   S    
C112  C118  A    
H6    O48   S    
C106  I1    S    
C32   O1    A    
O12   Zn2   S    
C100  I10   S    
C15   C68   S    
C40   O59   A    
C67   C92   A    
C29   C115  A    
C20   C73   S    
C9    O25   D    
C35   C62   S    
O2    Zn3   S    
C85   C118  A    
C1    C52   A    
C90   C103  A    
C37   C60   S    
C95   C108  A    
C26   C46   A    
C100  C106  A    
C38   C59   S    
C44   C54   A    
C92   C105  A    
C17   C70   S    
C25   O55   D    
C19   O44   D    
C93   C113  A    
C7    O20   D    
H16   O32   S    
C2    C62   A    
C23   C76   S    
C34   O17   A    
C103  C107  A    
C11   O30   S    
C3    C117  A    
H8    O52   S    
C43   O3    A    
C16   O39   S    
C13   C68   A    
C54   C81   A    
C5    C89   A    
C8    O22   D    
C90   C120  A    
C7    C80   S    
C98   I11   S    
C66   C74   A    
