data_mof_unit_30266.cif
_audit_creation_date              2012-12-11T14:55:51-0500
_audit_creation_method            fapswitch 2.2
_symmetry_space_group_name_H-M    P1
_symmetry_Int_Tables_number       1
_space_group_crystal_system       triclinic
_cell_length_a                    28.109443
_cell_length_b                    17.27522
_cell_length_c                    18.145052
_cell_angle_alpha                 90.183604
_cell_angle_beta                  138.397177
_cell_angle_gamma                 89.82384
_cell_volume                      5850.26451528

loop_
_atom_site_label
_atom_site_type_symbol
_atom_type_description
_atom_site_fract_x
_atom_site_fract_y
_atom_site_fract_z
_atom_type_partial_charge
Br1   Br    Br    0.846193 0.845363 0.833112 -0.580877
Br2   Br    Br    0.153813 0.154650 0.166884 -0.580565
Br3   Br    Br    0.151489 0.841167 0.196403 -0.554966
Br4   Br    Br    0.848515 0.158552 0.802312 -0.554467
Br5   Br    Br    0.285499 0.392013 0.593150 -0.558075
Br6   Br    Br    0.714619 0.607667 0.407128 -0.558338
Br7   Br    Br    0.673494 0.356752 0.310566 -0.551335
Br8   Br    Br    0.325989 0.643183 0.687884 -0.551384
C1    C     C_R   0.687228 0.899085 0.804375 -0.129216
C2    C     C_3   0.277927 0.701420 0.020741 -0.166619
C3    C     C_3   0.706921 0.727314 0.947712 -0.141376
C4    C     C_3   0.203536 0.799316 0.921918 -0.155499
C5    C     C_3   0.796429 0.200418 0.078420 -0.155846
C6    C     C_3   0.832611 0.723796 0.020997 -0.103284
C7    C     C_3   0.166731 0.273798 0.976613 -0.104292
C8    C     C_3   0.256920 0.772319 0.042675 -0.122454
C9    C     C_3   0.743306 0.227371 0.957696 -0.122655
C10   C     C_3   0.759084 0.699368 0.902824 -0.126831
C11   C     C_3   0.239137 0.298820 0.095604 -0.123498
C12   C     C_3   0.716592 0.225938 0.071857 -0.121272
C13   C     C_3   0.257818 0.346359 0.047566 -0.180134
C14   C     C_3   0.283149 0.774303 0.927868 -0.121270
C15   C     C_3   0.222609 0.249245 0.937417 -0.146495
C16   C     C_3   0.779220 0.752441 0.063521 -0.149405
C17   C     C_3   0.315624 0.818628 0.071348 0.163947
C18   C     C_3   0.684357 0.181356 0.928669 0.164035
C19   C     C_3   0.725841 0.771606 0.899533 0.171457
C20   C     C_3   0.274353 0.228287 0.100079 0.171206
C21   C     C_3   0.775084 0.271341 0.099428 0.166666
C22   C     C_3   0.224901 0.728604 0.900649 0.166604
C23   C     C_3   0.186771 0.320212 0.931207 0.152624
C24   C     C_3   0.740930 0.654216 0.953025 -0.178720
C25   C     C_3   0.813090 0.679763 0.068574 0.152835
C26   C     C_3   0.262729 0.846263 0.951420 -0.164713
C27   C     C_3   0.736991 0.153763 0.048562 -0.164504
C28   C     C_3   0.798035 0.797045 0.014881 -0.149921
C29   C     C_3   0.203263 0.202279 0.983870 -0.151877
C30   C     C_R   0.720839 0.752773 0.651146 0.024792
C31   C     C_R   0.279172 0.247221 0.348880 0.023247
C32   C     C_R   0.282393 0.755372 0.373062 0.046870
C33   C     C_R   0.312851 0.100856 0.195398 -0.129530
C34   C     C_R   0.717549 0.244422 0.626064 0.047174
C35   C     C_R   0.138047 0.333564 0.399076 0.027195
C36   C     C_R   0.862031 0.666281 0.601106 0.027160
C37   C     C_R   0.812188 0.279201 0.482372 0.043836
C38   C     C_R   0.187001 0.720152 0.515492 0.043628
C39   C     C_R   0.274744 0.365191 0.413159 -0.121528
C40   C     C_R   0.725302 0.634742 0.586994 -0.121545
C41   C     C_R   0.702769 0.340378 0.515020 -0.133187
C42   C     C_R   0.296916 0.659243 0.483666 -0.133200
C43   C     C_R   0.889907 0.745747 0.740477 -0.119490
C44   C     C_R   0.333508 0.923212 0.183138 -0.114082
C45   C     C_R   0.110132 0.254180 0.259620 -0.119590
C46   C     C_R   0.155091 0.798754 0.372731 -0.135639
C47   C     C_R   0.843890 0.200204 0.624655 -0.135782
C48   C     C_R   0.304643 0.322493 0.391307 -0.245216
C49   C     C_R   0.695373 0.677493 0.608761 -0.245703
C50   C     C_R   0.689157 0.315683 0.570441 -0.231826
C51   C     C_R   0.310742 0.684072 0.428582 -0.231811
C52   C     C_R   0.909801 0.713930 0.695992 -0.226286
C53   C     C_R   0.090256 0.285957 0.304149 -0.226443
C54   C     C_R   0.145988 0.779536 0.435454 -0.228232
C55   C     C_R   0.666477 0.076769 0.816859 -0.114535
C56   C     C_R   0.852836 0.219377 0.561716 -0.228195
C57   C     C_R   0.207102 0.231549 0.282798 0.241166
C58   C     C_R   0.792912 0.768435 0.717236 0.241783
C59   C     C_R   0.781966 0.220258 0.669081 0.245118
C60   C     C_R   0.217772 0.779319 0.329513 0.245192
C61   C     C_R   0.796898 0.643427 0.558847 0.232569
C62   C     C_R   0.203187 0.356405 0.441359 0.232480
C63   C     C_R   0.245059 0.688601 0.543553 0.244105
C64   C     C_R   0.754284 0.310902 0.454605 0.244252
C65   C     C_R   0.175887 0.274505 0.304353 0.043283
C66   C     C_R   0.168250 0.422967 0.817380 -0.105077
C67   C     C_R   0.824147 0.725436 0.695739 0.042752
C68   C     C_R   0.794001 0.240335 0.609485 0.038083
C69   C     C_R   0.205390 0.758991 0.388591 0.038039
C70   C     C_R   0.783501 0.665419 0.615959 0.051536
C71   C     C_R   0.216553 0.334485 0.384193 0.051486
C72   C     C_R   0.249573 0.701943 0.473045 0.047310
C73   C     C_R   0.749873 0.297519 0.525230 0.047205
C74   C     C_R   0.323838 0.104785 0.398157 -0.100319
C75   C     C_R   0.676162 0.895215 0.601836 -0.100385
C76   C     C_R   0.675154 0.103945 0.597326 -0.104400
C77   C     C_R   0.831630 0.577095 0.182597 -0.104348
C78   C     C_R   0.324815 0.895981 0.402477 -0.104258
C79   C     C_R   0.854009 0.576581 0.480665 -0.061495
C80   C     C_R   0.146058 0.423319 0.519455 -0.061797
C81   C     C_R   0.170582 0.600904 0.578740 -0.135916
C82   C     C_R   0.829274 0.398993 0.420756 -0.135962
C83   C     C_R   0.407238 0.802861 0.489972 -0.108715
C84   C     C_R   0.592765 0.197109 0.509900 -0.108974
C85   C     C_R   0.593995 0.802539 0.514565 -0.122236
C86   C     C_R   0.406006 0.197461 0.485425 -0.122324
C87   C     C_R   0.911837 0.306035 0.508642 -0.142095
C88   C     C_R   0.812959 0.398858 0.195198 -0.140694
C89   C     C_R   0.088020 0.693869 0.490899 -0.142573
C90   C     C_R   0.067135 0.325562 0.437232 -0.136888
C91   C     C_R   0.932899 0.674373 0.562858 -0.136806
C92   C     C_R   0.582006 0.168988 0.725418 -0.128938
C93   C     C_R   0.417994 0.831016 0.274580 -0.129155
C94   C     C_R   0.397004 0.192375 0.284107 -0.142586
C95   C     C_R   0.603129 0.807525 0.715711 -0.143140
C96   C     C_R   0.102685 0.692369 0.716135 -0.140873
C97   C     C_R   0.897311 0.307614 0.283900 -0.140756
C98   C     C_R   0.916280 0.668487 0.272550 -0.137440
C99   C     C_R   0.187031 0.601113 0.804841 -0.140569
C100  C     C_R   0.083608 0.331600 0.727387 -0.137121
C101  C     C_R   0.673861 0.824396 0.809603 0.047408
C102  C     C_R   0.326332 0.175446 0.189982 0.047439
C103  C     C_R   0.360535 0.863463 0.171815 0.033595
C104  C     C_R   0.639463 0.136538 0.828182 0.033681
C105  C     C_R   0.142009 0.363888 0.829971 0.033200
C106  C     C_R   0.857752 0.636286 0.169961 0.033334
C107  C     C_R   0.826932 0.324515 0.189189 0.046852
C108  C     C_R   0.173051 0.675439 0.810882 0.046867
C109  C     C_R   0.333503 0.184806 0.409717 0.105402
C110  C     C_3   0.722318 0.298477 0.979370 -0.166373
C111  C     C_R   0.666501 0.815192 0.590277 0.104861
C112  C     C_R   0.664495 0.183772 0.580456 0.074659
C113  C     C_R   0.335482 0.816140 0.419211 0.074800
C114  C     C_R   0.880854 0.641526 0.547803 0.096979
C115  C     C_R   0.119216 0.358353 0.452350 0.097079
C116  C     C_R   0.154623 0.676789 0.539085 0.103646
C117  C     C_R   0.845071 0.322990 0.459937 0.102934
C118  C     C_3   0.662803 0.252242 0.949489 -0.146660
C119  C     C_3   0.337203 0.747954 0.050276 -0.146502
C120  C     C_3   0.293823 0.274933 0.054089 -0.143022
H1    H     H_    0.739102 0.925941 0.857653 0.127334
H2    H     H_    0.075340 0.211628 0.194126 0.198823
H3    H     H_    0.122130 0.844273 0.311651 0.189692
H4    H     H_    0.876675 0.154466 0.685404 0.189441
H5    H     H_    0.301355 0.417708 0.461776 0.170877
H6    H     H_    0.698704 0.582203 0.538435 0.170911
H7    H     H_    0.673562 0.389791 0.460234 0.187015
H8    H     H_    0.326147 0.609873 0.538536 0.186813
H9    H     H_    0.273425 0.074676 0.337832 0.159958
H10   H     H_    0.726576 0.925322 0.662168 0.159924
H11   H     H_    0.725788 0.073985 0.655977 0.158813
H12   H     H_    0.260929 0.074096 0.142026 0.127843
H13   H     H_    0.274157 0.925899 0.343695 0.158821
H14   H     H_    0.818485 0.534547 0.462206 0.151372
H15   H     H_    0.181652 0.465266 0.537989 0.151339
H16   H     H_    0.221110 0.571574 0.632978 0.175629
H17   H     H_    0.778746 0.428350 0.366416 0.175647
H18   H     H_    0.432772 0.747541 0.510199 0.086960
H19   H     H_    0.567254 0.252460 0.489604 0.086988
H20   H     H_    0.568232 0.748057 0.496375 0.085765
H21   H     H_    0.431769 0.251942 0.503612 0.085818
H22   H     H_    0.938299 0.250498 0.536805 0.088312
H23   H     H_    0.284762 0.955290 0.116995 0.105872
H24   H     H_    0.061564 0.749413 0.462677 0.088380
H25   H     H_    0.034723 0.275174 0.388545 0.099838
H26   H     H_    0.965313 0.724754 0.611571 0.099836
H27   H     H_    0.552211 0.220418 0.705864 0.106192
H28   H     H_    0.447786 0.779584 0.294126 0.106276
H29   H     H_    0.422649 0.248400 0.310587 0.097802
H30   H     H_    0.577498 0.751492 0.689223 0.098136
H31   H     H_    0.077826 0.748923 0.688458 0.092150
H32   H     H_    0.922183 0.251067 0.311600 0.092057
H33   H     H_    0.945260 0.719773 0.289919 0.104537
H34   H     H_    0.715195 0.044646 0.882994 0.105916
H35   H     H_    0.054616 0.280308 0.709973 0.104566
H36   H     H_    0.246992 0.772248 0.091559 0.140482
H37   H     H_    0.753437 0.227224 0.909085 0.140344
H38   H     H_    0.749220 0.679596 0.834046 0.132263
H39   H     H_    0.247519 0.317204 0.163321 0.133559
H40   H     H_    0.707628 0.227230 0.121943 0.139772
H41   H     H_    0.291917 0.773233 0.877520 0.139585
H42   H     H_    0.215239 0.229641 0.871004 0.129688
H43   H     H_    0.788030 0.773523 0.130919 0.129278
H44   H     H_    0.606980 0.271896 0.894762 0.132498
H45   H     H_    0.217122 0.455099 0.882452 0.097573
H46   H     H_    0.393043 0.728499 0.104781 0.132562
H47   H     H_    0.346659 0.274109 0.087162 0.132547
H48   H     H_    0.654664 0.730047 0.916347 0.132802
H49   H     H_    0.147988 0.819353 0.868444 0.120155
H50   H     H_    0.851961 0.180179 0.132123 0.119962
H51   H     H_    0.885157 0.720592 0.053362 0.144111
H52   H     H_    0.113609 0.275094 0.942556 0.144373
H53   H     H_    0.717636 0.358618 0.953046 0.118268
H54   H     H_    0.282820 0.641223 0.047114 0.118212
H55   H     H_    0.278858 0.406436 0.071741 0.117558
H56   H     H_    0.782796 0.544893 0.117612 0.097003
H57   H     H_    0.718729 0.594679 0.929393 0.117244
H58   H     H_    0.258256 0.906690 0.926135 0.122372
H59   H     H_    0.741251 0.093391 0.073795 0.122443
H60   H     H_    0.820616 0.856422 0.039135 0.126561
H61   H     H_    0.181793 0.142378 0.958909 0.125115
H62   H     H_    0.645623 0.656847 0.574157 0.131225
H63   H     H_    0.354388 0.343154 0.425904 0.131394
H64   H     H_    0.353621 0.656161 0.448090 0.131348
H65   H     H_    0.646428 0.343713 0.551233 0.131380
H66   H     H_    0.039039 0.269402 0.267747 0.142771
H67   H     H_    0.760792 0.425307 0.141271 0.110823
H68   H     H_    0.961012 0.730495 0.732381 0.142803
H69   H     H_    0.895065 0.189872 0.581113 0.135096
H70   H     H_    0.103476 0.808783 0.415522 0.135159
H71   H     H_    0.239196 0.574657 0.858780 0.110751
H72   H     H_    0.924684 0.788328 0.805930 0.198913
N1    N     N_R   0.625380 0.928280 0.709340 -0.039974
N2    N     N_R   0.613900 0.929750 0.547530 -0.048535
N3    N     N_R   0.613900 0.070250 0.547530 -0.048911
N4    N     N_R   0.386100 0.929750 0.452470 -0.048942
N5    N     N_R   0.886100 0.570250 0.452470 -0.051448
N6    N     N_R   0.113900 0.429750 0.547530 -0.051448
N7    N     N_R   0.113900 0.570250 0.547530 -0.052195
N8    N     N_R   0.886100 0.429750 0.452470 -0.052226
N9    N     N_R   0.437800 0.869550 0.507970 -0.045283
N10   N     N_R   0.562200 0.130450 0.492030 -0.045226
N11   N     N_R   0.562200 0.869550 0.492030 -0.045497
N12   N     N_R   0.374620 0.071720 0.290660 -0.039977
N13   N     N_R   0.437800 0.130450 0.507970 -0.045557
N14   N     N_R   0.937800 0.369550 0.507970 -0.040460
N15   N     N_R   0.062200 0.630450 0.492030 -0.040446
N16   N     N_R   0.062200 0.369550 0.492030 -0.047527
N17   N     N_R   0.937800 0.630450 0.507970 -0.047519
N18   N     N_R   0.573690 0.128980 0.653840 -0.045424
N19   N     N_R   0.426310 0.871020 0.346160 -0.045446
N20   N     N_R   0.426310 0.128980 0.346160 -0.038185
N21   N     N_R   0.573690 0.871020 0.653840 -0.038151
N22   N     N_R   0.073690 0.628980 0.653840 -0.038066
N23   N     N_R   0.374620 0.928280 0.290660 -0.040295
N24   N     N_R   0.926310 0.371020 0.346160 -0.038077
N25   N     N_R   0.926310 0.628980 0.346160 -0.042882
N26   N     N_R   0.073690 0.371020 0.653840 -0.042943
N27   N     N_R   0.625380 0.071720 0.709340 -0.040296
N28   N     N_R   0.125380 0.428280 0.709340 -0.040241
N29   N     N_R   0.874620 0.571720 0.290660 -0.040214
N30   N     N_R   0.874620 0.428280 0.290660 -0.037831
N31   N     N_R   0.125380 0.571720 0.709340 -0.037785
N32   N     N_R   0.386100 0.070250 0.452470 -0.048584
Ni1   Ni    Ni4+2 0.616560 0.000000 0.627280 0.236883
Ni2   Ni    Ni4+2 0.383440 0.000000 0.372720 0.236994
Ni3   Ni    Ni4+2 0.116560 0.500000 0.627280 0.239781
Ni4   Ni    Ni4+2 0.883440 0.500000 0.372720 0.239812
Ni5   Ni    Ni4+2 0.497990 0.870580 0.500000 0.205493
Ni6   Ni    Ni4+2 0.502010 0.129420 0.500000 0.205537
Ni7   Ni    Ni4+2 0.997990 0.370580 0.500000 0.212542
Ni8   Ni    Ni4+2 0.002010 0.629420 0.500000 0.212627

loop_
_geom_bond_atom_site_label_1
_geom_bond_atom_site_label_2
_ccdc_geom_bond_type
Br6   C61   S    
C29   H61   S    
C31   C109  S    
C42   H8    S    
C99   N31   A    
C55   H34   S    
C6    C10   S    
C84   N10   A    
Br3   C60   S    
N1    N21   A    
N2    N11   A    
C83   N9    A    
Br2   C57   S    
N20   Ni6   S    
C34   C50   A    
C6    C25   S    
N31   Ni3   S    
C10   H38   S    
N7    Ni3   S    
C40   C49   A    
C52   H68   S    
C22   C108  S    
C8    H36   S    
C86   H21   S    
C7    C11   S    
C46   H3    S    
C13   C23   S    
C50   H65   S    
N5    N17   A    
C3    H48   S    
C16   C28   S    
C10   C24   S    
C24   H57   S    
C98   C106  A    
C9    C18   S    
N10   Ni6   S    
C40   H6    S    
C77   C106  A    
C11   C13   S    
N9    Ni5   S    
C75   C111  A    
C5    C27   S    
C89   C116  A    
C80   C115  A    
C6    C28   S    
C86   C109  A    
N27   Ni1   S    
C110  H53   S    
C97   H32   S    
C40   C70   A    
C5    H50   S    
C91   H26   S    
C3    C16   S    
C60   C69   A    
C57   C65   A    
C85   H20   S    
C18   C118  S    
C98   H33   S    
C41   C73   A    
C55   C104  A    
C26   H58   S    
C16   H43   S    
C87   C117  A    
C7    C29   S    
N28   Ni3   S    
N4    Ni2   S    
C96   C108  A    
C33   N12   A    
C45   C53   A    
C89   H24   S    
C88   H67   S    
C79   N5    A    
C4    C8    S    
C76   H11   S    
C37   C117  S    
C33   H12   S    
N4    N9    A    
C85   N11   A    
C66   N28   A    
N11   Ni5   S    
C88   C107  A    
N30   Ni4   S    
C39   C71   A    
N8    Ni4   S    
C80   H15   S    
C6    H51   S    
N15   Ni8   S    
C94   N20   A    
C17   C26   S    
C46   C69   A    
C119  H46   S    
C4    H49   S    
C21   C107  S    
C90   H25   S    
C92   N18   A    
C32   C51   A    
C7    H52   S    
C39   H5    S    
C84   H19   S    
C85   C111  A    
C31   C57   A    
C38   C116  S    
C61   C70   A    
C11   H39   S    
C75   N2    A    
C12   H40   S    
C94   H29   S    
C96   N22   A    
C63   C72   A    
N24   Ni7   S    
C97   C107  A    
C37   C64   A    
C12   C21   S    
C74   H9    S    
C1    C101  A    
C90   C115  A    
C14   C26   S    
C100  H35   S    
C81   N7    A    
C32   C60   A    
C91   N17   A    
C77   N29   A    
C54   H70   S    
C66   H45   S    
N13   Ni6   S    
Br7   C64   S    
C55   N27   A    
C46   C54   A    
C44   C103  A    
C20   C102  S    
C15   C29   S    
C66   C105  A    
N25   N29   A    
C41   C50   A    
C41   H7    S    
N21   Ni5   S    
N6    Ni3   S    
C28   H60   S    
C15   C23   S    
C100  C105  A    
C12   C118  S    
Br5   C62   S    
C32   C113  S    
N23   Ni2   S    
N24   N30   A    
Br4   C59   S    
C30   C49   A    
C93   N19   A    
N1    Ni1   S    
C31   C48   A    
C3    C19   S    
C76   C112  A    
C120  H47   S    
C47   C56   A    
C78   C113  A    
N7    N15   A    
Br1   C58   S    
C65   C71   A    
C98   N25   A    
C36   C61   A    
N3    N10   A    
C87   H22   S    
C25   C106  S    
N25   Ni8   S    
C13   C120  S    
C11   C20   S    
N17   Ni8   S    
C38   C63   A    
N13   N32   A    
C1    N1    A    
C9    C110  S    
C91   C114  A    
C82   N8    A    
C47   C68   A    
C76   N3    A    
C38   C54   A    
C3    C24   S    
C92   C104  A    
C77   H56   S    
N26   N28   A    
C33   C102  A    
C89   N15   A    
C34   C59   A    
C2    H54   S    
C51   H64   S    
C2    C22   S    
C94   C102  A    
N22   Ni8   S    
C93   C103  A    
C30   C111  S    
C96   H31   S    
C4    C26   S    
C2    C119  S    
C97   N24   A    
C18   C104  S    
N18   N27   A    
C43   C67   A    
C78   N4    A    
C35   C53   A    
C30   C58   A    
C69   C72   A    
C5    C21   S    
C8    C17   S    
C13   H55   S    
C74   N32   A    
C86   N13   A    
N8    N14   A    
N26   Ni7   S    
C14   C22   S    
C4    C22   S    
N32   Ni2   S    
N16   Ni7   S    
C35   C115  S    
C12   C27   S    
N5    Ni4   S    
C45   C65   A    
C10   C19   S    
C64   C73   A    
C80   N6    A    
C90   N16   A    
C42   C72   A    
C68   C73   A    
N22   N31   A    
C79   C114  A    
N12   Ni2   S    
C95   H30   S    
C7    C23   S    
C43   C52   A    
C81   C116  A    
C1    H1    S    
C19   C28   S    
C35   C62   A    
C81   H16   S    
N12   N20   A    
C21   C110  S    
C37   C56   A    
C16   C25   S    
C93   H28   S    
C5    C9    S    
C95   C101  A    
N6    N16   A    
C24   C25   S    
N19   Ni5   S    
N29   Ni4   S    
N14   Ni7   S    
C17   C119  S    
C49   H62   S    
C9    H37   S    
C95   N21   A    
N2    Ni1   S    
C99   H71   S    
C34   C112  S    
C14   C119  S    
C62   C71   A    
C15   H42   S    
C100  N26   A    
C20   C29   S    
C36   C52   A    
C44   H23   S    
C58   C67   A    
C36   C114  S    
C82   C117  A    
C88   N30   A    
C75   H10   S    
C79   H14   S    
C84   C112  A    
C67   C70   A    
C99   C108  A    
C48   H63   S    
C14   H41   S    
C118  H44   S    
C43   H72   S    
C17   C103  S    
N19   N23   A    
N3    Ni1   S    
C20   C120  S    
C18   C27   S    
C92   H27   S    
C19   C101  S    
C44   N23   A    
C27   H59   S    
C47   H4    S    
C83   C113  A    
C82   H17   S    
C87   N14   A    
N18   Ni6   S    
C42   C51   A    
C39   C48   A    
C2    C8    S    
C45   H2    S    
C110  C118  S    
C74   C109  A    
C56   H69   S    
C53   H66   S    
C23   C105  S    
C83   H18   S    
C59   C68   A    
C78   H13   S    
C15   C120  S    
Br8   C63   S    
