data_mof_unit_25007.cif
_audit_creation_date              2012-12-11T16:45:55-0500
_audit_creation_method            fapswitch 2.2
_symmetry_space_group_name_H-M    P1
_symmetry_Int_Tables_number       1
_space_group_crystal_system       triclinic
_cell_length_a                    19.781711
_cell_length_b                    17.200162
_cell_length_c                    15.422407
_cell_angle_alpha                 89.999494
_cell_angle_beta                  53.334407
_cell_angle_gamma                 89.999827
_cell_volume                      4209.16240274

loop_
_atom_site_label
_atom_site_type_symbol
_atom_type_description
_atom_site_fract_x
_atom_site_fract_y
_atom_site_fract_z
_atom_type_partial_charge
C1    C     C_R   0.872606 0.693005 0.995335 -0.098667
C2    C     C_R   0.127393 0.693005 0.004666 -0.098677
C3    C     C_R   0.372604 0.193004 0.995337 -0.098659
C4    C     C_R   0.627396 0.193005 0.004663 -0.098695
C5    C     C_R   0.893615 0.314687 0.296717 0.149845
C6    C     C_R   0.106378 0.314687 0.703284 0.149804
C7    C     C_R   0.393616 0.814684 0.296715 0.149774
C8    C     C_R   0.606397 0.814690 0.703278 0.149842
C9    C     C_R   0.790516 0.346984 0.019485 0.150006
C10   C     C_R   0.209484 0.346984 0.980513 0.149990
C11   C     C_R   0.290516 0.846984 0.019485 0.149974
C12   C     C_R   0.709483 0.846984 0.980516 0.149984
C13   C     C_R   0.818738 0.647322 0.323551 0.051218
C14   C     C_R   0.181265 0.647319 0.676452 0.051229
C15   C     C_R   0.318739 0.147322 0.323560 0.051183
C16   C     C_R   0.681251 0.147329 0.676446 0.051224
C17   C     C_R   0.765682 0.679757 0.506170 -0.048230
C18   C     C_R   0.234333 0.679749 0.493825 -0.048229
C19   C     C_R   0.265551 0.179630 0.506278 -0.048210
C20   C     C_R   0.734356 0.179718 0.493795 -0.048189
C21   C     C_R   0.755424 0.682867 0.424352 -0.031613
C22   C     C_R   0.244585 0.682863 0.575648 -0.031622
C23   C     C_R   0.255386 0.182832 0.424380 -0.031610
C24   C     C_R   0.744578 0.182863 0.575640 -0.031619
C25   C     C_R   0.183671 0.217884 0.443248 -0.292124
C26   C     C_R   0.816336 0.217855 0.556724 -0.292205
C27   C     C_R   0.683648 0.717835 0.443292 -0.292194
C28   C     C_R   0.316359 0.717832 0.556709 -0.292191
C29   C     C_R   0.127551 0.257162 0.540625 0.765244
C30   C     C_R   0.872454 0.257127 0.459344 0.765218
C31   C     C_R   0.627539 0.757112 0.540671 0.765223
C32   C     C_R   0.372470 0.757106 0.459326 0.765239
C33   C     C_R   0.144502 0.260105 0.617047 -0.079891
C34   C     C_R   0.855461 0.260118 0.382967 -0.079893
C35   C     C_R   0.644558 0.760127 0.617024 -0.079912
C36   C     C_R   0.355455 0.760118 0.382970 -0.079898
C37   C     C_R   0.711067 0.717962 0.600873 -0.294332
C38   C     C_R   0.288949 0.717952 0.399118 -0.294335
C39   C     C_R   0.210934 0.217852 0.600969 -0.294373
C40   C     C_R   0.788976 0.217926 0.399093 -0.294331
C41   C     C_3   0.778724 0.744397 0.610535 0.472730
C42   C     C_3   0.221291 0.744391 0.389458 0.472744
C43   C     C_3   0.278560 0.244172 0.610748 0.472688
C44   C     C_3   0.721330 0.244330 0.389393 0.472638
C45   C     C_R   0.901745 0.301751 0.203902 -0.090133
C46   C     C_R   0.098248 0.301750 0.796101 -0.089921
C47   C     C_R   0.401738 0.801750 0.203905 -0.090230
C48   C     C_R   0.598267 0.801753 0.796092 -0.090238
C49   C     C_3   0.840105 0.702380 0.504875 1.051846
C50   C     C_3   0.159910 0.702377 0.495119 1.051799
C51   C     C_3   0.339942 0.202123 0.505122 1.051952
C52   C     C_3   0.659945 0.202305 0.495043 1.051890
C53   C     C_2   0.697158 0.235563 0.088759 -0.133635
C54   C     C_2   0.302841 0.235563 0.911242 -0.133522
C55   C     C_2   0.197155 0.735565 0.088762 -0.133567
C56   C     C_2   0.802843 0.735565 0.911240 -0.133572
C57   C     C_2   0.217992 0.805889 0.041406 -0.172269
C58   C     C_2   0.782006 0.805888 0.958597 -0.172271
C59   C     C_2   0.717992 0.305888 0.041406 -0.172325
C60   C     C_2   0.282007 0.305888 0.958594 -0.172282
C61   C     C_R   0.830734 0.410084 0.949609 -0.125417
C62   C     C_R   0.169266 0.410084 0.050390 -0.125404
C63   C     C_R   0.330734 0.910084 0.949609 -0.125371
C64   C     C_R   0.669265 0.910084 0.050391 -0.125390
C65   C     C_R   0.866015 0.585299 0.314590 0.540076
C66   C     C_R   0.133988 0.585297 0.685412 0.540052
C67   C     C_R   0.366014 0.085296 0.314587 0.540103
C68   C     C_R   0.633976 0.085303 0.685412 0.540066
C69   C     C_R   0.841539 0.320340 0.046308 -0.078156
C70   C     C_R   0.158461 0.320341 0.953691 -0.078089
C71   C     C_R   0.341540 0.820340 0.046307 -0.078154
C72   C     C_R   0.658460 0.820340 0.953694 -0.078164
C73   C     C_R   0.855229 0.676380 0.220491 -0.229334
C74   C     C_R   0.144773 0.676377 0.779511 -0.229317
C75   C     C_R   0.355230 0.176384 0.220499 -0.229406
C76   C     C_R   0.644765 0.176385 0.779506 -0.229339
C77   C     C_R   0.910190 0.391447 0.300382 0.009362
C78   C     C_R   0.089805 0.391448 0.699621 0.009241
C79   C     C_R   0.410199 0.891441 0.300374 0.009634
C80   C     C_R   0.589815 0.891448 0.699616 0.009475
C81   C     C_R   0.863215 0.602405 0.899255 -0.140687
C82   C     C_R   0.136784 0.602404 0.100745 -0.140688
C83   C     C_R   0.363214 0.102404 0.899256 -0.140689
C84   C     C_R   0.636785 0.102403 0.100744 -0.140709
C85   C     C_R   0.843586 0.678817 0.935307 0.143408
C86   C     C_R   0.156412 0.678817 0.064695 0.143412
C87   C     C_R   0.343584 0.178816 0.935309 0.143366
C88   C     C_R   0.656415 0.178816 0.064691 0.143389
H1    H     H_    0.878895 0.748272 0.022965 0.088990
H2    H     H_    0.121104 0.748273 0.977036 0.088992
H3    H     H_    0.378891 0.248271 0.022969 0.088980
H4    H     H_    0.621109 0.248272 0.977030 0.088981
H5    H     H_    0.772292 0.718686 0.681275 0.043754
H6    H     H_    0.227719 0.718680 0.318719 0.043756
H7    H     H_    0.272026 0.218429 0.681540 0.043644
H8    H     H_    0.727792 0.218609 0.318640 0.043724
H9    H     H_    0.720903 0.214383 0.132013 0.128599
H10   H     H_    0.279094 0.214383 0.867990 0.128608
H11   H     H_    0.220899 0.714385 0.132017 0.128574
H12   H     H_    0.779099 0.714386 0.867984 0.128572
H13   H     H_    0.192299 0.827985 0.000927 0.125543
H14   H     H_    0.807698 0.827984 0.999076 0.125539
H15   H     H_    0.692299 0.327985 0.000929 0.125538
H16   H     H_    0.307701 0.327985 0.999070 0.125530
H17   H     H_    0.901804 0.245987 0.171413 0.086278
H18   H     H_    0.098177 0.245986 0.828598 0.086212
H19   H     H_    0.401791 0.745987 0.171419 0.086308
H20   H     H_    0.598213 0.745988 0.828578 0.086309
H21   H     H_    0.809610 0.442874 0.910084 0.111423
H22   H     H_    0.190391 0.442873 0.089915 0.111427
H23   H     H_    0.309610 0.942874 0.910084 0.111433
H24   H     H_    0.690390 0.942873 0.089917 0.111427
H25   H     H_    0.832699 0.271038 0.095181 0.087992
H26   H     H_    0.167301 0.271041 0.904817 0.088007
H27   H     H_    0.332699 0.771037 0.095178 0.087977
H28   H     H_    0.667300 0.771038 0.904824 0.087978
H29   H     H_    0.836587 0.727496 0.198906 0.139087
H30   H     H_    0.163417 0.727491 0.801096 0.139090
H31   H     H_    0.336583 0.227496 0.198916 0.139084
H32   H     H_    0.663409 0.227500 0.801088 0.139079
H33   H     H_    0.920936 0.414955 0.355771 0.159759
H34   H     H_    0.079049 0.414959 0.644242 0.159836
H35   H     H_    0.420966 0.914941 0.355748 0.159707
H36   H     H_    0.579068 0.914953 0.644225 0.159740
H37   H     H_    0.858208 0.575936 0.839680 0.123936
H38   H     H_    0.141790 0.575935 0.160322 0.123938
H39   H     H_    0.358208 0.075935 0.839681 0.123966
H40   H     H_    0.641791 0.075934 0.160320 0.123940
H41   H     H_    0.173521 0.217825 0.381566 0.182118
H42   H     H_    0.826526 0.217748 0.618367 0.182126
H43   H     H_    0.673436 0.717706 0.381667 0.182157
H44   H     H_    0.326568 0.717704 0.618336 0.182158
N1    N     N_R   0.908660 0.628630 0.995840 -0.041890
N2    N     N_R   0.091340 0.628630 0.004160 -0.041890
N3    N     N_R   0.408660 0.128630 0.995840 -0.041881
N4    N     N_R   0.591340 0.128630 0.004160 -0.041884
N5    N     N_R   0.922310 0.368460 0.151950 -0.048614
N6    N     N_R   0.077690 0.368460 0.848050 -0.048626
N7    N     N_R   0.422310 0.868460 0.151950 -0.048613
N8    N     N_R   0.577690 0.868460 0.848050 -0.048613
N9    N     N_R   0.903470 0.421430 0.936420 -0.053018
N10   N     N_R   0.096530 0.421430 0.063580 -0.053020
N11   N     N_R   0.403470 0.921430 0.936420 -0.053021
N12   N     N_R   0.596530 0.921430 0.063580 -0.053029
N13   N     N_R   0.927500 0.575670 0.211370 -0.113014
N14   N     N_R   0.072500 0.575670 0.788630 -0.113000
N15   N     N_R   0.427500 0.075670 0.211370 -0.112997
N16   N     N_R   0.572500 0.075670 0.788630 -0.113013
N17   N     N_R   0.908660 0.365680 0.995820 -0.056974
N18   N     N_R   0.091340 0.365680 0.004180 -0.056981
N19   N     N_R   0.408660 0.865680 0.995820 -0.056958
N20   N     N_R   0.591340 0.865680 0.004180 -0.056962
N21   N     N_R   0.922310 0.631420 0.151980 -0.062803
N22   N     N_R   0.077690 0.631420 0.848020 -0.062806
N23   N     N_R   0.422310 0.131420 0.151980 -0.062806
N24   N     N_R   0.577690 0.131420 0.848020 -0.062806
N25   N     N_R   0.927500 0.426330 0.211360 -0.066137
N26   N     N_R   0.072500 0.426330 0.788640 -0.066133
N27   N     N_R   0.427500 0.926330 0.211360 -0.066115
N28   N     N_R   0.572500 0.926330 0.788640 -0.066133
N29   N     N_R   0.903470 0.570760 0.936440 -0.049586
N30   N     N_R   0.096530 0.570760 0.063560 -0.049588
N31   N     N_R   0.403470 0.070760 0.936440 -0.049591
N32   N     N_R   0.596530 0.070760 0.063560 -0.049587
Ni1   Ni    Ni4+2 1.000000 0.630300 0.000000 0.221185
Ni2   Ni    Ni4+2 0.500000 0.130300 0.000000 0.221161
Ni3   Ni    Ni4+2 0.000000 0.369700 0.000000 0.214501
Ni4   Ni    Ni4+2 0.500000 0.869700 0.000000 0.214516
Ni5   Ni    Ni4+2 0.988090 0.497570 0.863760 0.236610
Ni6   Ni    Ni4+2 0.011910 0.497570 0.136240 0.236612
Ni7   Ni    Ni4+2 0.488090 0.997570 0.863760 0.236629
Ni8   Ni    Ni4+2 0.511910 0.997570 0.136240 0.236621
F1    F     F_    0.061151 0.295969 0.556824 -0.673300
F2    F     F_    0.938903 0.295879 0.443092 -0.673284
F3    F     F_    0.561072 0.795842 0.556947 -0.673281
F4    F     F_    0.438937 0.795835 0.443051 -0.673283
F5    F     F_    0.789404 0.824425 0.602545 -0.660568
F6    F     F_    0.210614 0.824418 0.397447 -0.660559
F7    F     F_    0.289349 0.324186 0.602746 -0.660597
F8    F     F_    0.710621 0.324356 0.397382 -0.660592
O1    O     O_3   0.899615 0.750651 0.418001 -0.705509
H45   H     H_    0.868974 0.790576 0.407250 0.314173
O2    O     O_3   0.100405 0.750650 0.581995 -0.705517
H46   H     H_    0.131049 0.790577 0.592731 0.314200
O3    O     O_3   0.399572 0.250346 0.418278 -0.705511
H47   H     H_    0.369033 0.290329 0.407443 0.314173
O4    O     O_3   0.600402 0.250564 0.581905 -0.705510
H48   H     H_    0.631011 0.290516 0.592673 0.314186
F9    F     F_    0.877752 0.640290 0.517867 -0.656541
F10   F     F_    0.122256 0.640291 0.482131 -0.656565
F11   F     F_    0.377446 0.139964 0.518226 -0.656610
F12   F     F_    0.622335 0.140197 0.482018 -0.656556
O5    O     O_3   0.859538 0.547655 0.397407 -0.711289
H49   H     H_    0.918345 0.537726 0.370945 0.333928
O6    O     O_3   0.140482 0.547641 0.602593 -0.711338
H50   H     H_    0.081680 0.537732 0.629024 0.333964
O7    O     O_3   0.359495 0.047595 0.397389 -0.711294
H51   H     H_    0.418284 0.037696 0.370993 0.333970
O8    O     O_3   0.640457 0.047646 0.602602 -0.711283
H52   H     H_    0.581652 0.037727 0.629057 0.333940

loop_
_geom_bond_atom_site_label_1
_geom_bond_atom_site_label_2
_ccdc_geom_bond_type
C84   H40   S    
C83   C87   A    
N8    Ni4   S    
C73   N21   A    
C27   H43   S    
C7    C36   S    
C15   C75   A    
C50   O2    S    
N17   Ni3   S    
C42   H6    S    
C61   H21   S    
C44   F8    S    
C66   O6    S    
C53   C59   D    
N9    N17   A    
C54   C60   D    
O1    H45   S    
C70   H26   S    
C32   F4    S    
C69   H25   S    
C2    N2    A    
C68   O8    S    
C9    C61   A    
C14   C74   A    
C41   F5    S    
C35   C37   A    
C9    C69   A    
C38   C42   S    
C11   C63   A    
C79   N27   A    
C54   C87   S    
C20   C40   A    
C11   C71   A    
C80   N28   A    
C49   F9    S    
C68   N16   A    
N18   Ni3   S    
N23   Ni2   S    
C57   H13   S    
N19   Ni4   S    
C29   C33   A    
N16   Ni7   S    
C74   N22   A    
C3    H3    S    
C52   F12   S    
C2    H2    S    
C82   H38   S    
N12   Ni8   S    
C78   N26   A    
C41   H5    S    
C63   N11   A    
C20   C24   A    
C70   N18   A    
C72   N20   A    
N30   Ni6   S    
C43   H7    S    
N22   Ni1   S    
N7    Ni4   S    
C16   C68   A    
C52   O4    S    
N31   Ni7   S    
C3    N3    A    
C84   N32   A    
C4    N4    A    
C12   C58   S    
C44   C52   S    
C15   C23   S    
C25   H41   S    
C12   C72   A    
N7    N27   A    
O8    H52   S    
C16   C24   S    
C16   C76   A    
C1    C85   A    
C55   H11   S    
C80   H36   S    
C10   C62   A    
N3    N31   A    
C62   N10   A    
C1    N1    A    
C41   C49   S    
N20   Ni4   S    
C45   H17   S    
C50   F10   S    
C65   O5    S    
C25   C29   A    
C74   H30   S    
C71   N19   A    
C73   H29   S    
N27   Ni8   S    
C30   C34   A    
C3    C87   A    
C28   C32   A    
C75   H31   S    
C69   N17   A    
C17   C49   S    
C77   H33   S    
C48   N8    A    
C13   C65   A    
C64   N12   A    
C53   H9    S    
C42   F6    S    
C82   C86   A    
C27   C31   A    
C76   N24   A    
C17   C21   A    
N2    N30   A    
N1    N29   A    
N6    Ni3   S    
C9    C59   S    
C8    C35   S    
C7    C47   A    
C19   C23   A    
O2    H46   S    
C8    C48   A    
C44   H8    S    
N1    Ni1   S    
N25   Ni6   S    
C33   C39   A    
N6    N26   A    
N14   N22   A    
N24   Ni2   S    
C71   H27   S    
C15   C67   A    
C5    C34   S    
N9    Ni5   S    
C14   C66   A    
N2    Ni1   S    
C13   C21   S    
C5    C45   A    
C76   H32   S    
C43   F7    S    
C19   C39   A    
C42   C50   S    
C49   O1    S    
C10   C70   A    
C61   N9    A    
C13   C73   A    
C26   C30   A    
C47   H19   S    
N3    Ni2   S    
C55   C57   D    
C67   N15   A    
C21   C27   A    
C34   C40   A    
C51   O3    S    
N32   Ni8   S    
C17   C37   A    
C5    C77   A    
N21   Ni1   S    
C32   C36   A    
N5    Ni3   S    
C51   F11   S    
N15   Ni8   S    
C18   C50   S    
C7    C79   A    
C45   N5    A    
N4    N32   A    
N13   N21   A    
C83   N31   A    
N13   Ni6   S    
C1    H1    S    
C6    C46   A    
C81   H37   S    
C18   C22   A    
C81   N29   A    
C79   H35   S    
C84   C88   A    
C29   F1    S    
C67   O7    S    
C26   H42   S    
C39   C43   S    
N26   Ni5   S    
C4    C88   A    
N15   N23   A    
C82   N30   A    
C72   H28   S    
C56   C85   S    
C6    C33   S    
N5    N25   A    
C10   C60   S    
C59   H15   S    
N10   N18   A    
C55   C86   S    
C36   C38   A    
C18   C38   A    
N29   Ni5   S    
O4    H48   S    
C20   C52   S    
C60   H16   S    
N8    N28   A    
C63   H23   S    
C24   C26   A    
C14   C22   S    
O3    H47   S    
C48   H20   S    
N4    Ni2   S    
C62   H22   S    
C43   C51   S    
C19   C51   S    
C12   C64   A    
C58   H14   S    
C46   H18   S    
N11   N19   A    
N28   Ni7   S    
C56   C58   D    
C2    C86   A    
C53   C88   S    
C31   C35   A    
C23   C25   A    
C37   C41   S    
O7    H51   S    
C78   H34   S    
C83   H39   S    
C66   N14   A    
C64   H24   S    
C6    C78   A    
N11   Ni7   S    
O6    H50   S    
C75   N23   A    
C40   C44   S    
N12   N20   A    
O5    H49   S    
N14   Ni5   S    
C47   N7    A    
C8    C80   A    
C56   H12   S    
C46   N6    A    
C54   H10   S    
C22   C28   A    
N16   N24   A    
C28   H44   S    
C11   C57   S    
C65   N13   A    
C30   F2    S    
C81   C85   A    
N10   Ni6   S    
C77   N25   A    
C4    H4    S    
C31   F3    S    
