data_mof_unit_49999.cif
_audit_creation_date              2012-12-11T14:50:31-0500
_audit_creation_method            fapswitch 2.2
_symmetry_space_group_name_H-M    P1
_symmetry_Int_Tables_number       1
_space_group_crystal_system       triclinic
_cell_length_a                    10.954118
_cell_length_b                    10.954883
_cell_length_c                    18.844481
_cell_angle_alpha                 89.636328
_cell_angle_beta                  89.573316
_cell_angle_gamma                 59.799885
_cell_volume                      1954.36948691

loop_
_atom_site_label
_atom_site_type_symbol
_atom_type_description
_atom_site_fract_x
_atom_site_fract_y
_atom_site_fract_z
_atom_type_partial_charge
C1    C     C_R   0.235563 0.646332 0.609286 0.595206
C2    C     C_3   0.823437 0.528772 0.785437 -0.189446
C3    C     C_3   0.698158 0.671283 0.813199 0.031651
C4    C     C_3   0.668835 0.640314 0.678250 -0.003584
C5    C     C_3   0.667678 0.779909 0.688896 -0.238403
C6    C     C_3   0.810667 0.513859 0.706487 0.038379
C7    C     C_R   0.788542 0.157120 0.708043 -0.081471
C8    C     C_R   0.798026 0.145462 0.782230 -0.073306
C9    C     C_R   0.687702 0.146957 0.821243 0.107044
C10   C     C_R   0.570354 0.159021 0.784960 -0.048487
C11   C     C_R   0.566083 0.159753 0.712735 -0.099470
C12   C     C_R   0.651854 0.618300 0.602531 0.615227
C13   C     C_R   0.670244 0.166901 0.673268 0.067929
C14   C     C_R   0.220328 0.542029 0.724042 0.010050
C15   C     C_R   0.206170 0.551060 0.797636 0.268578
C16   C     C_R   0.165373 0.680653 0.831231 0.125292
C17   C     C_R   0.138156 0.798795 0.789741 -0.069127
C18   C     C_R   0.147312 0.790339 0.716816 -0.102941
C19   C     C_R   0.189983 0.661785 0.683199 0.051442
C20   C     C_R   0.698301 0.503917 0.264635 -0.107840
C21   C     C_R   0.709379 0.526335 0.192831 -0.107229
C22   C     C_R   0.645810 0.664340 0.165529 0.023140
C23   C     C_R   0.630383 0.224625 0.601791 0.573418
C24   C     C_R   0.562255 0.779032 0.210196 -0.142117
C25   C     C_R   0.550951 0.756297 0.282223 -0.133744
C26   C     C_R   0.622076 0.618504 0.310135 0.035936
C27   C     C_R   0.508620 0.252798 0.277933 -0.095984
C28   C     C_R   0.518971 0.234640 0.205437 0.210679
C29   C     C_R   0.653551 0.163854 0.174466 0.035862
C30   C     C_R   0.775245 0.121640 0.216166 -0.180790
C31   C     C_R   0.763890 0.139572 0.288569 -0.167658
C32   C     C_R   0.631030 0.201820 0.319587 -0.008802
C33   C     C_R   0.243348 0.720234 0.282003 -0.180342
C34   C     C_R   0.223970 0.649037 0.400628 0.577104
C35   C     C_R   0.227672 0.719429 0.210131 -0.138861
C36   C     C_R   0.146256 0.666479 0.182785 0.030598
C37   C     C_R   0.088833 0.604405 0.227174 -0.056855
C38   C     C_R   0.108161 0.601067 0.299982 0.208096
C39   C     C_R   0.183206 0.662691 0.327451 0.033059
C40   C     C_R   0.702099 0.100906 0.895375 0.593078
C41   C     C_R   0.723957 0.688179 0.888279 0.645404
C42   C     C_R   0.116015 0.708003 0.904812 0.629353
C43   C     C_R   0.674776 0.107915 0.103509 0.582211
C44   C     C_R   0.693773 0.688685 0.096893 0.547915
C45   C     C_R   0.616183 0.590704 0.385877 0.549444
C46   C     C_R   0.092875 0.708115 0.112397 0.566268
C47   C     C_R   0.613623 0.235177 0.393617 0.534126
C48   C     C_3   0.556815 0.671690 0.803340 0.309932
C49   C     C_3   0.543166 0.647214 0.722609 0.092918
C50   C     C_3   0.692636 0.794933 0.767936 0.056244
Cr1   Cr    Cr6+3 0.392930 0.397900 0.502230 1.104038
Cr2   Cr    Cr6+3 0.398240 0.708600 0.501260 1.043420
Cr3   Cr    Cr6+3 0.708800 0.393470 0.496460 1.089371
Cr4   Cr    Cr6+3 0.937620 0.938540 0.007640 1.067957
Cr5   Cr    Cr6+3 0.625150 0.937450 0.994520 1.136208
Cr6   Cr    Cr6+3 0.937990 0.625080 0.001190 1.134299
H1    H     H_    0.748434 0.783857 0.654385 0.214596
H2    H     H_    0.870094 0.163598 0.678347 0.122437
H3    H     H_    0.890566 0.134105 0.808645 0.121989
H4    H     H_    0.484101 0.156593 0.811817 0.200395
H5    H     H_    0.474076 0.165302 0.688400 0.144348
H6    H     H_    0.260075 0.440033 0.699114 0.185710
H7    H     H_    0.101641 0.901397 0.813220 0.170507
H8    H     H_    0.125093 0.884068 0.686923 0.140218
H9    H     H_    0.752655 0.397149 0.285152 0.141146
H10   H     H_    0.774642 0.436096 0.159458 0.147055
H11   H     H_    0.513893 0.886571 0.190652 0.160111
H12   H     H_    0.490322 0.846646 0.316265 0.148019
H13   H     H_    0.404048 0.309210 0.301520 0.186579
H14   H     H_    0.880787 0.067222 0.193706 0.164029
H15   H     H_    0.858069 0.104644 0.320189 0.148827
H16   H     H_    0.304263 0.765149 0.302036 0.148394
H17   H     H_    0.271914 0.767930 0.176203 0.154868
H18   H     H_    0.022674 0.566096 0.205866 0.176973
H19   H     H_    0.442744 0.736826 0.702311 0.166905
H20   H     H_    0.605482 0.897541 0.786917 0.176036
H21   H     H_    0.563676 0.870309 0.672554 0.099407
H22   H     H_    0.926432 0.521663 0.796375 0.240264
H23   H     H_    0.826166 0.437898 0.813721 0.161582
H24   H     H_    0.812053 0.412799 0.698167 0.187710
O1    O     O_R   0.507430 0.255570 0.581420 -0.512175
O2    O     O_R   0.524460 0.695920 0.424060 -0.510749
O3    O     O_R   0.736530 0.504260 0.414810 -0.447370
O4    O     O_R   0.691460 0.277160 0.422180 -0.530304
O5    O     O_3   0.499990 0.499990 0.499980 -0.289829
O6    O     O_R   0.089490 0.825610 0.930610 -0.505767
O7    O     O_R   0.818370 0.054540 0.929880 -0.499057
O8    O     O_R   0.605870 0.077310 0.915530 -0.491926
O9    O     O_R   0.646440 0.806700 0.917570 -0.460173
O10   O     O_R   0.837200 0.593290 0.915250 -0.496366
O11   O     O_R   0.065330 0.635370 0.931590 -0.438222
O12   O     O_R   0.280190 0.527390 0.578910 -0.463134
O13   O     O_R   0.068300 0.828790 0.091860 -0.527299
O14   O     O_R   0.798730 0.057480 0.079370 -0.528659
O15   O     O_R   0.584680 0.080480 0.076790 -0.446740
O16   O     O_R   0.626790 0.809640 0.067050 -0.497498
O17   O     O_R   0.816010 0.596460 0.076500 -0.514731
O18   O     O_R   0.045680 0.638310 0.081070 -0.481942
O19   O     O_3   0.833590 0.833690 0.001120 -0.295848
O20   O     O_R   0.260310 0.739740 0.584580 -0.523894
O21   O     O_R   0.532250 0.695150 0.573830 -0.503370
O22   O     O_R   0.744930 0.503430 0.576380 -0.451353
O23   O     O_R   0.699250 0.276390 0.571950 -0.489930
O24   O     O_R   0.499020 0.256400 0.419850 -0.513233
O25   O     O_R   0.272400 0.528160 0.429140 -0.459294
O26   O     O_R   0.251910 0.740570 0.423020 -0.541428
Br1   Br    Br    0.394071 0.852928 0.832320 -0.515359
Br2   Br    Br    0.978029 0.491232 0.656186 -0.508136
Cl1   Cl    Cl    0.847958 0.806261 0.777136 -0.702160
Cl2   Cl    Cl    0.238853 0.398631 0.845015 -0.573466
Cl3   Cl    Cl    0.550793 0.542914 0.861488 -0.519928
Cl4   Cl    Cl    0.361605 0.301635 0.156293 -0.581998
Cl5   Cl    Cl    0.529174 0.494130 0.706897 -0.624273
Cl6   Cl    Cl    0.030377 0.527664 0.354729 -0.556916

loop_
_geom_bond_atom_site_label_1
_geom_bond_atom_site_label_2
_ccdc_geom_bond_type
C41   O9    A    
C37   H18   S    
C21   H10   S    
C49   Cl5   S    
C35   C36   A    
Cr6   O18   S    
Cr1   O5    S    
C7    C8    A    
C2    C6    S    
C28   Cl4   S    
C33   C39   A    
Cr3   O4    S    
C2    H22   S    
C40   O7    A    
C28   C29   A    
C18   C19   A    
C8    H3    S    
Cr4   O7    S    
C38   Cl6   S    
C48   Br1   S    
C15   C16   A    
C14   H6    S    
C3    C48   S    
C43   O14   A    
C13   C23   S    
C42   O11   A    
Cr5   O8    S    
Cr4   O13   S    
C2    H23   S    
C26   C45   S    
Cr6   O11   S    
C22   C44   S    
C45   O2    A    
C8    C9    A    
C43   O15   A    
C49   H19   S    
C36   C46   S    
C42   O6    A    
C4    C12   S    
C29   C30   A    
C35   H17   S    
C9    C10   A    
Cr1   O1    S    
C7    H2    S    
C33   H16   S    
Cr6   O10   S    
C41   O10   A    
C46   O18   A    
Cr2   O26   S    
C21   C22   A    
C29   C43   S    
C15   Cl2   S    
C45   O3    A    
C25   H12   S    
Cr6   O17   S    
C1    O20   A    
C30   H14   S    
C3    C50   S    
C38   C39   A    
C23   O23   A    
Cr2   O21   S    
C1    C19   S    
C34   C39   S    
C34   O26   A    
C20   H9    S    
C24   C25   A    
C4    C6    S    
Cr4   O6    S    
C16   C17   A    
Cr1   O24   S    
Cr2   O20   S    
C9    C40   S    
C10   H4    S    
C12   O22   A    
C37   C38   A    
C44   O16   A    
C50   H20   S    
Cr1   O12   S    
C44   O17   A    
C6    H24   S    
C31   C32   A    
C7    C13   A    
Cr3   O22   S    
Cr1   O25   S    
C17   C18   A    
C47   O4    A    
Cr2   O2    S    
Cr5   O15   S    
C48   C49   S    
Cr2   O5    S    
C1    O12   A    
C32   C47   S    
C22   C24   A    
C5    C50   S    
C5    H21   S    
C16   C42   S    
C24   H11   S    
C3    C41   S    
C47   O24   A    
C23   O1    A    
C27   C32   A    
C34   O25   A    
C14   C19   A    
Cr5   O16   S    
C11   H5    S    
C27   H13   S    
C5    H1    S    
C4    C49   S    
Cr3   O3    S    
C40   O8    A    
C2    C3    S    
C25   C26   A    
C12   O21   A    
Cr5   O9    S    
C17   H7    S    
C11   C13   A    
C18   H8    S    
C30   C31   A    
C46   O13   A    
C20   C26   A    
Cr3   O23   S    
C31   H15   S    
C33   C35   A    
C50   Cl1   S    
Cr4   O19   S    
Cr4   O14   S    
C10   C11   A    
C4    C5    S    
C48   Cl3   S    
C20   C21   A    
C36   C37   A    
Cr5   O19   S    
C27   C28   A    
C6    Br2   S    
C14   C15   A    
Cr3   O5    S    
Cr6   O19   S    
