data_mof_unit_8028.cif
_audit_creation_date              2013-03-05T16:48:14-0500
_audit_creation_method            fapswitch 2.2
_symmetry_space_group_name_H-M    P1
_symmetry_Int_Tables_number       1
_space_group_crystal_system       triclinic
_cell_length_a                    23.414236
_cell_length_b                    8.924853
_cell_length_c                    8.097648
_cell_angle_alpha                 89.99776
_cell_angle_beta                  89.999305
_cell_angle_gamma                 89.999771
_cell_volume                      1692.15428109

loop_
_atom_site_label
_atom_site_type_symbol
_atom_site_description
_atom_site_fract_x
_atom_site_fract_y
_atom_site_fract_z
_atom_type_partial_charge
O1    O     O_R   0.500000 0.285350 0.636850 -0.611740
O2    O     O_R   0.500000 0.714650 0.363150 -0.611742
O3    O     O_R   0.500000 0.714650 0.636850 -0.616748
O4    O     O_R   0.500000 0.285350 0.363150 -0.616742
H1    H     H_    0.948119 0.181140 0.726405 0.202592
H2    H     H_    0.051887 0.819271 0.273599 0.202590
H3    H     H_    0.948110 0.819261 0.273600 0.202590
H4    H     H_    0.051894 0.181162 0.726427 0.202596
C1    C     C_R   0.500000 0.217973 0.500002 0.940968
C2    C     C_R   0.500000 0.782026 0.499998 0.940957
O5    O     O_R   0.416160 0.500000 0.636910 -0.618398
O6    O     O_R   0.583840 0.500000 0.363090 -0.618429
O7    O     O_R   0.583840 0.500000 0.636910 -0.618428
O8    O     O_R   0.416160 0.500000 0.363090 -0.618399
C3    C     C_R   0.208393 0.500195 0.499978 0.193495
C4    C     C_R   0.791612 0.500153 0.499970 0.193492
C5    C     C_R   0.389082 0.500005 0.500000 0.900517
C6    C     C_R   0.610919 0.500003 0.499999 0.900558
Zn1   Zn    Zn3+2 0.500000 0.500000 0.682780 1.007687
Zn2   Zn    Zn3+2 0.500000 0.500000 0.317220 1.007689
C7    C     C_R   0.297365 0.565585 0.631507 -0.230115
C8    C     C_R   0.702653 0.434810 0.368333 -0.230106
C9    C     C_R   0.297350 0.434602 0.368479 -0.230105
C10   C     C_R   0.702641 0.565332 0.631641 -0.230111
H5    H     H_    0.320184 0.617612 0.732789 0.183731
H6    H     H_    0.679849 0.382939 0.266933 0.183778
H7    H     H_    0.320156 0.382526 0.267205 0.183735
H8    H     H_    0.679826 0.617165 0.733050 0.183777
C11   C     C_R   0.327077 0.500056 0.500000 -0.110368
C12   C     C_R   0.672925 0.500042 0.499994 -0.110431
C13   C     C_R   0.880476 0.613020 0.420104 0.566045
C14   C     C_R   0.119527 0.387390 0.579909 0.566017
C15   C     C_R   0.880480 0.387344 0.579870 0.566031
C16   C     C_R   0.119526 0.613043 0.420102 0.566035
N1    N     N_R   0.852322 0.500174 0.499980 -0.351226
N2    N     N_R   0.147683 0.500214 0.499999 -0.351230
C17   C     C_R   0.940087 0.384950 0.581722 -0.024341
C18   C     C_R   0.059919 0.615459 0.418279 -0.024348
C19   C     C_R   0.940084 0.615446 0.418276 -0.024346
C20   C     C_R   0.059921 0.384973 0.581743 -0.024339
C21   C     C_R   0.970008 0.500204 0.500004 -0.015064
C22   C     C_R   0.029997 0.500213 0.500010 -0.015060
C23   C     C_R   0.970281 0.270727 0.662818 -0.137341
C24   C     C_R   0.029725 0.729686 0.337192 -0.137342
C25   C     C_R   0.970275 0.729681 0.337192 -0.137335
C26   C     C_R   0.029730 0.270741 0.662831 -0.137338
C27   C     C_1   0.500000 0.065201 0.500002 -0.174331
C28   C     C_1   0.500000 0.934798 0.499998 -0.174330
C29   C     C_R   0.238056 0.567448 0.631059 0.207043
C30   C     C_R   0.761963 0.433024 0.368787 0.207057
C31   C     C_R   0.238040 0.432878 0.368906 0.207026
C32   C     C_R   0.761950 0.567227 0.631163 0.207054
N3    N     N_1   0.500000 0.500000 0.073640 -0.027180
N4    N     N_1   0.500000 0.500000 0.926360 -0.027181
O9    O     O_2   0.850690 0.722049 0.343046 -0.510559
O10   O     O_2   0.149312 0.278372 0.656990 -0.510568
O11   O     O_2   0.850699 0.278300 0.656915 -0.510566
O12   O     O_2   0.149309 0.722060 0.343018 -0.510562
I1    I     I_    0.194897 0.674928 0.828403 -0.206624
I2    I     I_    0.805145 0.325753 0.171346 -0.206677
I3    I     I_    0.194855 0.325486 0.171550 -0.206631
I4    I     I_    0.805110 0.674566 0.828595 -0.206676

loop_
_geom_bond_atom_site_label_1
_geom_bond_atom_site_label_2
_geom_bond_distance
_ccdc_geom_bond_type
C10   C32   1.388779 A    
C9    C11   1.400021 A    
C18   C24   1.403640 A    
C6    C12   1.451826 S    
C9    H7    1.083372 S    
C5    C11   1.451779 S    
C21   C22   1.404580 A    
C9    C31   1.388788 A    
C27   C28   1.163827 T    
C31   I3    2.120188 S    
C19   C25   1.403640 A    
C8    C30   1.388783 A    
C30   I2    2.120174 S    
O3    Zn1   1.951474 S    
O6    Zn2   1.997886 S    
C7    C29   1.388791 A    
H1    C23   1.083346 S    
C19   C21   1.409505 A    
O3    C2    1.260791 A    
H2    C24   1.083353 S    
N3    N4    1.192621 T    
C20   C26   1.403633 A    
O8    C5    1.277136 A    
O5    Zn1   1.997888 S    
O7    C6    1.277152 A    
C17   C21   1.409505 A    
C14   N2    1.366441 A    
Zn1   N4    1.972425 S    
C20   C22   1.409504 A    
C15   N1    1.366447 A    
C16   N2    1.366443 A    
C13   C19   1.395915 A    
C1    C27   1.363469 S    
C3    C31   1.403346 A    
C3    C29   1.403347 A    
C4    N1    1.421474 S    
C2    C28   1.363469 S    
C4    C30   1.403337 A    
C23   C26   1.391955 A    
C13   N1    1.366448 A    
C17   C23   1.403635 A    
O1    Zn1   1.951504 S    
C10   C12   1.400044 A    
O7    Zn1   1.997877 S    
O2    Zn2   1.951503 S    
O4    Zn2   1.951475 S    
C18   C22   1.409507 A    
H3    C25   1.083347 S    
C3    N2    1.421483 S    
C14   C20   1.395896 A    
O1    C1    1.260809 A    
C24   C25   1.391974 A    
O8    Zn2   1.997880 S    
Zn2   N3    1.972425 S    
C8    H6    1.083363 S    
O6    C6    1.277148 A    
C16   O12   1.350016 S    
C7    H5    1.083393 S    
O5    C5    1.277141 A    
C15   O11   1.350024 S    
C8    C12   1.400046 A    
H4    C26   1.083351 S    
C13   O9    1.350023 S    
O4    C1    1.260791 A    
C16   C18   1.395913 A    
C7    C11   1.400014 A    
C32   I4    2.120157 S    
O2    C2    1.260809 A    
C15   C17   1.395894 A    
C4    C32   1.403337 A    
C10   H8    1.083371 S    
C14   O10   1.350020 S    
C29   I1    2.120162 S    
