data_mof_unit_35023.cif
_audit_creation_date              2012-12-11T16:44:14-0500
_audit_creation_method            fapswitch 2.2
_symmetry_space_group_name_H-M    P1
_symmetry_Int_Tables_number       1
_space_group_crystal_system       triclinic
_cell_length_a                    27.235032
_cell_length_b                    7.196696
_cell_length_c                    22.751441
_cell_angle_alpha                 89.985567
_cell_angle_beta                  101.351873
_cell_angle_gamma                 89.995829
_cell_volume                      4372.0947753

loop_
_atom_site_label
_atom_site_type_symbol
_atom_type_description
_atom_site_fract_x
_atom_site_fract_y
_atom_site_fract_z
_atom_type_partial_charge
O1    O     O_R   0.707300 0.594030 0.176840 -0.535414
O2    O     O_R   0.292700 0.405970 0.823160 -0.535416
O3    O     O_R   0.792700 0.094030 0.323160 -0.535286
O4    O     O_R   0.207300 0.905970 0.676840 -0.535289
O5    O     O_R   0.697330 0.262360 0.295660 -0.514478
O6    O     O_R   0.302670 0.737640 0.704340 -0.514478
O7    O     O_R   0.802670 0.762360 0.204340 -0.514301
O8    O     O_R   0.197330 0.237640 0.795660 -0.514347
C1    C     C_R   0.685605 0.432505 0.312780 0.810875
C2    C     C_R   0.314395 0.567494 0.687219 0.810884
C3    C     C_R   0.814390 0.932529 0.187209 0.810728
C4    C     C_R   0.185608 0.067472 0.812787 0.810761
O9    O     O_R   0.701410 0.264250 0.175600 -0.540591
O10   O     O_R   0.298590 0.735750 0.824400 -0.540588
O11   O     O_R   0.798590 0.764250 0.324400 -0.540663
O12   O     O_R   0.201410 0.235750 0.675600 -0.540657
O13   O     O_R   0.796800 0.094950 0.202240 -0.544662
O14   O     O_R   0.203200 0.905050 0.797760 -0.544657
O15   O     O_R   0.703200 0.594950 0.297760 -0.544653
O16   O     O_R   0.296800 0.405050 0.702240 -0.544650
C5    C     C_R   0.689697 0.432860 0.153508 0.801360
C6    C     C_R   0.310303 0.567140 0.846492 0.801349
C7    C     C_R   0.810307 0.932814 0.346492 0.801163
C8    C     C_R   0.189693 0.067186 0.653508 0.801190
O17   O     O_3   0.781290 0.427390 0.258880 -0.375057
O18   O     O_3   0.218710 0.572610 0.741120 -0.375066
O19   O     O_3   0.718710 0.927390 0.241120 -0.375153
O20   O     O_3   0.281290 0.072610 0.758880 -0.375152
V1    V     V_3+5 0.744190 0.152150 0.248350 1.558678
V2    V     V_3+5 0.255810 0.847850 0.751650 1.558675
V3    V     V_3+5 0.755810 0.652150 0.251650 1.558678
V4    V     V_3+5 0.244190 0.347850 0.748350 1.558644
C9    C     C_R   0.154506 0.058821 0.595280 -0.253101
C10   C     C_R   0.845494 0.941178 0.404721 -0.253094
C11   C     C_R   0.345484 0.558603 0.904722 -0.253190
C12   C     C_R   0.654517 0.441396 0.095278 -0.253186
C13   C     C_R   0.141946 0.045260 0.487277 0.775623
C14   C     C_R   0.858053 0.954743 0.512723 0.775621
C15   C     C_R   0.358015 0.543756 0.012707 0.775663
C16   C     C_R   0.641987 0.456250 0.987293 0.775661
C17   C     C_R   0.173259 0.073052 0.542746 -0.389515
C18   C     C_R   0.826740 0.926954 0.457254 -0.389505
C19   C     C_R   0.326701 0.571927 0.957255 -0.389528
C20   C     C_R   0.673301 0.428081 0.042745 -0.389537
C21   C     C_R   0.102902 0.029935 0.591892 0.679392
C22   C     C_R   0.897098 0.970058 0.408108 0.679364
C23   C     C_R   0.397107 0.530229 0.908103 0.679420
C24   C     C_R   0.602894 0.469761 0.091895 0.679416
C25   C     C_R   0.068975 0.027613 0.535293 -0.145884
C26   C     C_R   0.931025 0.972378 0.464708 -0.145868
C27   C     C_R   0.431019 0.527478 0.964711 -0.145961
C28   C     C_R   0.568982 0.472512 0.035288 -0.145959
C29   C     C_R   0.090215 0.014365 0.483254 -0.270008
C30   C     C_R   0.909784 0.985629 0.516747 -0.270012
C31   C     C_R   0.409767 0.513329 0.016722 -0.269983
C32   C     C_R   0.590235 0.486667 0.983277 -0.269979
C33   C     C_R   0.015222 0.026066 0.528339 -0.018229
C34   C     C_R   0.984777 0.973922 0.471663 -0.018225
C35   C     C_R   0.484773 0.526314 0.971686 -0.018226
C36   C     C_R   0.515228 0.473671 0.028312 -0.018228
C37   C     C_R   0.009480 0.916983 0.425221 0.131034
C38   C     C_R   0.990520 0.083002 0.574782 0.130997
C39   C     C_R   0.490539 0.415898 0.074681 0.130992
C40   C     C_R   0.509462 0.584088 0.925316 0.130989
C41   C     C_R   0.060399 0.955028 0.429202 0.654189
C42   C     C_R   0.939600 0.044962 0.570799 0.654197
C43   C     C_R   0.439599 0.453549 0.070720 0.654223
C44   C     C_R   0.560402 0.546445 0.929279 0.654222
H1    H     H_    0.787079 0.905248 0.455115 0.183055
H2    H     H_    0.212919 0.094763 0.544884 0.183057
H3    H     H_    0.712980 0.406799 0.044883 0.183025
H4    H     H_    0.287023 0.593217 0.955118 0.183023
C45   C     C_R   0.845419 0.072463 0.098594 0.079549
C46   C     C_R   0.154607 0.927706 0.901440 0.079444
C47   C     C_R   0.654710 0.571613 0.401569 0.079013
C48   C     C_R   0.345286 0.428382 0.598428 0.079016
C49   C     C_R   0.881808 0.084251 0.062292 0.221593
C50   C     C_R   0.118217 0.915917 0.937740 0.221453
C51   C     C_R   0.618326 0.583396 0.437878 0.221196
C52   C     C_R   0.381668 0.416597 0.562116 0.221197
C53   C     C_R   0.924599 0.969809 0.073837 -0.106176
C54   C     C_R   0.075395 0.030188 0.926146 -0.106164
C55   C     C_R   0.575396 0.469735 0.426144 -0.106109
C56   C     C_R   0.424598 0.530261 0.573847 -0.106111
C57   C     C_R   0.929762 0.839553 0.120708 0.567578
C58   C     C_R   0.070199 0.160273 0.879225 0.567736
C59   C     C_R   0.570094 0.340206 0.379075 0.568014
C60   C     C_R   0.429901 0.659792 0.620915 0.568009
C61   C     C_R   0.893735 0.826767 0.156848 0.536023
C62   C     C_R   0.106227 0.173064 0.843088 0.536086
C63   C     C_R   0.606125 0.327397 0.342940 0.536511
C64   C     C_R   0.393872 0.672601 0.657053 0.536509
C65   C     C_R   0.851538 0.944129 0.147081 -0.330875
C66   C     C_R   0.148458 0.055876 0.852908 -0.330884
C67   C     C_R   0.648456 0.444035 0.352900 -0.330912
C68   C     C_R   0.351541 0.555963 0.647096 -0.330915
C69   C     C_R   0.975101 0.831612 0.003604 -0.224326
C70   C     C_R   0.024898 0.168379 0.996380 -0.224384
C71   C     C_R   0.524712 0.331333 0.496165 -0.224290
C72   C     C_R   0.475280 0.668659 0.503824 -0.224290
H5    H     H_    0.955701 0.700966 0.005470 0.219554
H6    H     H_    0.044299 0.299024 0.994513 0.219512
H7    H     H_    0.543970 0.200455 0.494134 0.220035
H8    H     H_    0.456022 0.799537 0.505855 0.220034
C73   C     C_R   0.010863 0.846038 0.967179 0.703182
C74   C     C_R   0.989140 0.153948 0.032810 0.703230
C75   C     C_R   0.488951 0.345776 0.532593 0.702975
C76   C     C_R   0.511041 0.654216 0.467396 0.702979
C77   C     C_R   0.036269 0.014795 0.963400 -0.031211
C78   C     C_R   0.963728 0.985198 0.036583 -0.031295
C79   C     C_R   0.463724 0.514815 0.536588 -0.031095
C80   C     C_R   0.536268 0.485178 0.463401 -0.031094
F1    F     F_    0.081559 0.913987 0.381404 -0.572203
F2    F     F_    0.918440 0.086001 0.618598 -0.572179
F3    F     F_    0.418445 0.411684 0.118463 -0.572155
F4    F     F_    0.581556 0.588315 0.881536 -0.572155
F5    F     F_    0.020085 0.695995 0.934855 -0.604751
F6    F     F_    0.979931 0.303979 0.065147 -0.604640
F7    F     F_    0.479561 0.195453 0.564715 -0.605528
F8    F     F_    0.520431 0.804538 0.435275 -0.605525
F9    F     F_    0.912108 0.020065 0.356902 -0.653726
F10   F     F_    0.087893 0.979920 0.643099 -0.653686
F11   F     F_    0.587837 0.518957 0.143141 -0.653524
F12   F     F_    0.412162 0.481026 0.856858 -0.653521
F13   F     F_    0.162749 0.045805 0.437714 -0.562452
F14   F     F_    0.837249 0.954202 0.562285 -0.562444
F15   F     F_    0.337194 0.543431 0.062256 -0.562441
F16   F     F_    0.662808 0.456585 0.937744 -0.562442
N1    N     N_3   0.984887 0.800757 0.377107 -0.529776
H9    H     H_    0.003156 0.672232 0.380750 0.261285
H10   H     H_    0.988969 0.860677 0.336443 0.339068
N2    N     N_3   0.015113 0.199220 0.622897 -0.529709
H11   H     H_    0.011031 0.139293 0.663560 0.339124
H12   H     H_    0.996845 0.327746 0.619257 0.261297
N3    N     N_3   0.515175 0.299245 0.122677 -0.529679
H13   H     H_    0.496969 0.170606 0.118891 0.261075
H14   H     H_    0.511053 0.358578 0.163401 0.339429
N4    N     N_3   0.484825 0.700737 0.877320 -0.529680
H15   H     H_    0.488948 0.641405 0.836597 0.339425
H16   H     H_    0.503030 0.829379 0.881105 0.261076
N5    N     N_3   0.801804 0.188157 0.083701 -0.646763
H17   H     H_    0.802846 0.288886 0.116965 0.256586
H18   H     H_    0.769740 0.106179 0.080971 0.232325
N6    N     N_3   0.198251 0.812180 0.916375 -0.646713
H19   H     H_    0.197241 0.711390 0.883136 0.256457
H20   H     H_    0.230294 0.894265 0.919087 0.232350
N7    N     N_3   0.698456 0.686513 0.416625 -0.646602
H21   H     H_    0.697546 0.787575 0.383472 0.256066
H22   H     H_    0.730423 0.604034 0.419266 0.232383
N8    N     N_3   0.301540 0.313479 0.583375 -0.646608
H23   H     H_    0.302453 0.212414 0.616527 0.256066
H24   H     H_    0.269573 0.395956 0.580738 0.232382
N9    N     N_3   0.874944 0.210814 0.012598 -0.566736
H25   H     H_    0.871845 0.345284 0.028893 0.284566
H26   H     H_    0.841344 0.177731 0.983539 0.274852
N10   N     N_3   0.125109 0.789526 0.987480 -0.566784
H27   H     H_    0.128246 0.655016 0.971235 0.284507
H28   H     H_    0.158697 0.822797 0.016531 0.274897
N11   N     N_3   0.625334 0.709130 0.487771 -0.566630
H29   H     H_    0.628607 0.843786 0.471692 0.284499
H30   H     H_    0.658887 0.675128 0.516783 0.275004
N12   N     N_3   0.374660 0.290851 0.512226 -0.566630
H31   H     H_    0.371394 0.156197 0.528312 0.284498
H32   H     H_    0.341102 0.324823 0.483217 0.275009
F17   F     F_    0.970594 0.727280 0.132507 -0.560428
F18   F     F_    0.029333 0.272367 0.867378 -0.560430
F19   F     F_    0.529126 0.228691 0.367087 -0.560569
F20   F     F_    0.470869 0.771308 0.632901 -0.560569
F21   F     F_    0.901012 0.702884 0.202782 -0.593865
F22   F     F_    0.098921 0.296766 0.797104 -0.593848
F23   F     F_    0.598728 0.204253 0.296822 -0.593750
F24   F     F_    0.401272 0.795744 0.703171 -0.593750

loop_
_geom_bond_atom_site_label_1
_geom_bond_atom_site_label_2
_ccdc_geom_bond_type
O17   V3    S    
C71   H7    S    
O1    C5    A    
C19   H4    S    
C59   C63   A    
O19   V1    S    
C9    C21   A    
C46   C66   A    
O3    C7    A    
N7    H21   S    
C10   C18   A    
C64   C68   A    
C52   C56   A    
O15   V3    S    
C24   F11   S    
C23   F12   S    
C47   C67   A    
C33   C38   A    
C5    C12   S    
C40   N4    S    
O7    C3    A    
C6    C11   S    
C35   C40   A    
C26   C30   A    
C36   C39   A    
C40   C44   A    
O9    V1    S    
N10   H27   S    
N7    H22   S    
C14   C18   A    
N5    H18   S    
C51   N11   S    
O4    C8    A    
C16   F16   S    
O1    V3    S    
O13   V1    S    
C20   H3    S    
O2    V4    S    
C45   C65   A    
O3    V1    S    
C76   F8    S    
C73   C77   A    
C28   C36   A    
C49   N9    S    
C1    O15   A    
C72   H8    S    
C15   C31   A    
C60   C64   A    
C2    O16   A    
N2    H11   S    
C16   C32   A    
C70   H6    S    
C58   F18   S    
O2    C6    A    
N11   H30   S    
C22   F9    S    
C10   C22   A    
C49   C53   A    
N9    H26   S    
C11   C19   A    
C1    C67   S    
C16   C20   A    
N12   H32   S    
C37   N1    S    
C13   C29   A    
C3    C65   S    
C34   C37   A    
O11   C7    A    
C11   C23   A    
C35   C36   A    
O12   C8    A    
C70   C77   A    
C74   F6    S    
C61   C65   A    
C73   F5    S    
C4    C66   S    
C41   F1    S    
O10   V2    S    
C75   F7    S    
C14   F14   S    
C53   C57   A    
C62   C66   A    
C13   F13   S    
C59   F19   S    
C72   C76   A    
C56   C79   S    
O7    V3    S    
C38   C42   A    
C26   C34   A    
C54   C77   S    
C38   N2    S    
N3    H13   S    
C15   F15   S    
N6    H20   S    
C58   C62   A    
C57   C61   A    
O18   V4    S    
C45   N5    S    
C60   F20   S    
C2    C68   S    
C54   C58   A    
C63   C67   A    
C18   H1    S    
O4    V2    S    
C76   C80   A    
O8    V4    S    
C39   C43   A    
O5    C1    A    
C23   C27   A    
C50   C54   A    
C31   C43   A    
N11   H29   S    
C14   C30   A    
C48   N8    S    
O8    C4    A    
C7    C10   S    
C52   N12   S    
C62   F22   S    
C21   C25   A    
O9    C5    A    
C47   N7    S    
N4    H16   S    
C44   F4    S    
O14   V2    S    
N2    H12   S    
O6    V2    S    
N8    H24   S    
C12   C20   A    
C27   C35   A    
O5    V1    S    
C29   C41   A    
N12   H31   S    
O16   V4    S    
N3    H14   S    
C46   N6    S    
C3    O13   A    
C42   F2    S    
C55   C80   S    
C75   C79   A    
C69   C73   A    
C48   C52   A    
N6    H19   S    
C55   C59   A    
O6    C2    A    
C25   C33   A    
C15   C19   A    
O11   V3    S    
C30   C42   A    
C21   F10   S    
O12   V4    S    
C71   C75   A    
C22   C26   A    
C8    C9    S    
C70   C74   A    
C63   F23   S    
C9    C17   A    
O10   C6    A    
N10   H28   S    
N1    H9    S    
C57   F17   S    
C32   C44   A    
N5    H17   S    
C48   C68   A    
C51   C55   A    
C69   C78   A    
C50   N10   S    
C33   C34   A    
C56   C60   A    
C64   F24   S    
C25   C29   A    
C71   C80   A    
O20   V2    S    
C12   C24   A    
C27   C31   A    
C13   C17   A    
C43   F3    S    
N4    H15   S    
C61   F21   S    
C37   C41   A    
C24   C28   A    
C53   C78   S    
C72   C79   A    
C74   C78   A    
C46   C50   A    
C4    O14   A    
C45   C49   A    
N8    H23   S    
N9    H25   S    
C47   C51   A    
C69   H5    S    
C28   C32   A    
C39   N3    S    
C17   H2    S    
N1    H10   S    
