data_mof_unit_66605.cif
_audit_creation_date              2013-03-05T15:40:29-0500
_audit_creation_method            fapswitch 2.2
_symmetry_space_group_name_H-M    P1
_symmetry_Int_Tables_number       1
_space_group_crystal_system       triclinic
_cell_length_a                    8.583155
_cell_length_b                    15.613889
_cell_length_c                    16.418002
_cell_angle_alpha                 98.105943
_cell_angle_beta                  92.244907
_cell_angle_gamma                 99.320663
_cell_volume                      2145.20554832

loop_
_atom_site_label
_atom_site_type_symbol
_atom_site_description
_atom_site_fract_x
_atom_site_fract_y
_atom_site_fract_z
_atom_type_partial_charge
P1    P     P_3+3 0.037890 0.428670 0.315390 0.531507
O1    O     O_2   0.870790 0.455700 0.303190 -0.302838
O2    O     O_3   0.120480 0.453880 0.403310 -0.388602
O3    O     O_3   0.662860 0.618850 0.354340 -0.355840
O4    O     O_2   0.766647 0.552451 0.208545 -0.369151
O5    O     O_3   0.985986 0.314097 0.306141 -0.539657
O6    O     O_3   0.637522 0.695537 0.212111 -0.602018
H1    H     H_    0.885220 0.704136 0.227227 0.121601
C1    C     C_3   0.808038 0.715745 0.102351 -0.879766
H2    H     H_    0.906207 0.761752 0.082995 0.242094
H3    H     H_    0.829883 0.648012 0.082932 0.274494
P2    P     P_3+3 0.680030 0.705880 0.565670 0.528178
P3    P     P_3+3 0.140290 0.781704 0.410514 0.475636
O7    O     O_2   0.855710 0.719820 0.541650 -0.302440
O8    O     O_3   0.086210 0.664250 0.395340 -0.404036
O9    O     O_2   0.010258 0.821062 0.458057 -0.351198
O10   O     O_3   0.711975 0.716645 0.672906 -0.529746
O11   O     O_3   0.120140 0.812797 0.313096 -0.499212
C2    C     C_3   0.250201 0.794156 0.268067 0.186672
H4    H     H_    0.271085 0.726012 0.271304 0.014434
H5    H     H_    0.358324 0.840153 0.293597 0.055277
C3    C     C_3   0.217018 0.801547 0.176333 0.161905
H6    H     H_    0.124265 0.744782 0.152282 0.039607
C4    C     C_3   0.114839 0.725885 0.753502 0.089182
H7    H     H_    0.989335 0.712442 0.729404 0.139690
H8    H     H_    0.124801 0.702623 0.814048 0.075963
C5    C     C_3   0.173750 0.824715 0.768370 0.016277
H9    H     H_    0.094708 0.857833 0.809485 0.116558
H10   H     H_    0.294143 0.837918 0.799918 0.132624
Ba1   Ba    Ba6+2 0.854080 0.543710 0.461380 1.673736
C6    C     C_3   0.995432 0.271682 0.225092 0.438628
H11   H     H_    0.099290 0.302819 0.196048 0.104840
C7    C     C_3   0.847714 0.274197 0.171427 -0.594145
H12   H     H_    0.836880 0.342174 0.163826 0.239611
H13   H     H_    0.743416 0.244721 0.201032 0.272040
H14   H     H_    0.852040 0.236561 0.109132 0.250136
C8    C     C_3   0.632593 0.782199 0.710430 0.146352
H15   H     H_    0.502954 0.763782 0.695832 0.125037
H16   H     H_    0.676245 0.846104 0.689935 0.106817
C9    C     C_3   0.667054 0.794799 0.803728 -0.051112
H17   H     H_    0.795954 0.818061 0.818106 0.126373
H18   H     H_    0.603124 0.845986 0.833785 0.124635
P4    P     P_3+3 0.151830 0.571400 0.684620 0.512418
O12   O     O_2   0.318910 0.544330 0.696860 -0.288499
O13   O     O_3   0.069240 0.546190 0.596700 -0.459593
O14   O     O_3   0.526850 0.381230 0.645670 -0.366374
O15   O     O_3   0.208913 0.685669 0.696815 -0.549347
P5    P     P_3+3 0.050239 0.219326 0.603466 0.569248
O16   O     O_3   0.607560 0.392310 0.457770 -0.319444
O17   O     O_3   0.103510 0.335820 0.604670 -0.354423
O18   O     O_2   0.171975 0.171645 0.556213 -0.350631
O19   O     O_3   0.038685 0.181847 0.699993 -0.533687
Ba2   Ba    Ba6+2 0.335760 0.456360 0.538630 1.695023
P6    P     P_3+3 0.628161 0.593461 0.246366 0.540743
C10   C     C_3   0.792194 0.732051 0.195847 0.619765
H19   H     H_    0.698894 0.725208 0.068981 0.295014
O20   O     O_3   0.582150 0.607760 0.542240 -0.363758
C11   C     C_3   0.409214 0.233347 0.266259 0.597248
H20   H     H_    0.296775 0.237539 0.295852 0.028158
C12   C     C_3   0.375242 0.144831 0.207964 -0.200107
H21   H     H_    0.344440 0.090398 0.242666 0.150168
H22   H     H_    0.267244 0.143058 0.168106 0.151032
P7    P     P_3+3 0.512936 0.277921 0.432716 0.534312
O21   O     O_2   0.333990 0.280210 0.458400 -0.338619
O22   O     O_3   0.535150 0.236907 0.326153 -0.617688
C13   C     C_3   0.143408 0.229978 0.764415 0.576698
H23   H     H_    0.263325 0.235679 0.744215 0.096267
C14   C     C_3   0.125121 0.177737 0.838985 0.195056
H24   H     H_    0.997430 0.160329 0.846077 0.157491
P8    P     P_3+3 0.567448 0.403254 0.753829 0.573492
C15   C     C_3   0.596547 0.239477 0.769399 0.394179
H25   H     H_    0.711589 0.264993 0.746356 0.075654
O23   O     O_2   0.447858 0.460667 0.788291 -0.258533
O24   O     O_3   0.511661 0.307374 0.797676 -0.553167
C16   C     C_3   0.627113 0.191120 0.843504 0.306686
H26   H     H_    0.510598 0.165594 0.864927 0.153363
C17   C     C_R   0.328751 0.493798 0.258709 0.014782
C18   C     C_R   0.165874 0.474794 0.237456 0.106209
C19   C     C_R   0.106442 0.486413 0.158320 -0.383545
C20   C     C_R   0.211002 0.514756 0.098665 0.111500
C21   C     C_R   0.374752 0.537105 0.123137 0.196418
C22   C     C_R   0.431242 0.532174 0.204878 0.082358
C23   C     C_R   0.077506 0.535760 0.849530 -0.202903
C24   C     C_R   0.025218 0.529698 0.765020 0.254551
C25   C     C_R   0.971564 0.503362 0.907673 0.228775
N1    N     N_2   0.161440 0.519377 0.013863 0.012025
N2    N     N_2   0.016229 0.500533 0.993430 -0.027591
C26   C     C_R   0.868325 0.495047 0.739648 -0.321051
H27   H     H_    0.199281 0.563593 0.868843 0.210112
C27   C     C_R   0.764441 0.462064 0.794594 0.213195
C28   C     C_R   0.814077 0.468319 0.878380 -0.072670
H28   H     H_    0.981052 0.470292 0.142309 0.216821
H29   H     H_    0.731476 0.441788 0.920243 0.208483
H30   H     H_    0.827504 0.491097 0.675818 0.132218
C29   C     C_R   0.752370 0.229817 0.532318 -0.203404
C30   C     C_R   0.847581 0.172671 0.556523 0.245309
C31   C     C_R   0.782845 0.083606 0.554855 -0.232698
C32   C     C_R   0.629502 0.048214 0.518009 0.082006
C33   C     C_R   0.551265 0.106294 0.475990 0.076715
C34   C     C_R   0.606060 0.199099 0.489155 0.213566
C35   C     C_R   0.396941 0.918404 0.487117 -0.118930
C36   C     C_R   0.340333 0.828675 0.464406 0.210963
C37   C     C_R   0.585141 0.794429 0.522479 0.172360
C38   C     C_R   0.650128 0.885486 0.535463 -0.291088
C39   C     C_R   0.558983 0.949986 0.514558 0.125175
C40   C     C_R   0.436392 0.769685 0.480822 -0.221727
H31   H     H_    0.313434 0.962177 0.481397 0.179972
H32   H     H_    0.854443 0.043267 0.582368 0.199283
H33   H     H_    0.769729 0.904271 0.562027 0.188372
N3    N     N_R   0.178714 0.860098 0.690774 0.292082
O25   O     O_R   0.048063 0.862525 0.648967 -0.347287
O26   O     O_R   0.313168 0.895466 0.666286 -0.358602
N4    N     N_2   0.011680 0.180488 0.226987 -0.137529
H34   H     H_    0.993815 0.140540 0.170572 0.208804
C41   C     C_3   0.948172 0.138833 0.294883 -0.763583
H35   H     H_    0.023698 0.165229 0.352255 0.233368
H36   H     H_    0.946763 0.066971 0.281843 0.261659
H37   H     H_    0.826257 0.151198 0.304267 0.257104
N5    N     N_R   0.618342 0.713016 0.836306 0.282864
O27   O     O_R   0.468976 0.680525 0.836564 -0.352798
O28   O     O_R   0.723318 0.675379 0.870286 -0.393424
N6    N     N_2   0.819212 0.825594 0.226023 -0.095918
H38   H     H_    0.790335 0.865724 0.185103 0.201141
C42   C     C_3   0.771246 0.849800 0.308439 -0.703109
H39   H     H_    0.829723 0.917659 0.333396 0.241268
H40   H     H_    0.803033 0.804124 0.349551 0.277543
H41   H     H_    0.641130 0.845451 0.307203 0.187533
N7    N     N_R   0.450711 0.303015 0.215237 0.233011
O29   O     O_R   0.362238 0.306951 0.150134 -0.382900
O30   O     O_R   0.579031 0.360661 0.233313 -0.348196
N8    N     N_R   0.502962 0.130977 0.153795 0.274758
O31   O     O_R   0.498051 0.155141 0.081243 -0.233996
O32   O     O_R   0.597676 0.077064 0.168190 -0.423442
N9    N     N_2   0.354430 0.791634 0.128935 -0.131886
H42   H     H_    0.399090 0.735145 0.134168 0.185933
C43   C     C_3   0.473886 0.868312 0.127692 -0.646328
H43   H     H_    0.568278 0.850407 0.087708 0.232058
H44   H     H_    0.526083 0.894669 0.190669 0.214578
H45   H     H_    0.423130 0.919952 0.101112 0.306199
N10   N     N_R   0.104831 0.317225 0.787460 0.229250
O33   O     O_R   0.978075 0.337736 0.755604 -0.455802
O34   O     O_R   0.192651 0.373624 0.843212 -0.331162
N11   N     N_R   0.194793 0.228507 0.917829 0.273255
O35   O     O_R   0.112148 0.230198 0.982641 -0.296958
O36   O     O_R   0.341713 0.266586 0.925979 -0.275149
N12   N     N_R   0.185140 0.094750 0.822466 0.235051
O37   O     O_R   0.259506 0.066277 0.881047 -0.321375
O38   O     O_R   0.130900 0.039747 0.756665 -0.282413
N13   N     N_R   0.502370 0.179314 0.701790 0.207356
O39   O     O_R   0.447336 0.097962 0.708165 -0.321493
O40   O     O_R   0.459592 0.209822 0.636629 -0.381715
N14   N     N_R   0.717287 0.252110 0.911309 0.233471
O41   O     O_R   0.654180 0.270357 0.980977 -0.266750
O42   O     O_R   0.861516 0.288579 0.902924 -0.402080
N15   N     N_R   0.706844 0.115414 0.822415 0.226109
O43   O     O_R   0.756315 0.095810 0.749302 -0.380560
O44   O     O_R   0.722072 0.064003 0.877023 -0.331022
N16   N     N_R   0.485497 0.559389 0.063062 0.262067
O45   O     O_R   0.455751 0.610805 0.010678 -0.374444
O46   O     O_R   0.601865 0.516022 0.051324 -0.343402
N17   N     N_R   0.390255 0.459424 0.327946 0.265065
O47   O     O_R   0.469266 0.508606 0.390019 -0.331199
O48   O     O_R   0.332014 0.381578 0.340242 -0.386831
N18   N     N_2   0.439352 0.069299 0.409439 -0.114767
H46   H     H_    0.360495 0.107727 0.392561 0.194416
C44   C     C_3   0.508448 0.022910 0.341354 -0.950989
H47   H     H_    0.414556 0.985025 0.296905 0.291134
H48   H     H_    0.578596 0.975741 0.361709 0.237049
H49   H     H_    0.588304 0.070209 0.312057 0.298531
N19   N     N_2   0.372818 0.682053 0.458808 -0.152880
H50   H     H_    0.446865 0.645740 0.429929 0.223185
C45   C     C_3   0.278508 0.647776 0.520280 -0.444533
H51   H     H_    0.217620 0.583163 0.492020 0.272029
H52   H     H_    0.188473 0.688978 0.539474 0.235083
H53   H     H_    0.350129 0.645705 0.576431 0.227571
N20   N     N_2   0.815511 0.319268 0.544838 -0.134694
H54   H     H_    0.747056 0.362166 0.571003 0.195243
C46   C     C_3   0.908578 0.346021 0.479616 -0.528044
H55   H     H_    0.971888 0.411743 0.503586 0.275052
H56   H     H_    0.835152 0.345115 0.423188 0.247389
H57   H     H_    0.995673 0.302077 0.462962 0.221917
N21   N     N_R   0.157318 0.882285 0.163520 0.261120
O49   O     O_R   0.143221 0.942675 0.224719 -0.411509
O50   O     O_R   0.117010 0.893945 0.089154 -0.376322

loop_
_geom_bond_atom_site_label_1
_geom_bond_atom_site_label_2
_geom_bond_distance
_ccdc_geom_bond_type
C35   H31   1.077588 S    
C13   C14   1.563356 S    
P7    O22   1.804749 S    
C11   N7    1.471967 S    
C35   C36   1.398554 A    
O16   P7    1.820873 S    
C5    H10   1.112452 S    
O2    Ba2   2.825355 S    
Ba1   O13   2.824716 S    
C29   C30   1.390211 A    
C4    C5    1.525728 S    
O6    C10   1.408664 S    
P4    O12   1.572677 D    
N7    O29   1.301135 A    
C21   C22   1.425591 A    
C25   C28   1.411793 A    
C14   N12   1.464903 S    
C17   C18   1.400864 A    
C8    H15   1.110987 S    
C32   C39   1.547251 S    
P3    O11   1.745921 S    
C3    N9    1.455207 S    
N18   H46   1.028910 S    
C2    H5    1.105215 S    
C4    H8    1.110208 S    
O11   C2    1.409498 S    
C8    C9    1.527473 S    
N13   O40   1.294534 A    
C38   H33   1.077667 S    
Ba2   O21   2.874568 S    
N15   O44   1.301155 A    
N19   H50   1.007339 S    
C11   C12   1.544580 S    
C41   H35   1.110616 S    
Ba1   O20   2.972309 S    
C7    H14   1.110534 S    
H1    C10   1.112099 S    
C14   N11   1.469039 S    
C12   H22   1.107834 S    
P1    O1    1.572484 D    
N3    O25   1.300348 A    
C20   N1    1.454823 S    
N21   O49   1.301004 A    
C31   H32   1.078089 S    
O12   Ba2   2.782759 S    
P4    Ba2   3.385929 S    
P5    O18   1.549355 D    
C2    H4    1.115348 S    
C5    N3    1.457788 S    
C14   H24   1.100484 S    
C41   H36   1.110248 S    
P2    O10   1.751278 S    
P8    O24   1.757112 S    
C6    C7    1.524382 S    
C1    C10   1.535247 S    
C1    H2    1.102844 S    
C45   H53   1.095118 S    
P2    Ba1   3.431916 S    
N20   C46   1.429788 S    
C13   H23   1.087514 S    
C10   N6    1.452485 S    
O13   Ba2   2.990374 S    
C29   N20   1.397064 S    
C44   H48   1.101770 S    
P4    C24   1.863574 S    
C40   N19   1.379787 S    
P8    C27   1.839867 S    
O7    Ba1   2.874424 S    
C43   H45   1.108362 S    
C12   N8    1.462339 S    
C38   C39   1.440716 A    
N17   O48   1.283870 A    
C45   H52   1.110548 S    
C31   C32   1.418231 A    
N12   O38   1.300327 A    
N5    O28   1.301160 A    
C35   C39   1.430611 A    
C23   H27   1.081630 S    
Ba1   Ba2   4.739721 S    
C26   H30   1.082032 S    
O17   Ba2   2.867261 S    
N12   O37   1.301731 A    
C25   N2    1.453275 S    
P1    C18   1.864478 S    
P1    O5    1.755480 S    
C46   H55   1.091749 S    
O4    P6    1.549420 D    
C2    C3    1.545576 S    
N10   O33   1.294333 A    
P2    C37   1.916699 S    
C43   H44   1.105955 S    
Ba2   O20   2.897489 S    
C18   C19   1.423273 A    
C20   C21   1.419847 A    
N9    C43   1.447744 S    
C11   H20   1.104519 S    
C19   C20   1.422303 A    
C12   H21   1.091989 S    
P1    O2    1.552507 S    
N16   O45   1.301246 A    
O2    Ba1   2.989496 S    
C16   H26   1.104847 S    
P7    C34   1.895884 S    
C28   H29   1.081660 S    
P4    O13   1.552508 S    
C11   O22   1.421381 S    
C23   C24   1.426868 A    
C16   N14   1.462857 S    
C41   H37   1.107109 S    
C30   C31   1.407538 A    
P8    O23   1.542033 D    
C7    H12   1.104167 S    
C1    H19   1.107718 S    
O10   C8    1.404410 S    
C4    H7    1.109479 S    
P5    O17   1.799360 S    
C1    H3    1.108647 S    
C19   H28   1.078042 S    
C42   H41   1.107043 S    
P2    O20   1.610117 S    
N20   H54   1.022013 S    
C23   C25   1.431488 A    
Ba1   O16   2.898156 S    
C26   C27   1.385407 A    
P3    O8    1.796422 S    
C44   H47   1.099866 S    
N6    C42   1.446743 S    
N8    O31   1.300356 A    
O5    C6    1.411789 S    
N15   O43   1.301271 A    
O19   C13   1.404971 S    
C45   H51   1.088308 S    
N1    N2    1.254255 D    
O8    Ba1   2.866638 S    
C42   H40   1.105885 S    
N4    H34   1.032190 S    
N14   O42   1.297229 A    
N11   O36   1.297342 A    
C9    H17   1.112150 S    
P6    C22   1.854314 S    
C21   N16   1.435445 S    
P5    C30   1.864543 S    
N21   O50   1.301361 A    
O3    P6    1.763694 S    
C29   C34   1.395913 A    
C4    O15   1.403833 S    
C6    H11   1.103037 S    
C24   C26   1.391464 A    
P2    O7    1.562403 D    
C43   H43   1.108491 S    
N8    O32   1.299249 A    
N7    O30   1.299691 A    
C15   O24   1.417096 S    
C46   H56   1.096963 S    
N5    O27   1.300518 A    
N9    H42   1.029834 S    
N10   O34   1.298123 A    
C33   N18   1.417836 S    
C33   C34   1.431994 A    
O1    Ba1   2.782218 S    
N18   C44   1.445199 S    
P3    C36   1.886505 S    
C15   H25   1.105079 S    
C8    H16   1.110271 S    
N17   O47   1.282449 A    
N13   O39   1.301740 A    
C15   C16   1.554790 S    
N16   O46   1.300231 A    
C27   C28   1.409263 A    
C15   N13   1.468885 S    
N19   C45   1.426980 S    
C17   C22   1.397677 A    
O16   Ba2   2.971350 S    
O14   Ba2   2.851910 S    
C9    H18   1.111502 S    
P1    Ba1   3.385330 S    
C7    H13   1.101448 S    
C17   N17   1.440736 S    
C36   C40   1.378166 A    
C37   C40   1.394407 A    
N3    O26   1.300360 A    
O14   P8    1.770167 S    
C46   H57   1.110685 S    
P7    O21   1.613201 D    
C16   N15   1.466515 S    
P5    O19   1.766037 S    
C9    N5    1.458992 S    
C13   N10   1.455721 S    
N14   O41   1.299810 A    
C44   H49   1.099366 S    
C3    N21   1.473627 S    
C32   C33   1.444521 A    
P3    O9    1.545223 D    
C37   C38   1.423476 A    
C3    H6    1.106072 S    
O6    P6    1.754370 S    
N4    C41   1.449124 S    
N6    H38   1.030236 S    
P4    O15   1.752673 S    
C6    N4    1.457512 S    
O3    Ba1   2.852689 S    
N11   O35   1.301316 A    
C42   H39   1.109794 S    
C5    H9    1.111032 S    
