data_mof_unit_12933.cif
_audit_creation_date              2013-03-05T16:15:04-0500
_audit_creation_method            fapswitch 2.2
_symmetry_space_group_name_H-M    P1
_symmetry_Int_Tables_number       1
_space_group_crystal_system       triclinic
_cell_length_a                    23.550386
_cell_length_b                    10.693664
_cell_length_c                    9.536628
_cell_angle_alpha                 89.779422
_cell_angle_beta                  89.516449
_cell_angle_gamma                 88.551495
_cell_volume                      2400.83472537

loop_
_atom_site_label
_atom_site_type_symbol
_atom_site_description
_atom_site_fract_x
_atom_site_fract_y
_atom_site_fract_z
_atom_type_partial_charge
O1    O     O_R   0.500030 0.316850 0.620870 -0.551049
O2    O     O_R   0.499970 0.683150 0.379130 -0.546145
O3    O     O_R   0.500000 0.316860 0.379090 -0.532306
O4    O     O_R   0.500000 0.683140 0.620910 -0.533858
C1    C     C_R   0.499898 0.260095 0.500147 0.859056
C2    C     C_R   0.499955 0.739806 0.500142 0.830266
O5    O     O_R   0.417890 0.499960 0.620920 -0.566668
O6    O     O_R   0.582110 0.500040 0.379080 -0.537888
O7    O     O_R   0.417870 0.499970 0.379140 -0.545623
O8    O     O_R   0.582130 0.500030 0.620860 -0.580647
C3    C     C_R   0.390997 0.500693 0.500579 0.831707
C4    C     C_R   0.608645 0.500113 0.499991 0.864286
Cu1   Cu    Cu3+1 0.500010 0.499990 0.643150 1.072103
Cu2   Cu    Cu3+1 0.499990 0.500010 0.356850 1.103990
C5    C     C_R   0.878626 0.625161 0.499007 0.634097
C6    C     C_R   0.119414 0.406254 0.561649 0.626625
N1    N     N_R   0.850745 0.519408 0.536501 -0.442143
N2    N     N_R   0.147245 0.514120 0.533462 -0.441927
C7    C     C_R   0.879741 0.412639 0.576711 0.584041
C8    C     C_R   0.118424 0.624418 0.507128 0.597999
C9    C     C_R   0.939856 0.407082 0.574352 -0.063757
C10   C     C_R   0.058246 0.629411 0.506679 -0.063650
C11   C     C_R   0.968969 0.517549 0.539260 -0.010464
C12   C     C_R   0.029101 0.518043 0.537988 -0.009495
C13   C     C_R   0.938041 0.627507 0.504055 -0.027559
C14   C     C_R   0.059990 0.406561 0.567071 -0.025857
C15   C     C_R   0.972006 0.296015 0.604415 -0.051550
C16   C     C_R   0.026024 0.740217 0.475780 -0.048963
C17   C     C_R   0.031203 0.297062 0.599621 -0.165023
C18   C     C_R   0.966816 0.737439 0.473231 -0.160974
O9    O     O_2   0.848837 0.727626 0.456168 -0.482947
O10   O     O_2   0.149352 0.298755 0.583792 -0.489064
O11   O     O_2   0.850098 0.312901 0.619242 -0.485233
O12   O     O_2   0.148282 0.728180 0.481833 -0.487331
H1    H     H_    0.054917 0.211000 0.621625 0.199804
H2    H     H_    0.943066 0.822653 0.447686 0.198329
C19   C     C_R   0.234977 0.525718 0.396667 -0.170721
C20   C     C_R   0.765526 0.433684 0.433667 -0.186559
H3    H     H_    0.209221 0.541124 0.304256 0.209067
H4    H     H_    0.793357 0.372370 0.372623 0.206178
C21   C     C_R   0.294161 0.523570 0.384100 0.311665
C22   C     C_R   0.706616 0.421748 0.425518 0.320930
C23   C     C_R   0.327898 0.502540 0.504595 -0.222486
C24   C     C_R   0.671014 0.504595 0.503505 -0.188735
C25   C     C_R   0.300490 0.482108 0.634186 -0.245654
C26   C     C_R   0.695281 0.590511 0.594968 -0.301000
H5    H     H_    0.325353 0.461838 0.726602 0.246603
H6    H     H_    0.667805 0.651264 0.657835 0.212701
C27   C     C_R   0.241225 0.488936 0.647623 0.383577
C28   C     C_R   0.754269 0.595625 0.611029 0.399595
C29   C     C_R   0.208270 0.510856 0.526895 0.165239
C30   C     C_R   0.789756 0.517545 0.526999 0.171056
C31   C     C_3   0.549709 0.038322 0.547250 -0.180730
C32   C     C_3   0.449834 0.961133 0.455264 -0.177440
C33   C     C_3   0.542417 0.955200 0.415985 -0.223731
C34   C     C_3   0.457230 0.044509 0.586115 -0.243713
H7    H     H_    0.577195 0.919069 0.346896 0.231350
H8    H     H_    0.422520 0.080825 0.655305 0.227752
C35   C     C_3   0.499956 0.876120 0.500992 -0.190070
C36   C     C_3   0.499657 0.123593 0.500809 -0.182529
C37   C     C_3   0.507838 0.958911 0.629711 0.370174
C38   C     C_3   0.491582 0.040530 0.372191 0.384615
C39   C     C_3   0.501529 0.611252 0.047770 0.329627
C40   C     C_3   0.498202 0.389174 0.951999 0.308710
C41   C     C_3   0.456888 0.560987 0.951241 0.320856
C42   C     C_3   0.542891 0.439657 0.047806 0.293729
N3    N     N_3   0.500040 0.499970 0.858290 -0.292824
N4    N     N_3   0.499960 0.500030 0.141710 -0.292434
C43   C     C_3   0.545610 0.551837 0.947093 -0.207918
C44   C     C_3   0.454093 0.448835 0.052595 -0.185268
H9    H     H_    0.583734 0.594837 0.899894 0.224840
H10   H     H_    0.416165 0.404987 0.099566 0.244084
C45   C     C_1   0.946590 0.177433 0.636477 0.374047
N5    N     N_1   0.926535 0.082195 0.662008 -0.182222
C46   C     C_1   0.051369 0.859110 0.444984 0.377366
N6    N     N_1   0.071365 0.954600 0.420401 -0.199085
N7    N     N_R   0.408722 0.632098 0.894414 0.178329
O13   O     O_R   0.357215 0.599981 0.924367 -0.263738
O14   O     O_R   0.416796 0.731383 0.818744 -0.279148
N8    N     N_R   0.591844 0.369835 0.100380 0.185506
O15   O     O_R   0.642554 0.408280 0.071359 -0.288548
O16   O     O_R   0.585451 0.257901 0.150244 -0.208635
N9    N     N_R   0.503103 0.737909 0.101531 0.189373
O17   O     O_R   0.456109 0.798602 0.132054 -0.254077
O18   O     O_R   0.551465 0.792824 0.112666 -0.285468
N10   N     N_R   0.496453 0.262466 0.898305 0.189634
O19   O     O_R   0.543295 0.202288 0.865276 -0.279363
O20   O     O_R   0.448174 0.206715 0.890536 -0.285905
N11   N     N_R   0.318538 0.543074 0.248176 0.142344
O21   O     O_R   0.348236 0.641994 0.224444 -0.275784
O22   O     O_R   0.300306 0.479316 0.142427 -0.261414
N12   N     N_R   0.684497 0.318195 0.349381 0.176845
O23   O     O_R   0.639478 0.262865 0.395270 -0.359460
O24   O     O_R   0.715065 0.263402 0.252037 -0.244204
N13   N     N_R   0.215346 0.474456 0.783802 0.167011
O25   O     O_R   0.168716 0.535822 0.816525 -0.314024
O26   O     O_R   0.240724 0.407378 0.879844 -0.251911
N14   N     N_R   0.777108 0.677012 0.715211 0.163411
O27   O     O_R   0.823212 0.645203 0.782142 -0.307511
O28   O     O_R   0.748617 0.776852 0.754632 -0.273645
C47   C     C_1   0.604134 0.076810 0.604730 0.490787
N15   N     N_1   0.646996 0.106544 0.650952 -0.126157
C48   C     C_1   0.394651 0.919810 0.405452 0.430354
N16   N     N_1   0.350962 0.887838 0.366611 -0.138333
N17   N     N_R   0.518083 0.913677 0.771578 0.184188
O29   O     O_R   0.482592 0.942974 0.871863 -0.166582
O30   O     O_R   0.564017 0.848611 0.799559 -0.326886
N18   N     N_R   0.480861 0.085316 0.230401 0.181802
O31   O     O_R   0.515419 0.053759 0.129006 -0.162283
O32   O     O_R   0.434866 0.150470 0.203284 -0.319333

loop_
_geom_bond_atom_site_label_1
_geom_bond_atom_site_label_2
_geom_bond_distance
_ccdc_geom_bond_type
C42   N4    1.482277 S    
C39   C41   1.513387 S    
C47   N15   1.157222 T    
C33   C35   1.547934 S    
C15   C17   1.394814 A    
C45   N5    1.157613 T    
C31   C33   1.551311 S    
C21   N11   1.429957 S    
N13   O25   1.301276 A    
C46   N6    1.157605 T    
N7    O13   1.298217 A    
O5    C3    1.315378 A    
N17   O30   1.300355 A    
O1    C1    1.303595 A    
C7    C9    1.415455 A    
C12   C14   1.408673 A    
C20   C22   1.399279 A    
C19   C29   1.397714 A    
N10   O20   1.299877 A    
C5    C13   1.401354 A    
C42   C43   1.536118 S    
C20   C30   1.400946 A    
C41   C44   1.539783 S    
C33   C38   1.546149 S    
N18   O31   1.298684 A    
C36   C38   1.533138 S    
C35   C37   1.531558 S    
O4    Cu1   1.969176 S    
C43   H9    1.110243 S    
C31   C37   1.528398 S    
C39   C43   1.535480 S    
C31   C47   1.467302 S    
C41   N3    1.483240 S    
C28   C30   1.412918 A    
C11   C12   1.416239 A    
C3    C23   1.485820 S    
C40   C44   1.536510 S    
C34   H8    1.109620 S    
N11   O22   1.301414 A    
C37   N17   1.455058 S    
C22   N12   1.437536 S    
C8    O12   1.348453 S    
N7    O14   1.298525 A    
C9    C15   1.421865 A    
C10   C16   1.422096 A    
Cu1   Cu2   2.730341 S    
C21   C23   1.416576 A    
O2    C2    1.305466 A    
C22   C24   1.413505 A    
N1    C30   1.440571 S    
C40   N10   1.452027 S    
C31   C36   1.538980 S    
C24   C26   1.404521 A    
N2    C29   1.437553 S    
C26   H6    1.084176 S    
C32   C35   1.536678 S    
C25   H5    1.080458 S    
C6    C14   1.399889 A    
C32   C34   1.550015 S    
C28   N14   1.439880 S    
C41   N7    1.456801 S    
C40   N3    1.482601 S    
C32   C48   1.466601 S    
N8    O16   1.298110 A    
C7    O11   1.348678 S    
N10   O19   1.300025 A    
C32   C38   1.529397 S    
C27   C29   1.409480 A    
C34   C36   1.548889 S    
C39   N9    1.451527 S    
N3    C43   1.491853 S    
C40   C42   1.510829 S    
O7    Cu2   1.943832 S    
O7    C3    1.315019 A    
N9    O17   1.300188 A    
C25   C27   1.400617 A    
O6    C4    1.316174 A    
N12   O24   1.301892 A    
C6    N2    1.365732 A    
C27   N13   1.439389 S    
C23   C25   1.408289 A    
O3    Cu2   1.969177 S    
O8    C4    1.306322 A    
O4    C2    1.299335 A    
N9    O18   1.299861 A    
C8    C10   1.416913 A    
N14   O28   1.301559 A    
C9    C11   1.418305 A    
C10   C12   1.419054 A    
O1    Cu1   1.970732 S    
Cu1   N3    2.051714 S    
C13   C18   1.400665 A    
C5    N1    1.366879 A    
C17   H1    1.085087 S    
C39   N4    1.487287 S    
O6    Cu2   1.947326 S    
C1    C36   1.459851 S    
C2    C35   1.457755 S    
N8    O15   1.300064 A    
O3    C1    1.302276 A    
O8    Cu1   1.943829 S    
N13   O26   1.301207 A    
C5    O9    1.349887 S    
C6    O10   1.350128 S    
C42   N8    1.449603 S    
N17   O29   1.298840 A    
C26   C28   1.401355 A    
C18   H2    1.085066 S    
C33   H7    1.109542 S    
C19   H3    1.083781 S    
C20   H4    1.083130 S    
C16   C18   1.395855 A    
N12   O23   1.299071 A    
N1    C7    1.370629 A    
N18   O32   1.300309 A    
N2    C8    1.369344 A    
C11   C13   1.408411 A    
C19   C21   1.397547 A    
O2    Cu2   1.970732 S    
O5    Cu1   1.947331 S    
C38   N18   1.454729 S    
C14   C17   1.400312 A    
N4    C44   1.495913 S    
N14   O27   1.301277 A    
C48   N16   1.156675 T    
Cu2   N4    2.051714 S    
C34   C37   1.543202 S    
C4    C24   1.471468 S    
C44   H10   1.109575 S    
N11   O21   1.300864 A    
C15   C45   1.446397 S    
C16   C46   1.446211 S    
