data_mof_unit_15941.cif
_audit_creation_date              2012-12-10T17:57:22-0500
_audit_creation_method            fapswitch 2.2
_symmetry_space_group_name_H-M    P1
_symmetry_Int_Tables_number       1
_space_group_crystal_system       triclinic
_cell_length_a                    9.525651
_cell_length_b                    10.868488
_cell_length_c                    13.442792
_cell_angle_alpha                 90.227866
_cell_angle_beta                  71.824641
_cell_angle_gamma                 88.888936
_cell_volume                      1321.9639692

loop_
_atom_site_label
_atom_site_type_symbol
_atom_type_description
_atom_site_fract_x
_atom_site_fract_y
_atom_site_fract_z
_atom_type_partial_charge
Br1   Br    Br    0.066397 0.564306 0.822749 -0.601663
C1    C     C_R   0.498833 0.737563 0.499877 0.808454
C2    C     C_R   0.370369 0.487319 0.817742 -0.174677
C3    C     C_R   0.633229 0.929782 0.469364 -0.215238
C4    C     C_R   0.420112 0.494411 0.701085 0.820513
C5    C     C_R   0.638765 0.057079 0.470967 -0.003065
C6    C     C_R   0.505006 0.127262 0.500639 -0.073234
C7    C     C_R   0.369730 0.066442 0.530611 -0.203554
C8    C     C_R   0.365992 0.939022 0.528785 -0.168578
C9    C     C_R   0.498308 0.870673 0.498416 -0.043058
C10   C     C_R   0.892814 0.569147 0.571192 -0.008100
C11   C     C_R   0.041955 0.570527 0.569964 0.014560
C12   C     C_R   0.435948 0.478679 0.980910 0.089594
C13   C     C_R   0.108419 0.435912 0.425548 -0.025418
C14   C     C_R   0.959596 0.435833 0.425580 -0.008065
C15   C     C_R   0.501694 0.261799 0.500064 0.772294
C16   C     C_R   0.579684 0.497314 0.299679 0.798034
C17   C     C_R   0.792430 0.389978 0.026442 -0.155028
C18   C     C_R   0.626491 0.479773 0.185829 -0.049862
C19   C     C_R   0.224169 0.524064 0.877819 0.263154
C20   C     C_R   0.185329 0.533605 0.986014 -0.170174
C21   C     C_R   0.289237 0.514337 0.036882 -0.254854
C22   C     C_R   0.787673 0.107918 0.446904 0.133668
C23   C     C_R   0.472131 0.452477 0.872121 0.046071
C24   C     C_R   0.885825 0.098854 0.344480 -0.173448
C25   C     C_R   0.036453 0.118269 0.325447 -0.165705
C26   C     C_R   0.089685 0.145857 0.408531 -0.138879
C27   C     C_R   0.991610 0.158655 0.510259 -0.143407
C28   C     C_R   0.841208 0.139041 0.529574 -0.095914
C29   C     C_R   0.546336 0.464154 0.030933 0.083296
C30   C     C_R   0.684571 0.408155 0.976240 0.177028
C31   C     C_R   0.711766 0.368168 0.873188 -0.207504
C32   C     C_R   0.607076 0.388886 0.822177 -0.191609
C33   C     C_R   0.523153 0.504564 0.134101 -0.247302
C34   C     C_R   0.762935 0.424446 0.131240 -0.210844
Cu1   Cu    Cu3+1 0.359340 0.499980 0.500000 0.960063
Cu2   Cu    Cu3+1 0.640660 0.500020 0.500000 0.944046
H1    H     H_    0.844256 0.404061 0.170330 0.144264
H2    H     H_    0.424400 0.555452 0.176841 0.148866
H3    H     H_    0.249173 0.523250 0.120984 0.140031
H4    H     H_    0.073256 0.559530 0.031683 0.177378
H5    H     H_    0.631737 0.349326 0.744684 0.169565
H6    H     H_    0.736051 0.876464 0.446605 0.162070
H7    H     H_    0.846532 0.071652 0.280387 0.132392
H8    H     H_    0.112269 0.109588 0.246674 0.139888
H9    H     H_    0.206578 0.159669 0.393544 0.143468
H10   H     H_    0.031450 0.183204 0.574513 0.132589
H11   H     H_    0.767332 0.143524 0.609296 0.115524
H12   H     H_    0.266479 0.117578 0.557563 0.151590
H13   H     H_    0.260210 0.894244 0.553068 0.155827
H14   H     H_    0.810775 0.624989 0.628144 0.144435
H15   H     H_    0.072970 0.630399 0.623317 0.169221
H16   H     H_    0.191799 0.384869 0.365623 0.125125
H17   H     H_    0.930684 0.383907 0.366270 0.132646
H18   H     H_    0.814575 0.320579 0.831637 0.157298
H19   H     H_    0.897942 0.346138 0.985463 0.154034
N1    N     N_R   0.147940 0.499970 0.499970 -0.166124
N2    N     N_R   0.852060 0.500060 0.499990 -0.171407
O1    O     O_R   0.381250 0.680340 0.500010 -0.582715
O2    O     O_R   0.618820 0.680370 0.500010 -0.587258
O3    O     O_R   0.323240 0.499950 0.650980 -0.530527
O4    O     O_R   0.560810 0.499980 0.650980 -0.592292
O5    O     O_R   0.381180 0.319630 0.499990 -0.587517
O6    O     O_R   0.618750 0.319660 0.499990 -0.582557
O7    O     O_R   0.439190 0.500020 0.349020 -0.590869
O8    O     O_R   0.676760 0.500050 0.349020 -0.586541

loop_
_geom_bond_atom_site_label_1
_geom_bond_atom_site_label_2
_ccdc_geom_bond_type
C4    O4    A    
C10   C11   A    
C27   H10   S    
C5    C6    A    
C15   O5    A    
Cu1   O5    S    
C8    C9    A    
C31   H18   S    
C16   O7    A    
C30   C31   A    
C13   C14   A    
C17   H19   S    
Cu1   O1    S    
C21   H3    S    
C31   C32   A    
C13   H16   S    
Cu2   O4    S    
C16   O8    A    
C4    O3    A    
C6    C7    A    
C18   C34   A    
C20   C21   A    
Cu2   O8    S    
Cu1   O7    S    
C25   C26   A    
Cu2   N2    S    
C20   H4    S    
C11   N1    A    
C22   C28   A    
C26   H9    S    
C34   H1    S    
C27   C28   A    
C11   H15   S    
C3    H6    S    
C12   C21   A    
C22   C24   A    
C29   C30   A    
C12   C23   A    
C14   N2    A    
C1    O2    A    
Cu2   O2    S    
C10   H14   S    
C29   C33   A    
C28   H11   S    
C3    C9    A    
C33   H2    S    
C10   N2    A    
C14   H17   S    
C12   C29   A    
C2    C19   A    
Cu2   O6    S    
C19   C20   A    
C24   H7    S    
C3    C5    A    
Cu1   N1    S    
C17   C34   A    
C26   C27   A    
C13   N1    A    
C32   H5    S    
C1    O1    A    
Cu1   Cu2   S    
Br1   C19   S    
C17   C30   A    
C15   O6    A    
C25   H8    S    
C16   C18   S    
C24   C25   A    
C5    C22   S    
C7    H12   S    
C6    C15   S    
C8    H13   S    
Cu1   O3    S    
C23   C32   A    
C2    C23   A    
C7    C8    A    
C2    C4    S    
C18   C33   A    
C1    C9    S    
