data_mof_unit_15280.cif
_audit_creation_date              2012-12-10T17:42:12-0500
_audit_creation_method            fapswitch 2.2
_symmetry_space_group_name_H-M    P1
_symmetry_Int_Tables_number       1
_space_group_crystal_system       triclinic
_cell_length_a                    15.25558
_cell_length_b                    13.843128
_cell_length_c                    11.00989
_cell_angle_alpha                 88.457824
_cell_angle_beta                  86.143768
_cell_angle_gamma                 91.759047
_cell_volume                      2317.78654336

loop_
_atom_site_label
_atom_site_type_symbol
_atom_type_description
_atom_site_fract_x
_atom_site_fract_y
_atom_site_fract_z
_atom_type_partial_charge
C1    C     C_R   0.328026 0.499231 0.503396 0.891804
C2    C     C_3   0.600544 0.452998 0.916940 -0.203496
C3    C     C_R   0.824484 0.564605 0.413753 -0.023243
C4    C     C_R   0.768368 0.502835 0.491675 -0.136978
C5    C     C_R   0.806520 0.437524 0.570007 -0.195432
C6    C     C_R   0.897595 0.438505 0.576779 0.100803
C7    C     C_R   0.952466 0.488675 0.487129 0.062844
C8    C     C_R   0.914120 0.542632 0.396076 -0.015284
C9    C     C_R   0.933295 0.396879 0.677290 -0.178633
C10   C     C_R   0.022684 0.408635 0.693531 -0.045741
C11   C     C_R   0.081923 0.448463 0.596462 0.003268
C12   C     C_R   0.500056 0.500616 0.259336 0.814028
C13   C     C_R   0.044742 0.490592 0.493224 0.059347
C14   C     C_R   0.098213 0.542432 0.401527 -0.012383
C15   C     C_R   0.058932 0.578993 0.296237 -0.059274
C16   C     C_R   0.966906 0.579078 0.294027 -0.058197
C17   C     C_R   0.175465 0.450096 0.598697 -0.058769
C18   C     C_R   0.229504 0.499585 0.504980 -0.177412
C19   C     C_R   0.188728 0.556943 0.417891 -0.094740
C20   C     C_R   0.428702 0.790399 0.554120 0.119205
C21   C     C_R   0.434009 0.199010 0.560797 0.098655
C22   C     C_R   0.572388 0.800322 0.462501 0.136977
C23   C     C_R   0.565281 0.207796 0.433149 0.129894
C24   C     C_R   0.563105 0.899141 0.428523 -0.115621
C25   C     C_R   0.559773 0.105192 0.414606 -0.098563
C26   C     C_R   0.671403 0.501631 0.494735 0.881960
C27   C     C_R   0.489016 0.947211 0.474759 0.074866
C28   C     C_R   0.489145 0.050591 0.472458 0.070720
C29   C     C_R   0.418960 0.892361 0.534093 -0.077716
C30   C     C_R   0.421353 0.098737 0.535143 -0.087417
C31   C     C_R   0.626684 0.952001 0.352721 -0.094127
C32   C     C_R   0.622801 0.053882 0.340867 -0.079869
C33   C     C_R   0.343307 0.044181 0.573009 -0.037020
C34   C     C_R   0.342034 0.941841 0.572786 -0.063287
C35   C     C_R   0.503518 0.498762 0.739183 0.891795
C36   C     C_3   0.480032 0.605341 0.060017 -0.142096
C37   C     C_3   0.432212 0.420737 0.076119 -0.129791
C38   C     C_3   0.505459 0.602018 0.921344 -0.439352
C39   C     C_3   0.428070 0.437609 0.935507 -0.416169
C40   C     C_3   0.602716 0.472722 0.062716 -0.259240
C41   C     C_3   0.503843 0.499432 0.119518 -0.188370
C42   C     C_3   0.510439 0.496166 0.875706 -0.040315
Cu1   Cu    Cu3+1 0.499990 0.597420 0.500010 1.084278
Cu2   Cu    Cu3+1 0.499990 0.402580 0.500010 1.063757
H1    H     H_    0.458296 0.643446 0.869965 0.202258
H2    H     H_    0.369538 0.479811 0.916759 0.216991
H3    H     H_    0.568588 0.640933 0.896497 0.276105
H4    H     H_    0.415384 0.369349 0.889302 0.250560
H5    H     H_    0.764799 0.392924 0.634184 0.169766
H6    H     H_    0.889757 0.363494 0.749708 0.197163
N1    N     N_R   0.499930 0.743810 0.499950 -0.238711
N2    N     N_R   0.499930 0.256190 0.499950 -0.228797
O1    O     O_R   0.370250 0.582280 0.500040 -0.535598
O2    O     O_R   0.370250 0.417720 0.500040 -0.547554
O3    O     O_R   0.499970 0.582270 0.317700 -0.516625
O4    O     O_R   0.499970 0.417730 0.317700 -0.533092
O5    O     O_R   0.629730 0.582260 0.499980 -0.548562
O6    O     O_R   0.629730 0.417740 0.499980 -0.607508
O7    O     O_R   0.500000 0.582270 0.682320 -0.580890
O8    O     O_R   0.500000 0.417730 0.682320 -0.538717
C43   C     C_2   0.519492 0.698334 0.112637 0.904317
O9    O     O_2   0.583337 0.741569 0.061718 -0.565122
O10   O     O_R   0.474486 0.742862 0.210146 -0.693047
H7    H     H_    0.501097 0.808577 0.227349 0.330590
C44   C     C_2   0.444071 0.313028 0.109013 0.936357
O11   O     O_2   0.465924 0.255402 0.031670 -0.554541
O12   O     O_R   0.421097 0.276649 0.227441 -0.714103
H8    H     H_    0.429220 0.204445 0.236705 0.336601
C45   C     C_1   0.045472 0.391205 0.817434 0.345284
N3    N     N_1   0.062365 0.377467 0.917262 -0.186377
C46   C     C_2   0.216639 0.409087 0.704499 0.894795
O13   O     O_2   0.262328 0.461212 0.763921 -0.602298
O14   O     O_R   0.199808 0.312120 0.739867 -0.729384
H9    H     H_    0.224763 0.294670 0.820380 0.343716
C47   C     C_2   0.234202 0.646440 0.365576 0.910205
O15   O     O_2   0.305202 0.643114 0.308524 -0.559373
O16   O     O_R   0.195074 0.735438 0.383301 -0.701846
H10   H     H_    0.232270 0.791562 0.344788 0.350988
C48   C     C_2   0.111338 0.603742 0.180811 0.891751
O17   O     O_2   0.132862 0.687928 0.154687 -0.500361
O18   O     O_R   0.127071 0.531606 0.096564 -0.724627
H11   H     H_    0.157281 0.557581 0.017014 0.359535
C49   C     C_2   0.925449 0.608540 0.180637 0.869805
O19   O     O_2   0.870672 0.554692 0.139218 -0.521580
O20   O     O_R   0.948906 0.697277 0.121912 -0.696090
H12   H     H_    0.916216 0.708577 0.045891 0.348514
C50   C     C_2   0.385672 0.750047 0.670270 0.847985
O21   O     O_2   0.329168 0.685683 0.672424 -0.556616
O22   O     O_R   0.403165 0.796126 0.777951 -0.757042
H13   H     H_    0.363339 0.771428 0.850268 0.342828
C51   C     C_2   0.395427 0.229444 0.679034 0.907496
O23   O     O_2   0.368974 0.310148 0.690230 -0.571392
O24   O     O_R   0.389638 0.164762 0.779424 -0.719330
H14   H     H_    0.360432 0.193343 0.855059 0.349291
C52   C     C_1   0.649768 0.783514 0.526991 0.356040
N4    N     N_1   0.710604 0.772089 0.582464 -0.248355
C53   C     C_1   0.650722 0.253164 0.405629 0.371619
N5    N     N_1   0.721004 0.285882 0.383807 -0.279391
C54   C     C_1   0.688844 0.901244 0.274101 0.294512
N6    N     N_1   0.737954 0.862391 0.208923 -0.194189
C55   C     C_1   0.677875 0.101992 0.243367 0.310607
N7    N     N_1   0.721901 0.138689 0.164569 -0.217467
C56   C     C_1   0.261605 0.092668 0.600548 0.277664
N8    N     N_1   0.195924 0.130391 0.621718 -0.184450
C57   C     C_1   0.259620 0.889000 0.604914 0.288949
N9    N     N_1   0.193733 0.847349 0.630545 -0.166755
C58   C     C_1   0.384990 0.625584 0.065983 0.336739
N10   N     N_1   0.311653 0.644067 0.064327 -0.204148
C59   C     C_1   0.343688 0.434520 0.136218 0.258379
N11   N     N_1   0.274837 0.442831 0.184776 -0.210134
C60   C     C_2   0.663812 0.557309 0.095709 0.932515
O25   O     O_2   0.675290 0.567207 0.202975 -0.571470
O26   O     O_R   0.708048 0.621682 0.010786 -0.683496
H15   H     H_    0.746083 0.671858 0.049787 0.377976
C61   C     C_2   0.647359 0.387539 0.123756 0.897786
O27   O     O_2   0.605692 0.320031 0.174222 -0.591998
O28   O     O_R   0.739520 0.385085 0.114510 -0.643307
H16   H     H_    0.763120 0.324814 0.152700 0.368830
C62   C     C_2   0.681678 0.499043 0.843568 0.822079
O29   O     O_2   0.755254 0.472776 0.864622 -0.506926
O30   O     O_R   0.674283 0.572794 0.756040 -0.771430
H17   H     H_    0.733514 0.599293 0.720654 0.354259
C63   C     C_2   0.609208 0.344276 0.885626 0.863977
O31   O     O_2   0.553975 0.300587 0.831588 -0.545059
O32   O     O_R   0.685488 0.295620 0.910665 -0.704295
H18   H     H_    0.684366 0.226068 0.884007 0.354062
C64   C     C_2   0.802347 0.665399 0.382133 0.868192
O33   O     O_2   0.732653 0.684343 0.341538 -0.548185
O34   O     O_R   0.864068 0.739984 0.399116 -0.723413
H19   H     H_    0.842787 0.806288 0.376901 0.350901

loop_
_geom_bond_atom_site_label_1
_geom_bond_atom_site_label_2
_ccdc_geom_bond_type
C50   O21   D    
O24   H14   S    
C27   C29   A    
O14   H9    S    
C52   N4    T    
C24   C27   A    
C1    O2    A    
C6    C9    A    
C53   N5    T    
C7    C8    A    
C2    C63   S    
C25   C28   A    
C1    C18   S    
C55   N7    T    
Cu2   O8    S    
O34   H19   S    
C20   N1    A    
O20   H12   S    
C5    C6    A    
C3    C64   S    
C63   O32   S    
C40   C61   S    
C15   C16   A    
C20   C50   S    
C35   O7    A    
C18   C19   A    
C22   C52   S    
C43   O10   S    
C35   C42   S    
C1    O1    A    
C38   H1    S    
Cu1   O1    S    
C15   C48   S    
C31   C32   A    
Cu2   O6    S    
C28   C30   A    
C44   O12   S    
C37   C44   S    
C58   N10   T    
C31   C54   S    
C40   C60   S    
C9    C10   A    
C21   C30   A    
C37   C59   S    
C30   C33   A    
Cu1   O7    S    
Cu2   N2    S    
C25   C32   A    
C8    C16   A    
C13   C14   A    
C36   C58   S    
C5    H5    S    
C36   C41   S    
C43   O9    D    
O18   H11   S    
C39   C42   S    
C20   C29   A    
C62   O30   S    
O12   H8    S    
C63   O31   D    
C3    C8    A    
C51   O23   D    
C48   O18   S    
C61   O28   S    
O16   H10   S    
C29   C34   A    
C16   C49   S    
C48   O17   D    
C35   O8    A    
C47   O15   D    
C64   O34   S    
C12   C41   S    
C2    C40   S    
C51   O24   S    
C47   O16   S    
Cu2   O4    S    
C49   O19   D    
C14   C15   A    
C2    C62   S    
C17   C18   A    
O30   H17   S    
C60   O26   S    
C26   O6    A    
C38   H3    S    
C12   O4    A    
C39   H2    S    
Cu1   O3    S    
C40   C41   S    
C23   C53   S    
C17   C46   S    
C50   O22   S    
Cu1   Cu2   S    
O32   H18   S    
C22   C24   A    
C3    C4    A    
C56   N8    T    
C46   O14   S    
O26   H15   S    
C21   C51   S    
C11   C17   A    
C60   O25   D    
C49   O20   S    
C33   C56   S    
C34   C57   S    
C14   C19   A    
C9    H6    S    
C4    C5    A    
C4    C26   S    
C62   O29   D    
C38   C42   S    
C6    C7    A    
C57   N9    T    
C54   N6    T    
C19   C47   S    
C24   C31   A    
C46   O13   D    
C37   C39   S    
C59   N11   T    
C11   C13   A    
Cu1   N1    S    
C23   N2    A    
C2    C42   S    
C36   C38   S    
C33   C34   A    
C23   C25   A    
C36   C43   S    
C37   C41   S    
C45   N3    T    
C26   O5    A    
C12   O3    A    
C10   C11   A    
Cu1   O5    S    
O10   H7    S    
C10   C45   S    
Cu2   O2    S    
C7    C13   A    
C44   O11   D    
C27   C28   A    
C32   C55   S    
C22   N1    A    
C61   O27   D    
O22   H13   S    
O28   H16   S    
C21   N2    A    
C64   O33   D    
C39   H4    S    
