data_mof_unit_48667.cif
_audit_creation_date              2012-12-10T17:33:01-0500
_audit_creation_method            fapswitch 2.2
_symmetry_space_group_name_H-M    P1
_symmetry_Int_Tables_number       1
_space_group_crystal_system       triclinic
_cell_length_a                    12.509442
_cell_length_b                    13.24477
_cell_length_c                    14.257772
_cell_angle_alpha                 96.044907
_cell_angle_beta                  107.967853
_cell_angle_gamma                 117.165874
_cell_volume                      1912.77291983

loop_
_atom_site_label
_atom_site_type_symbol
_atom_type_description
_atom_site_fract_x
_atom_site_fract_y
_atom_site_fract_z
_atom_type_partial_charge
C1    C     C_R   0.647083 0.713313 0.503879 0.924795
C2    C     C_R   0.891085 0.549001 0.913911 -0.048952
C3    C     C_R   0.910731 0.644026 0.988628 -0.189443
C4    C     C_R   0.986212 0.513621 0.934821 -0.079632
C5    C     C_R   0.081575 0.555450 0.036596 -0.014084
C6    C     C_R   0.111225 0.660256 0.101321 -0.049677
C7    C     C_R   0.030329 0.706998 0.077104 0.395894
C8    C     C_R   0.998619 0.447501 0.858129 0.633706
C9    C     C_R   0.092337 0.414377 0.885045 0.658004
C10   C     C_R   0.169865 0.438132 0.989014 -0.320571
C11   C     C_R   0.157995 0.502294 0.066556 -0.122116
C12   C     C_R   0.616839 0.515194 0.687135 0.923012
C13   C     C_R   0.258911 0.399257 0.016503 0.714944
C14   C     C_R   0.330998 0.417138 0.119890 0.173625
C15   C     C_R   0.215536 0.505412 0.170527 0.265935
C16   C     C_R   0.188325 0.951908 0.435681 0.653928
C17   C     C_R   0.261137 0.160758 0.482457 -0.316115
C18   C     C_R   0.715979 0.927314 0.548714 0.490556
C19   C     C_R   0.819380 0.044153 0.585656 0.573877
C20   C     C_R   0.936326 0.073503 0.575576 0.502775
C21   C     C_R   0.945345 0.988212 0.514272 -0.111005
C22   C     C_R   0.837890 0.869261 0.474139 -0.195570
C23   C     C_R   0.347674 0.284818 0.488220 0.893452
C24   C     C_R   0.057324 0.016388 0.491643 0.008807
C25   C     C_R   0.070793 0.924360 0.446911 -0.260792
C26   C     C_R   0.961220 0.809390 0.403007 0.657598
C27   C     C_R   0.842170 0.786979 0.405559 0.256227
C28   C     C_R   0.150019 0.133124 0.502992 -0.126586
C29   C     C_R   0.283609 0.069818 0.454168 0.607157
C30   C     C_R   0.729949 0.837040 0.503396 -0.273791
C31   C     C_R   0.262057 0.709736 0.643592 0.212644
C32   C     C_R   0.649233 0.335608 0.362408 0.704114
C33   C     C_R   0.721939 0.304567 0.323543 0.448091
C34   C     C_R   0.378930 0.480273 0.311174 0.873795
C35   C     C_R   0.858094 0.369931 0.370105 0.564673
C36   C     C_R   0.925632 0.462153 0.464068 -0.177215
C37   C     C_R   0.847036 0.497294 0.499800 0.018194
C38   C     C_R   0.067902 0.526243 0.519787 -0.062427
C39   C     C_R   0.126974 0.627927 0.602699 -0.207204
C40   C     C_R   0.053374 0.641554 0.651425 0.326991
C41   C     C_R   0.919235 0.593004 0.596952 0.317627
C42   C     C_R   0.157036 0.494025 0.503293 0.845780
C43   C     C_R   0.343465 0.673693 0.626428 0.387568
C44   C     C_R   0.695339 0.539389 0.796925 -0.341348
C45   C     C_R   0.308789 0.467944 0.199758 -0.276512
C46   C     C_R   0.810009 0.671423 0.970897 0.248966
C47   C     C_R   0.705802 0.621669 0.874216 0.555030
C48   C     C_R   0.776061 0.491928 0.822120 0.626080
Cu1   Cu    Cu3+1 0.416420 0.526630 0.522910 1.150038
Cu2   Cu    Cu3+1 0.583580 0.473370 0.477090 1.141089
H1    H     H_    0.130770 0.202835 0.518985 0.280272
H2    H     H_    0.202357 0.709938 0.169474 0.206299
N1    N     N_R   0.290690 0.566960 0.557640 -0.316538
N2    N     N_R   0.709100 0.433710 0.442970 -0.281501
O1    O     O_R   0.545970 0.684450 0.528810 -0.520193
O2    O     O_R   0.687130 0.639470 0.490120 -0.566044
O3    O     O_R   0.519670 0.535100 0.660030 -0.524319
O4    O     O_R   0.660830 0.490120 0.621340 -0.522445
O5    O     O_R   0.312870 0.360530 0.509880 -0.548345
O6    O     O_R   0.454030 0.315550 0.471190 -0.475022
O7    O     O_R   0.339170 0.509880 0.378660 -0.530784
O8    O     O_R   0.480330 0.464900 0.339970 -0.520243
Br1   Br    Br    0.105248 0.866249 0.159417 -0.240558
F1    F     F_    0.276642 0.343064 0.942386 -0.514234
F2    F     F_    0.393230 0.093681 0.438272 -0.521588
F3    F     F_    0.963707 0.723448 0.344147 -0.567925
F4    F     F_    0.208937 0.865009 0.402592 -0.533360
F5    F     F_    0.604998 0.902542 0.562334 -0.535025
F6    F     F_    0.040867 0.183334 0.631633 -0.541303
F7    F     F_    0.809545 0.128794 0.638362 -0.487794
Br2   Br    Br    0.687280 0.665315 0.290045 -0.348026
Br3   Br    Br    0.527684 0.770778 0.711809 -0.137397
Br4   Br    Br    0.136726 0.531638 0.261915 -0.270458
Br5   Br    Br    0.137184 0.707099 0.802008 -0.332475
Br6   Br    Br    0.332750 0.876480 0.705141 -0.201710
F8    F     F_    0.113423 0.385983 0.443186 -0.573881
F9    F     F_    0.516641 0.267431 0.318139 -0.529697
F10   F     F_    0.919747 0.346246 0.316079 -0.507563
F11   F     F_    0.659657 0.212256 0.237080 -0.503071
Br7   Br    Br    0.884677 0.701214 0.666614 -0.444261
Br8   Br    Br    0.449368 0.358920 0.140750 -0.161640
F12   F     F_    0.105116 0.357320 0.808110 -0.477859
Br9   Br    Br    0.795340 0.762100 0.075968 -0.189910
F13   F     F_    0.613243 0.652059 0.856881 -0.554961
F14   F     F_    0.733746 0.384867 0.759589 -0.540206
F15   F     F_    0.937090 0.430472 0.756171 -0.548170

loop_
_geom_bond_atom_site_label_1
_geom_bond_atom_site_label_2
_ccdc_geom_bond_type
C43   Br3   S    
C17   C29   A    
C19   C20   A    
C4    C8    A    
C41   Br7   S    
C23   O5    A    
C26   C27   A    
C17   C23   S    
C31   C43   A    
C36   C37   A    
C1    O2    A    
C5    C11   A    
C3    C7    A    
C42   N1    A    
C38   C39   A    
C28   H1    S    
C18   F5    S    
C34   O8    A    
Cu1   O3    S    
C18   C19   A    
C32   F9    S    
C11   C15   A    
C43   N1    A    
C35   C36   A    
C40   Br5   S    
C8    C9    A    
C18   C30   A    
C22   C30   A    
C9    C10   A    
C44   C47   A    
C9    F12   S    
C12   O4    A    
C13   C14   A    
C32   N2    A    
C14   C45   A    
C23   O6    A    
Cu1   O7    S    
C26   F3    S    
C24   C25   A    
C39   C40   A    
C16   F4    S    
C33   F11   S    
C2    C48   A    
C25   C26   A    
Cu1   O1    S    
C34   O7    A    
Cu2   O2    S    
Cu2   O4    S    
C2    C4    A    
C31   Br6   S    
C34   C45   S    
Cu2   N2    S    
C47   F13   S    
C7    Br1   S    
C29   F2    S    
C37   N2    A    
C40   C41   A    
C15   Br4   S    
C22   C27   A    
Cu2   O8    S    
C20   F6    S    
C12   O3    A    
C27   Br2   S    
C16   C25   A    
C46   C47   A    
C3    C46   A    
C17   C28   A    
C24   C28   A    
C4    C5    A    
C10   C13   A    
C38   C42   A    
C6    C7    A    
C35   F10   S    
C42   F8    S    
Cu1   O5    S    
Cu2   O6    S    
C32   C33   A    
C36   C38   A    
C2    C3    A    
C1    O1    A    
C12   C44   S    
C5    C6    A    
C13   F1    S    
Cu1   N1    S    
C1    C30   S    
C33   C35   A    
C31   C39   A    
C8    F15   S    
C37   C41   A    
C10   C11   A    
C46   Br9   S    
C20   C21   A    
C16   C29   A    
Cu1   Cu2   S    
C21   C24   A    
C15   C45   A    
C48   F14   S    
C19   F7    S    
C14   Br8   S    
C6    H2    S    
C21   C22   A    
C44   C48   A    
