data_mof_unit_55741.cif
_audit_creation_date              2012-12-10T16:33:55-0500
_audit_creation_method            fapswitch 2.2
_symmetry_space_group_name_H-M    P1
_symmetry_Int_Tables_number       1
_space_group_crystal_system       triclinic
_cell_length_a                    28.173189
_cell_length_b                    18.313662
_cell_length_c                    17.001773
_cell_angle_alpha                 89.68012
_cell_angle_beta                  60.742451
_cell_angle_gamma                 89.440354
_cell_volume                      7652.72152782

loop_
_atom_site_label
_atom_site_type_symbol
_atom_type_description
_atom_site_fract_x
_atom_site_fract_y
_atom_site_fract_z
_atom_type_partial_charge
C1    C     C_R   0.700674 0.266452 0.676683 0.920674
C2    C     C_R   0.299326 0.733548 0.323317 0.920674
C3    C     C_R   0.299307 0.266455 0.323495 0.911281
C4    C     C_R   0.700693 0.733545 0.676504 0.911282
C5    C     C_R   0.200674 0.766452 0.676683 0.920674
C6    C     C_R   0.799326 0.233548 0.323317 0.920674
C7    C     C_R   0.799307 0.766455 0.323495 0.911282
C8    C     C_R   0.200693 0.233545 0.676504 0.911281
C9    C     C_R   0.022982 0.377325 0.579286 -0.182881
C10   C     C_R   0.977017 0.622675 0.420714 -0.182882
C11   C     C_R   0.920786 0.389202 0.573095 -0.165225
C12   C     C_R   0.079214 0.610798 0.426906 -0.165224
C13   C     C_R   0.522983 0.877325 0.579286 -0.182883
C14   C     C_R   0.477018 0.122675 0.420714 -0.182882
C15   C     C_R   0.420786 0.889202 0.573094 -0.165224
C16   C     C_R   0.579214 0.110798 0.426905 -0.165225
C17   C     C_R   0.721681 0.266179 0.952197 0.013247
C18   C     C_R   0.278319 0.733821 0.047803 0.013251
C19   C     C_R   0.278259 0.267729 0.047564 0.011322
C20   C     C_R   0.721741 0.732271 0.952437 0.011319
C21   C     C_R   0.221681 0.766179 0.952197 0.013251
C22   C     C_R   0.778319 0.233821 0.047803 0.013247
C23   C     C_R   0.778259 0.767729 0.047563 0.011319
C24   C     C_R   0.221741 0.232271 0.952436 0.011322
C25   C     C_R   0.772132 0.299153 0.927184 0.176644
C26   C     C_R   0.227866 0.700851 0.072820 0.176642
C27   C     C_R   0.223800 0.290710 0.080236 0.180574
C28   C     C_R   0.776199 0.709284 0.919767 0.180575
C29   C     C_R   0.272134 0.799149 0.927180 0.176642
C30   C     C_R   0.727868 0.200847 0.072816 0.176644
C31   C     C_R   0.723801 0.790715 0.080233 0.180575
C32   C     C_R   0.276200 0.209290 0.919763 0.180574
C33   C     C_R   0.800067 0.282495 0.974515 -0.220729
C34   C     C_R   0.199931 0.717509 0.025489 -0.220729
C35   C     C_R   0.196147 0.272561 0.033090 -0.221831
C36   C     C_R   0.803852 0.727433 0.966913 -0.221830
C37   C     C_R   0.300069 0.782491 0.974511 -0.220729
C38   C     C_R   0.699933 0.217505 0.025485 -0.220729
C39   C     C_R   0.696148 0.772567 0.033087 -0.221830
C40   C     C_R   0.303853 0.227439 0.966910 -0.221831
C41   C     C_R   0.643035 0.325189 0.946697 -0.196794
C42   C     C_R   0.356965 0.674810 0.053303 -0.196798
C43   C     C_R   0.355972 0.327907 0.054534 -0.201438
C44   C     C_R   0.644027 0.672094 0.945467 -0.201434
C45   C     C_R   0.143035 0.825190 0.946697 -0.196797
C46   C     C_R   0.856965 0.174810 0.053303 -0.196794
C47   C     C_R   0.855972 0.827906 0.054533 -0.201434
C48   C     C_R   0.144028 0.172093 0.945466 -0.201438
C49   C     C_R   0.612597 0.340085 0.902467 -0.125178
C50   C     C_R   0.387403 0.659915 0.097533 -0.125177
C51   C     C_R   0.386555 0.341779 0.098707 -0.117975
C52   C     C_R   0.613444 0.658222 0.901294 -0.117975
C53   C     C_R   0.112597 0.840085 0.902467 -0.125177
C54   C     C_R   0.887403 0.159915 0.097533 -0.125179
C55   C     C_R   0.886556 0.841778 0.098706 -0.117976
C56   C     C_R   0.113445 0.158221 0.901293 -0.117975
C57   C     C_R   0.625183 0.305702 0.822127 0.100322
C58   C     C_R   0.374817 0.694298 0.177873 0.100323
C59   C     C_R   0.374443 0.306402 0.178497 0.099691
C60   C     C_R   0.625557 0.693597 0.821504 0.099690
C61   C     C_R   0.125183 0.805702 0.822127 0.100322
C62   C     C_R   0.874817 0.194298 0.177873 0.100323
C63   C     C_R   0.874443 0.806402 0.178496 0.099691
C64   C     C_R   0.125557 0.193598 0.821503 0.099691
C65   C     C_R   0.676790 0.275689 0.773380 -0.108814
C66   C     C_R   0.323210 0.724311 0.226619 -0.108815
C67   C     C_R   0.323349 0.275807 0.226671 -0.108166
C68   C     C_R   0.676651 0.724192 0.773329 -0.108165
C69   C     C_R   0.176790 0.775689 0.773380 -0.108815
C70   C     C_R   0.823210 0.224311 0.226619 -0.108815
C71   C     C_R   0.823349 0.775807 0.226671 -0.108165
C72   C     C_R   0.176651 0.224193 0.773329 -0.108166
C73   C     C_R   0.708465 0.260873 0.815982 -0.180809
C74   C     C_R   0.291535 0.739127 0.184018 -0.180807
C75   C     C_R   0.292105 0.261050 0.183646 -0.167627
C76   C     C_R   0.707896 0.738949 0.816354 -0.167628
C77   C     C_R   0.208465 0.760873 0.815982 -0.180807
C78   C     C_R   0.791535 0.239127 0.184018 -0.180809
C79   C     C_R   0.792104 0.761051 0.183646 -0.167628
C80   C     C_R   0.207895 0.238950 0.816354 -0.167627
C81   C     C_R   0.690256 0.282866 0.904831 0.106928
C82   C     C_R   0.309744 0.717134 0.095169 0.106929
C83   C     C_R   0.309412 0.284828 0.095494 0.102808
C84   C     C_R   0.690587 0.715172 0.904507 0.102807
C85   C     C_R   0.190256 0.782866 0.904831 0.106928
C86   C     C_R   0.809744 0.217134 0.095169 0.106928
C87   C     C_R   0.809413 0.784828 0.095493 0.102807
C88   C     C_R   0.190588 0.215172 0.904506 0.102807
C89   C     C_R   0.694988 0.127258 0.523471 0.927631
C90   C     C_R   0.305012 0.872742 0.476529 0.927630
C91   C     C_R   0.309855 0.130295 0.460423 0.911846
C92   C     C_R   0.690146 0.869705 0.539577 0.911847
C93   C     C_R   0.194988 0.627258 0.523471 0.927630
C94   C     C_R   0.805012 0.372742 0.476529 0.927631
C95   C     C_R   0.809854 0.630295 0.460423 0.911847
C96   C     C_R   0.190145 0.369705 0.539577 0.911846
C97   C     C_R   0.072493 0.101961 0.935253 0.934243
C98   C     C_R   0.927508 0.898038 0.064747 0.934243
C99   C     C_R   0.928084 0.102742 0.063930 0.932720
C100  C     C_R   0.071916 0.897258 0.936070 0.932719
C101  C     C_R   0.572492 0.601961 0.935253 0.934243
C102  C     C_R   0.427507 0.398039 0.064747 0.934243
C103  C     C_R   0.428084 0.602742 0.063930 0.932718
C104  C     C_R   0.571916 0.397258 0.936070 0.932720
C105  C     C_R   0.546786 0.997582 0.510284 0.041640
C106  C     C_R   0.453214 0.002417 0.489715 0.041640
C107  C     C_R   0.046786 0.497582 0.510285 0.041640
C108  C     C_R   0.953214 0.502418 0.489716 0.041640
C109  C     C_R   0.538111 0.057743 0.465590 0.050759
C110  C     C_R   0.461890 0.942256 0.534408 0.050758
C111  C     C_R   0.490177 0.061335 0.457684 0.049094
C112  C     C_R   0.509823 0.938665 0.542315 0.049094
C113  C     C_R   0.038110 0.557744 0.465591 0.050758
C114  C     C_R   0.961889 0.442256 0.534409 0.050759
C115  C     C_R   0.990177 0.561335 0.457685 0.049093
C116  C     C_R   0.009822 0.438665 0.542315 0.049093
C117  C     C_R   0.605832 0.934328 0.558305 0.045344
C118  C     C_R   0.394168 0.065672 0.441694 0.045345
C119  C     C_R   0.371654 0.943741 0.502804 0.022734
C120  C     C_R   0.628347 0.056259 0.497196 0.022734
C121  C     C_R   0.105832 0.434328 0.558306 0.045344
C122  C     C_R   0.894168 0.565672 0.441694 0.045345
C123  C     C_R   0.871653 0.443741 0.502804 0.022734
C124  C     C_R   0.128346 0.556258 0.497196 0.022733
C125  C     C_R   0.654375 0.934033 0.564359 -0.181220
C126  C     C_R   0.345625 0.065966 0.435641 -0.181220
C127  C     C_R   0.333471 0.939662 0.470504 -0.175649
C128  C     C_R   0.666529 0.060338 0.529495 -0.175649
C129  C     C_R   0.154375 0.434034 0.564359 -0.181221
C130  C     C_R   0.845625 0.565966 0.435641 -0.181220
C131  C     C_R   0.833471 0.439662 0.470504 -0.175649
C132  C     C_R   0.166529 0.560338 0.529496 -0.175649
C133  C     C_R   0.675587 0.999728 0.570673 0.097796
C134  C     C_R   0.324413 0.000272 0.429326 0.097796
C135  C     C_R   0.175587 0.499728 0.570674 0.097797
C136  C     C_R   0.824413 0.500272 0.429326 0.097796
C137  C     C_R   0.593100 0.996361 0.522938 0.084747
C138  C     C_R   0.406900 0.003639 0.477062 0.084747
C139  C     C_R   0.093100 0.496361 0.522938 0.084748
C140  C     C_R   0.906899 0.503639 0.477062 0.084747
C141  C     C_R   0.070173 0.375112 0.586394 -0.126920
C142  C     C_R   0.929827 0.624888 0.413607 -0.126921
C143  C     C_R   0.876424 0.390432 0.558453 -0.119765
C144  C     C_R   0.123575 0.609568 0.441548 -0.119766
C145  C     C_R   0.570173 0.875112 0.586393 -0.126920
C146  C     C_R   0.429827 0.124888 0.413606 -0.126920
C147  C     C_R   0.376425 0.890432 0.558452 -0.119766
C148  C     C_R   0.623576 0.109568 0.441547 -0.119765
H1    H     H_    0.998202 0.329121 0.601715 0.149865
H2    H     H_    0.001798 0.670879 0.398285 0.149865
H3    H     H_    0.921184 0.346372 0.616469 0.156019
H4    H     H_    0.078815 0.653628 0.383532 0.156022
H5    H     H_    0.498202 0.829121 0.601715 0.149866
H6    H     H_    0.501798 0.170879 0.398285 0.149865
H7    H     H_    0.421185 0.846371 0.616468 0.156021
H8    H     H_    0.578816 0.153628 0.383530 0.156020
H9    H     H_    0.661255 0.191692 0.045346 0.184597
H10   H     H_    0.338748 0.808302 0.954647 0.184597
H11   H     H_    0.345460 0.208883 0.941166 0.184154
H12   H     H_    0.654542 0.791127 0.058829 0.184154
H13   H     H_    0.161252 0.691698 0.045353 0.184597
H14   H     H_    0.838745 0.308308 0.954654 0.184597
H15   H     H_    0.845458 0.708873 0.941171 0.184154
H16   H     H_    0.154540 0.291117 0.058834 0.184154
H17   H     H_    0.747664 0.233688 0.779980 0.179712
H18   H     H_    0.252336 0.766312 0.220020 0.179713
H19   H     H_    0.253824 0.232405 0.218977 0.185052
H20   H     H_    0.746177 0.767592 0.781022 0.185051
H21   H     H_    0.247664 0.733688 0.779980 0.179713
H22   H     H_    0.752336 0.266312 0.220020 0.179712
H23   H     H_    0.753823 0.732407 0.218978 0.185051
H24   H     H_    0.246176 0.267595 0.781023 0.185052
O1    O     O_R   0.746490 0.236330 0.638080 -0.642420
O2    O     O_R   0.253510 0.763670 0.361920 -0.642420
O3    O     O_R   0.253510 0.236330 0.361920 -0.626022
O4    O     O_R   0.746490 0.763670 0.638080 -0.626023
O5    O     O_R   0.246490 0.736330 0.638080 -0.642420
O6    O     O_R   0.753510 0.263670 0.361920 -0.642420
O7    O     O_R   0.753510 0.736330 0.361920 -0.626023
O8    O     O_R   0.246490 0.263670 0.638080 -0.626022
O9    O     O_R   0.674170 0.186160 0.516270 -0.636467
O10   O     O_R   0.325830 0.813840 0.483730 -0.636467
O11   O     O_R   0.325830 0.186160 0.483730 -0.628661
O12   O     O_R   0.674170 0.813840 0.516270 -0.628663
O13   O     O_R   0.174170 0.686160 0.516270 -0.636467
O14   O     O_R   0.825830 0.313840 0.483730 -0.636467
O15   O     O_R   0.825830 0.686160 0.483730 -0.628663
O16   O     O_R   0.174170 0.313840 0.516270 -0.628661
O17   O     O_R   0.739960 0.127620 0.525000 -0.592584
O18   O     O_R   0.260040 0.872380 0.475000 -0.592583
O19   O     O_R   0.260040 0.127620 0.475000 -0.588451
O20   O     O_R   0.739960 0.872380 0.525000 -0.588452
O21   O     O_R   0.239960 0.627620 0.525000 -0.592583
O22   O     O_R   0.760040 0.372380 0.475000 -0.592584
O23   O     O_R   0.760040 0.627620 0.475000 -0.588451
O24   O     O_R   0.239960 0.372380 0.525000 -0.588451
O25   O     O_R   0.680700 0.294870 0.629350 -0.591581
O26   O     O_R   0.319300 0.705130 0.370650 -0.591581
O27   O     O_R   0.319300 0.294870 0.370650 -0.597136
O28   O     O_R   0.680700 0.705130 0.629350 -0.597136
O29   O     O_R   0.180700 0.794870 0.629350 -0.591581
O30   O     O_R   0.819300 0.205130 0.370650 -0.591581
O31   O     O_R   0.819300 0.794870 0.370650 -0.597136
O32   O     O_R   0.180700 0.205130 0.629350 -0.597136
O33   O     O_R   0.062020 0.072840 0.007170 -0.624106
O34   O     O_R   0.937980 0.927160 0.992830 -0.624106
O35   O     O_R   0.937980 0.072840 0.992830 -0.622681
O36   O     O_R   0.062020 0.927160 0.007170 -0.622681
O37   O     O_R   0.562020 0.572840 0.007170 -0.624106
O38   O     O_R   0.437980 0.427160 0.992830 -0.624106
O39   O     O_R   0.437980 0.572840 0.992830 -0.622681
O40   O     O_R   0.562020 0.427160 0.007170 -0.622681
O41   O     O_R   0.947860 0.073950 0.109290 -0.588878
O42   O     O_R   0.052140 0.926050 0.890710 -0.588878
O43   O     O_R   0.052140 0.073950 0.890710 -0.586521
O44   O     O_R   0.947860 0.926050 0.109290 -0.586521
O45   O     O_R   0.447860 0.573950 0.109290 -0.588878
O46   O     O_R   0.552140 0.426050 0.890710 -0.588878
O47   O     O_R   0.552140 0.573950 0.890710 -0.586521
O48   O     O_R   0.447860 0.426050 0.109290 -0.586521
Zn1   Zn    Zn3+2 0.792340 0.208750 0.507670 1.026708
Zn2   Zn    Zn3+2 0.207660 0.791250 0.492330 1.026709
Zn3   Zn    Zn3+2 0.207660 0.208750 0.492330 1.033426
Zn4   Zn    Zn3+2 0.792340 0.791250 0.507670 1.033424
Zn5   Zn    Zn3+2 0.292340 0.708750 0.507670 1.026709
Zn6   Zn    Zn3+2 0.707660 0.291250 0.492330 1.026708
Zn7   Zn    Zn3+2 0.707660 0.708750 0.492330 1.033424
Zn8   Zn    Zn3+2 0.292340 0.291250 0.507670 1.033426
Zn9   Zn    Zn3+2 0.505960 0.500000 0.080520 1.028064
Zn10  Zn    Zn3+2 0.494040 0.500000 0.919480 1.028063
Zn11  Zn    Zn3+2 0.005960 1.000000 0.080520 1.028064
Zn12  Zn    Zn3+2 0.994040 0.000000 0.919480 1.028063
I1    I     I_    0.713269 0.003941 0.654298 -0.294774
I2    I     I_    0.286730 0.996059 0.345702 -0.294773
I3    I     I_    0.213269 0.503941 0.654298 -0.294773
I4    I     I_    0.786731 0.496059 0.345702 -0.294773
H25   H     H_    0.077339 0.327695 0.617544 0.184347
H26   H     H_    0.922660 0.672305 0.382456 0.184347
H27   H     H_    0.845537 0.349767 0.593304 0.180204
H28   H     H_    0.154463 0.650233 0.406696 0.180206
H29   H     H_    0.577339 0.827695 0.617543 0.184347
H30   H     H_    0.422661 0.172305 0.382456 0.184347
H31   H     H_    0.345537 0.849767 0.593303 0.180206
H32   H     H_    0.654463 0.150233 0.406695 0.180204
I5    I     I_    0.806774 0.377717 0.822315 -0.381776
I6    I     I_    0.193222 0.622290 0.177693 -0.381788
I7    I     I_    0.181818 0.357378 0.196567 -0.319511
I8    I     I_    0.818177 0.642609 0.803442 -0.319506
I9    I     I_    0.306778 0.877710 0.822307 -0.381788
I10   I     I_    0.693226 0.122282 0.177685 -0.381776
I11   I     I_    0.681823 0.857391 0.196558 -0.319506
I12   I     I_    0.318181 0.142621 0.803433 -0.319511
H33   H     H_    0.631300 0.348550 0.012192 0.176170
H34   H     H_    0.368700 0.651450 0.987808 0.176170
H35   H     H_    0.367300 0.352207 0.989508 0.176628
H36   H     H_    0.632699 0.647794 0.010493 0.176628
H37   H     H_    0.131300 0.848550 0.012192 0.176170
H38   H     H_    0.868700 0.151450 0.987808 0.176170
H39   H     H_    0.867301 0.852205 0.989507 0.176628
H40   H     H_    0.132700 0.147793 0.010492 0.176628
I13   I     I_    0.564495 0.290494 0.781538 -0.292736
I14   I     I_    0.435505 0.709506 0.218462 -0.292737
I15   I     I_    0.435394 0.289811 0.218700 -0.351661
I16   I     I_    0.564606 0.710189 0.781300 -0.351662
I17   I     I_    0.064495 0.790494 0.781538 -0.292737
I18   I     I_    0.935505 0.209506 0.218462 -0.292736
I19   I     I_    0.935394 0.789811 0.218700 -0.351661
I20   I     I_    0.064606 0.210189 0.781300 -0.351662

loop_
_geom_bond_atom_site_label_1
_geom_bond_atom_site_label_2
_ccdc_geom_bond_type
C46   H38   S    
C122  C140  A    
O24   Zn8   S    
C6    C70   S    
C91   C126  S    
C91   O11   A    
C39   H12   S    
C70   C78   A    
C43   C83   A    
C96   O16   A    
C124  C139  A    
C69   C77   A    
C42   C82   A    
C127  C134  A    
C13   C145  A    
C97   O43   A    
C3    O3    A    
C34   H13   S    
O42   Zn12  S    
C92   C125  S    
C76   C84   A    
C49   C104  S    
C71   C79   A    
C32   I12   S    
C100  O36   A    
C46   C86   A    
C95   O15   A    
C51   C102  S    
C100  O42   A    
O48   Zn9   S    
C118  C138  A    
C56   C97   S    
C108  C115  A    
C59   I15   S    
O2    Zn2   S    
O39   Zn10  S    
C18   C37   A    
C6    O30   A    
C13   C112  A    
O18   Zn2   S    
C7    C71   S    
O17   Zn1   S    
O35   Zn12  S    
C106  C138  A    
C29   C37   A    
O15   Zn4   S    
C42   H34   S    
C108  C114  A    
C66   C74   A    
C41   H33   S    
C78   H22   S    
O44   Zn11  S    
C49   C57   A    
C124  C132  A    
C104  O40   A    
C142  H26   S    
C28   I8    S    
C79   H23   S    
C106  C110  A    
C11   C114  A    
C60   I16   S    
C107  C113  A    
C62   C70   A    
C7    O31   A    
C52   C60   A    
C59   C67   A    
C124  C144  A    
C129  C135  A    
C53   C61   A    
C92   O20   A    
C26   C34   A    
O46   Zn10  S    
C90   O10   A    
C47   H39   S    
C89   O17   A    
C55   C63   A    
C16   H8    S    
C95   C130  S    
C1    C65   S    
C90   C127  S    
C48   C88   A    
C10   C142  A    
C147  H31   S    
C63   I19   S    
C93   C132  S    
C19   C27   A    
O27   Zn8   S    
C121  C129  A    
C4    O28   A    
C15   H7    S    
O41   Zn11  S    
O26   Zn5   S    
C102  O48   A    
O45   Zn9   S    
O25   Zn6   S    
C78   C86   A    
O5    Zn5   S    
C22   C86   S    
O1    Zn1   S    
C50   C103  S    
C23   C87   S    
C79   C87   A    
C6    O6    A    
O7    Zn7   S    
C9    C116  A    
O30   Zn1   S    
C46   C54   A    
C62   I18   S    
C130  C136  A    
O29   Zn2   S    
C74   C82   A    
C19   C83   S    
C18   C82   S    
C126  C134  A    
C73   C81   A    
C54   C62   A    
C72   C80   A    
C58   C66   A    
C16   C109  A    
C21   C85   S    
C106  C111  A    
C53   C100  S    
O38   Zn10  S    
C14   C111  A    
C9    H1    S    
C117  C137  A    
C52   C101  S    
C8    C72   S    
C24   C35   A    
O34   Zn12  S    
O43   Zn12  S    
C50   C58   A    
C75   C83   A    
C143  H27   S    
O22   Zn6   S    
C8    O32   A    
C11   C143  A    
O20   Zn4   S    
C73   H17   S    
C131  C136  A    
C92   O12   A    
C65   C73   A    
C103  O39   A    
C108  C140  A    
C20   C39   A    
C9    C141  A    
C44   H36   S    
C5    O29   A    
C133  I1    S    
C21   C34   A    
C99   O41   A    
C122  C130  A    
C101  O37   A    
C104  O46   A    
C21   C29   A    
C123  C140  A    
O8    Zn8   S    
C12   C144  A    
C99   O35   A    
O28   Zn7   S    
C23   C31   A    
C37   H10   S    
O11   Zn8   S    
C144  H28   S    
C24   C32   A    
C27   I7    S    
C36   H15   S    
C27   C35   A    
C8    O8    A    
C31   I11   S    
C3    O27   A    
C118  C146  A    
C41   C81   A    
C1    O1    A    
C57   I13   S    
C18   C26   A    
C146  H30   S    
C121  C141  A    
C56   C64   A    
C4    C68   S    
C134  I2    S    
C145  H29   S    
C29   I9    S    
O10   Zn5   S    
O37   Zn9   S    
C45   H37   S    
C24   C88   S    
C61   I17   S    
C103  O45   A    
C43   H35   S    
C11   H3    S    
C105  C112  A    
C63   C71   A    
C5    O5    A    
O13   Zn2   S    
C20   C84   S    
O32   Zn3   S    
C64   I20   S    
C117  C145  A    
C135  I3    S    
C54   C99   S    
O33   Zn11  S    
C51   C59   A    
C122  C142  A    
O47   Zn10  S    
C123  C143  A    
O19   Zn3   S    
C74   H18   S    
C32   C40   A    
C47   C87   A    
C102  O38   A    
C47   C55   A    
C12   C113  A    
C90   O18   A    
C61   C69   A    
C48   C56   A    
C22   C33   A    
C105  C109  A    
C48   H40   S    
C141  H25   S    
O4    Zn4   S    
C42   C50   A    
C123  C131  A    
O3    Zn3   S    
C2    O26   A    
C119  C138  A    
C5    C69   S    
O14   Zn1   S    
C1    O25   A    
C89   O9    A    
C94   O14   A    
C38   H9    S    
C57   C65   A    
C2    C66   S    
C44   C52   A    
C10   H2    S    
C114  C116  A    
C120  C128  A    
C94   O22   A    
C120  C148  A    
C7    O7    A    
C35   H16   S    
O23   Zn7   S    
O9    Zn6   S    
C68   C76   A    
C41   C49   A    
C20   C28   A    
C14   C146  A    
C125  C133  A    
C94   C131  S    
O12   Zn7   S    
C44   C84   A    
C45   C85   A    
C16   C148  A    
C60   C68   A    
C17   C25   A    
C121  C139  A    
C109  C111  A    
C33   H14   S    
O21   Zn5   S    
C80   C88   A    
C22   C30   A    
C13   H5    S    
C14   H6    S    
C15   C147  A    
O40   Zn9   S    
C43   C51   A    
C91   O19   A    
C77   C85   A    
C132  C135  A    
C45   C53   A    
C136  I4    S    
C55   C98   S    
C25   I5    S    
C95   O23   A    
C31   C39   A    
O31   Zn4   S    
C76   H20   S    
C17   C81   S    
C17   C38   A    
C64   C72   A    
C107  C139  A    
C101  O47   A    
C118  C126  A    
C110  C112  A    
C107  C116  A    
O6    Zn6   S    
C15   C110  A    
C19   C40   A    
C2    O2    A    
O36   Zn11  S    
C105  C137  A    
C12   H4    S    
O16   Zn3   S    
C30   I10   S    
C96   O24   A    
C67   C75   A    
C28   C36   A    
C77   H21   S    
C23   C36   A    
C4    O4    A    
C25   C33   A    
C148  H32   S    
C80   H24   S    
C98   O34   A    
C75   H19   S    
C120  C137  A    
C93   O21   A    
C30   C38   A    
C97   O33   A    
C3    C67   S    
C128  C133  A    
C117  C125  A    
C119  C147  A    
C98   O44   A    
C40   H11   S    
C58   I14   S    
C10   C115  A    
C26   I6    S    
C93   O13   A    
C96   C129  S    
C113  C115  A    
C89   C128  S    
C119  C127  A    
