data_mof_unit_14373.cif
_audit_creation_date              2012-12-11T14:44:38-0500
_audit_creation_method            fapswitch 2.2
_symmetry_space_group_name_H-M    P1
_symmetry_Int_Tables_number       1
_space_group_crystal_system       triclinic
_cell_length_a                    19.929692
_cell_length_b                    7.222907
_cell_length_c                    19.758099
_cell_angle_alpha                 90.018261
_cell_angle_beta                  98.383025
_cell_angle_gamma                 90.019429
_cell_volume                      2813.79566438

loop_
_atom_site_label
_atom_site_type_symbol
_atom_type_description
_atom_site_fract_x
_atom_site_fract_y
_atom_site_fract_z
_atom_type_partial_charge
O1    O     O_R   0.673210 0.377390 0.686390 -0.524799
O2    O     O_R   0.326790 0.622610 0.313610 -0.530191
O3    O     O_R   0.826790 0.877390 0.813610 -0.521445
O4    O     O_R   0.173210 0.122610 0.186390 -0.523628
O5    O     O_R   0.810750 0.706450 0.681250 -0.554616
O6    O     O_R   0.189250 0.293550 0.318750 -0.551665
O7    O     O_R   0.689250 0.206450 0.818750 -0.555264
O8    O     O_R   0.310750 0.793550 0.181250 -0.551567
C1    C     C_R   0.831627 0.538489 0.666328 0.756669
C2    C     C_R   0.168568 0.461564 0.334131 0.751728
C3    C     C_R   0.668385 0.038484 0.833684 0.750456
C4    C     C_R   0.331440 0.961567 0.165877 0.745242
O9    O     O_R   0.672750 0.707060 0.678240 -0.525161
O10   O     O_R   0.327250 0.292940 0.321760 -0.532600
O11   O     O_R   0.827250 0.207060 0.821760 -0.524437
O12   O     O_R   0.172750 0.792940 0.178240 -0.528673
O13   O     O_R   0.687800 0.877990 0.810580 -0.508045
O14   O     O_R   0.312200 0.122010 0.189420 -0.505938
O15   O     O_R   0.812200 0.377990 0.689420 -0.507665
O16   O     O_R   0.187800 0.622010 0.310580 -0.505600
C5    C     C_R   0.647982 0.539548 0.661686 0.812495
C6    C     C_R   0.351641 0.460690 0.338416 0.821164
C7    C     C_R   0.851973 0.039628 0.838393 0.806283
C8    C     C_R   0.148414 0.960594 0.161505 0.818766
O17   O     O_3   0.755100 0.544060 0.793420 -0.370677
O18   O     O_3   0.244900 0.455940 0.206580 -0.370318
O19   O     O_3   0.744900 0.044060 0.706580 -0.372463
O20   O     O_3   0.255100 0.955940 0.293420 -0.375352
V1    V     V_3+5 0.749050 0.818670 0.741950 1.579099
V2    V     V_3+5 0.250950 0.181330 0.258050 1.572357
V3    V     V_3+5 0.750950 0.318670 0.758050 1.578993
V4    V     V_3+5 0.249050 0.681330 0.241950 1.577160
C9    C     C_R   0.086613 0.962905 0.109002 -0.210983
C10   C     C_R   0.913617 0.040549 0.891737 -0.143716
C11   C     C_R   0.413530 0.463775 0.390806 -0.144706
C12   C     C_R   0.586102 0.539772 0.608644 -0.211494
C13   C     C_R   0.016183 0.202474 0.945333 0.291486
C14   C     C_R   0.975886 0.831278 0.064133 0.284533
C15   C     C_R   0.483020 0.699565 0.556226 0.266466
C16   C     C_R   0.524906 0.334297 0.435667 0.297947
C17   C     C_R   0.962037 0.182548 0.890607 0.195938
C18   C     C_R   0.032859 0.841353 0.115874 0.302885
C19   C     C_R   0.536939 0.679343 0.610687 0.288719
C20   C     C_R   0.467717 0.344163 0.383624 0.191283
C21   C     C_R   0.921972 0.910125 0.945266 0.252347
C22   C     C_R   0.083523 0.076067 0.050778 0.311480
C23   C     C_R   0.579268 0.413940 0.553609 0.313932
C24   C     C_R   0.415423 0.571767 0.450222 0.249284
C25   C     C_R   0.974516 0.934112 0.002327 -0.185976
C26   C     C_R   0.025583 0.070133 0.998785 -0.090007
C27   C     C_R   0.525598 0.435007 0.497499 -0.087804
C28   C     C_R   0.474011 0.569118 0.501595 -0.176368
C29   C     C_R   0.556464 0.130620 0.869773 0.248953
C30   C     C_R   0.438449 0.851994 0.123414 0.255995
C31   C     C_R   0.943569 0.630735 0.630260 0.245902
C32   C     C_R   0.061586 0.351808 0.376629 0.256022
C33   C     C_R   0.617482 0.027266 0.881321 -0.207034
C34   C     C_R   0.381443 0.971482 0.116837 -0.204085
C35   C     C_R   0.882546 0.527262 0.618706 -0.208412
C36   C     C_R   0.118578 0.471459 0.383184 -0.206812
C37   C     C_R   0.630796 0.911736 0.939088 0.278965
C38   C     C_R   0.372509 0.104208 0.063866 0.284952
C39   C     C_R   0.869249 0.411548 0.560956 0.278868
C40   C     C_R   0.127515 0.604301 0.436154 0.287676
C41   C     C_R   0.581116 0.886978 0.983345 -0.018817
C42   C     C_R   0.416463 0.107144 0.013044 -0.021579
C43   C     C_R   0.918934 0.386775 0.516709 -0.020388
C44   C     C_R   0.083578 0.607203 0.486993 -0.022146
C45   C     C_R   0.522086 0.999667 0.974038 -0.073992
C46   C     C_R   0.474233 0.989699 0.020907 -0.068270
C47   C     C_R   0.977961 0.499595 0.526011 -0.073110
C48   C     C_R   0.025811 0.489628 0.479139 -0.068401
C49   C     C_R   0.510491 0.121796 0.917664 0.037281
C50   C     C_R   0.484392 0.861799 0.075551 0.049439
C51   C     C_R   0.989555 0.621861 0.582380 0.037728
C52   C     C_R   0.015652 0.361600 0.424499 0.049784
C53   C     C_R   0.587978 0.751447 0.035949 0.248008
C54   C     C_R   0.403865 0.220834 0.953817 0.255810
C55   C     C_R   0.912076 0.251111 0.464114 0.247025
C56   C     C_R   0.096189 0.720987 0.546228 0.255544
C57   C     C_R   0.540663 0.743262 0.081644 -0.184022
C58   C     C_R   0.451302 0.229193 0.908228 -0.188615
C59   C     C_R   0.959389 0.242925 0.418418 -0.181623
C60   C     C_R   0.048753 0.729354 0.591820 -0.190636
H1    H     H_    0.547772 0.639223 0.121545 0.176778
H2    H     H_    0.440403 0.318614 0.863973 0.177112
H3    H     H_    0.952281 0.138787 0.378523 0.177756
H4    H     H_    0.059658 0.818862 0.636077 0.175648
O21   O     O_3   0.140027 0.180988 0.043981 -0.596984
H5    H     H_    0.148951 0.167405 0.996162 0.328338
O22   O     O_3   0.879181 0.758898 0.939461 -0.619449
H6    H     H_    0.905824 0.650056 0.958398 0.327053
O23   O     O_3   0.356804 0.664832 0.459110 -0.625049
H7    H     H_    0.351727 0.658133 0.508203 0.325572
O24   O     O_3   0.625807 0.272052 0.556043 -0.592858
H8    H     H_    0.600176 0.157115 0.542270 0.336098
O25   O     O_3   0.036520 0.738701 0.175504 -0.636595
H9    H     H_    0.999033 0.647695 0.171732 0.336436
O26   O     O_3   0.956470 0.297123 0.833973 -0.643865
H10   H     H_    0.002147 0.342817 0.828120 0.296525
O27   O     O_3   0.463024 0.236068 0.325360 -0.643586
H11   H     H_    0.488397 0.119511 0.336621 0.295002
O28   O     O_3   0.543882 0.797459 0.666552 -0.639047
H12   H     H_    0.503430 0.877645 0.664955 0.332174
O29   O     O_3   0.056618 0.358952 0.950524 -0.633720
H13   H     H_    0.030197 0.464193 0.928221 0.298805
O30   O     O_3   0.920355 0.732077 0.078232 -0.645880
H14   H     H_    0.879054 0.803386 0.060443 0.325616
O31   O     O_3   0.444049 0.857892 0.555044 -0.653774
H15   H     H_    0.435326 0.903018 0.507190 0.322861
O32   O     O_3   0.582541 0.239013 0.424802 -0.630535
H16   H     H_    0.585637 0.238234 0.375221 0.306499
O33   O     O_3   0.540050 0.241199 0.812501 -0.644987
H17   H     H_    0.565044 0.199007 0.775609 0.292695
O34   O     O_3   0.452171 0.728794 0.177305 -0.640444
H18   H     H_    0.433712 0.778061 0.217542 0.289370
O35   O     O_3   0.959975 0.741478 0.687524 -0.646918
H19   H     H_    0.934955 0.699378 0.724406 0.293062
O36   O     O_3   0.047867 0.228452 0.322750 -0.639077
H20   H     H_    0.066298 0.277701 0.282499 0.293268
O37   O     O_3   0.694197 0.831831 0.952433 -0.610872
H21   H     H_    0.711066 0.852327 0.001582 0.316143
O38   O     O_3   0.320564 0.230311 0.063394 -0.604177
H22   H     H_    0.340520 0.354755 0.059035 0.327011
O39   O     O_3   0.805855 0.331470 0.547611 -0.603919
H23   H     H_    0.788989 0.351841 0.498463 0.328207
O40   O     O_3   0.179440 0.730556 0.436604 -0.602835
H24   H     H_    0.159481 0.854945 0.441012 0.326091
N1    N     N_2   0.639966 0.614756 0.041448 -0.512406
H25   H     H_    0.657537 0.575659 0.091099 0.253898
C61   C     C_3   0.623822 0.456745 0.997102 -0.439343
H26   H     H_    0.668222 0.362463 0.001171 0.191356
H27   H     H_    0.611233 0.501496 0.942931 0.229768
H28   H     H_    0.580204 0.379983 0.012590 0.172615
N2    N     N_2   0.341929 0.319981 0.936860 -0.510528
H29   H     H_    0.346848 0.443148 0.911583 0.250956
C62   C     C_3   0.286311 0.209013 0.903382 -0.464674
H30   H     H_    0.239207 0.293220 0.895979 0.202602
H31   H     H_    0.277682 0.086688 0.935093 0.216821
H32   H     H_    0.297250 0.161657 0.852582 0.174519
N3    N     N_2   0.860092 0.114304 0.458623 -0.509709
H33   H     H_    0.842521 0.075068 0.408974 0.255442
C63   C     C_3   0.876242 0.956420 0.502976 -0.435789
H34   H     H_    0.831846 0.862039 0.498914 0.193899
H35   H     H_    0.888833 0.001310 0.557144 0.228585
H36   H     H_    0.919861 0.879716 0.487488 0.171857
N4    N     N_2   0.158140 0.820217 0.563190 -0.511929
H37   H     H_    0.153246 0.943363 0.588511 0.250446
C64   C     C_3   0.213761 0.709313 0.596605 -0.459971
H38   H     H_    0.260873 0.793588 0.604011 0.204929
H39   H     H_    0.222364 0.587021 0.564847 0.218618
H40   H     H_    0.202844 0.661907 0.647398 0.172925

loop_
_geom_bond_atom_site_label_1
_geom_bond_atom_site_label_2
_ccdc_geom_bond_type
C34   C38   A    
C63   H36   S    
C59   H3    S    
O1    C5    A    
O23   H7    S    
C32   C52   A    
C31   C35   A    
O19   V1    S    
O35   H19   S    
O13   V1    S    
O3    C7    A    
O24   H8    S    
C56   C60   A    
C61   H28   S    
O15   V3    S    
O25   H9    S    
O38   H22   S    
C5    C12   S    
C42   C46   A    
O18   V4    S    
C6    C11   S    
C62   H31   S    
O27   H11   S    
C9    C18   A    
C40   C44   A    
C37   O37   S    
N4    C64   S    
C14   C18   A    
C64   H39   S    
C30   C34   A    
O4    C8    A    
C51   C60   A    
C63   H34   S    
O1    V3    S    
C12   C23   A    
O2    V4    S    
C14   O30   S    
O3    V1    S    
N4    H37   S    
C30   C50   A    
N3    H33   S    
C1    O15   A    
C56   N4    S    
O32   H16   S    
C2    O16   A    
C55   C59   A    
C46   C50   A    
O30   H14   S    
C17   O26   S    
C45   C49   A    
O14   V2    S    
C20   O27   S    
C53   C57   A    
C54   N2    S    
C16   C20   A    
O8    C4    A    
C4    C34   S    
C7    C10   S    
O11   C7    A    
C15   C28   A    
C62   H30   S    
O12   C8    A    
N2    C62   S    
C9    C22   A    
C10   C17   A    
O10   V2    S    
C11   C24   A    
C52   C59   A    
C38   O38   S    
C29   O33   S    
C57   H1    S    
C16   O32   S    
O5    V1    S    
C42   C54   A    
C62   H32   S    
C39   C43   A    
O7    V3    S    
C24   O23   S    
C38   C42   A    
C15   O31   S    
C27   C28   A    
O8    V4    S    
N2    H29   S    
C41   C53   A    
O31   H15   S    
C18   O25   S    
O22   H6    S    
C14   C25   A    
C29   C33   A    
C15   C19   A    
C31   O35   S    
C13   O29   S    
C58   H2    S    
C32   C36   A    
C1    C35   S    
O7    C3    A    
O5    C1    A    
C22   O21   S    
C54   C58   A    
O26   H10   S    
C21   C25   A    
C44   C48   A    
C40   O40   S    
C30   O34   S    
O9    C5    A    
C48   C52   A    
C10   C21   A    
C53   N1    S    
C33   C37   A    
C11   C20   A    
O37   H21   S    
C39   O39   S    
O6    V2    S    
O39   H23   S    
C32   O36   S    
C64   H40   S    
C50   C57   A    
C44   C56   A    
C49   C58   A    
O33   H17   S    
O16   V4    S    
O9    V1    S    
C63   H35   S    
C2    C36   S    
C3    O13   A    
O17   V3    S    
C29   C49   A    
C60   H4    S    
C61   H27   S    
O6    C2    A    
C23   C27   A    
O36   H20   S    
O11   V3    S    
O40   H24   S    
O12   V4    S    
C16   C27   A    
O29   H13   S    
C22   C26   A    
C35   C39   A    
C8    C9    S    
C36   C40   A    
O10   C6    A    
N3    C63   S    
N1    H25   S    
C31   C51   A    
C47   C48   A    
C64   H38   S    
C47   C51   A    
C13   C26   A    
O34   H18   S    
C55   N3    S    
C41   C45   A    
O20   V2    S    
O2    C6    A    
C43   C47   A    
C13   C17   A    
C45   C46   A    
C21   O22   S    
C19   O28   S    
C37   C41   A    
C24   C28   A    
C25   C26   A    
C4    O14   A    
O28   H12   S    
C23   O24   S    
C12   C19   A    
O21   H5    S    
C3    C33   S    
C43   C55   A    
O4    V2    S    
C61   H26   S    
N1    C61   S    
