data_mof_unit_64071.cif
_audit_creation_date              2012-12-10T16:50:44-0500
_audit_creation_method            fapswitch 2.2
_symmetry_space_group_name_H-M    P1
_symmetry_Int_Tables_number       1
_space_group_crystal_system       triclinic
_cell_length_a                    18.806614
_cell_length_b                    18.928921
_cell_length_c                    18.939687
_cell_angle_alpha                 109.951944
_cell_angle_beta                  109.600759
_cell_angle_gamma                 109.769589
_cell_volume                      5131.17641562

loop_
_atom_site_label
_atom_site_type_symbol
_atom_type_description
_atom_site_fract_x
_atom_site_fract_y
_atom_site_fract_z
_atom_type_partial_charge
C1    C     C_R   0.382755 0.380420 0.501552 0.920280
C2    C     C_R   0.574141 0.350196 0.631031 -0.155905
C3    C     C_2   0.264258 0.259320 0.585719 0.126590
C4    C     C_R   0.620984 0.502394 0.619538 0.989020
C5    C     C_2   0.185136 0.197996 0.512808 -0.391910
C6    C     C_2   0.321025 0.330834 0.580630 -0.166287
C7    C     C_2   0.326571 0.312863 0.508699 -0.374148
C8    C     C_2   0.172928 0.493083 0.248679 -0.406671
C9    C     C_2   0.187411 0.514343 0.192213 0.385193
C10   C     C_2   0.244870 0.504998 0.322411 0.695199
C11   C     C_2   0.303671 0.485685 0.310476 -0.357907
C12   C     C_R   0.765588 0.580221 0.750076 -0.067951
C13   C     C_2   0.737432 0.746533 0.419226 0.604701
C14   C     C_2   0.815769 0.806199 0.491831 -0.581537
C15   C     C_2   0.675864 0.674136 0.418958 0.577523
C16   C     C_R   0.615946 0.619420 0.497324 1.121635
C17   C     C_2   0.673915 0.687547 0.492256 -0.555877
C18   C     C_R   0.996918 0.380732 0.876569 0.889213
C19   C     C_R   0.875930 0.498746 0.876938 0.868599
C20   C     C_R   0.000585 0.620307 0.119282 0.935505
C21   C     C_R   0.117560 0.503142 0.118972 0.845296
C22   C     C_R   0.989811 0.108032 0.617382 0.911487
C23   C     C_R   0.806212 0.499728 0.815286 -0.175497
C24   C     C_R   0.119580 0.122599 0.503981 0.931109
C25   C     C_R   0.993235 0.874596 0.381494 0.838846
C26   C     C_R   0.880665 0.878640 0.497381 0.997113
C27   C     C_2   0.906489 0.169357 0.666340 0.126117
C28   C     C_R   0.377221 0.496398 0.379600 0.953307
C29   C     C_2   0.976050 0.157791 0.683978 -0.420906
C30   C     C_2   0.915719 0.250898 0.730104 0.079292
C31   C     C_2   0.994600 0.317597 0.802708 -0.106683
C32   C     C_2   0.001799 0.739932 0.326488 -0.113004
C33   C     C_2   0.971217 0.792012 0.313253 0.387857
C34   C     C_R   0.723640 0.420927 0.750826 0.080580
C35   C     C_2   0.985794 0.670101 0.247750 0.688210
C36   C     C_2   0.020376 0.690098 0.200310 -0.195971
C37   C     C_R   0.791579 0.658467 0.746682 0.560865
C38   C     C_R   0.865941 0.738154 0.818210 0.064201
C39   C     C_R   0.914415 0.739487 0.893725 -0.252671
C40   C     C_R   0.893068 0.662113 0.894782 -0.166121
C41   C     C_R   0.822196 0.580608 0.820521 0.021460
C42   C     C_3   0.815318 0.093168 0.590577 -0.377049
C43   C     C_3   0.764164 0.045971 0.624437 -0.388313
C44   C     C_3   0.672560 0.970170 0.550196 -0.841056
C45   C     C_R   0.660301 0.424628 0.689273 0.054708
C46   C     C_3   0.844572 0.272661 0.697437 -0.431026
C47   C     C_3   0.853527 0.304035 0.634166 -0.356561
C48   C     C_3   0.783649 0.326258 0.599108 -0.830515
C49   C     C_3   0.077754 0.352659 0.796813 -0.435886
C50   C     C_3   0.157784 0.368240 0.872412 -0.334294
C51   C     C_3   0.236898 0.393465 0.860006 -0.842560
C52   C     C_3   0.058288 0.756601 0.416354 -0.490227
C53   C     C_3   0.079482 0.684512 0.414253 -0.292637
C54   C     C_3   0.136885 0.706024 0.506360 -0.833755
C55   C     C_3   0.091670 0.783292 0.234730 -0.474842
C56   C     C_R   0.684409 0.502078 0.686139 -0.182727
C57   C     C_3   0.061225 0.820639 0.177888 -0.275388
C58   C     C_3   0.130552 0.915461 0.217269 -0.892618
C59   C     C_3   0.889061 0.819239 0.810442 -0.342323
C60   C     C_3   0.971467 0.904064 0.890710 -0.399923
C61   C     C_3   0.989224 0.980436 0.874775 -0.860021
C62   C     C_3   0.294022 0.256267 0.669534 -0.355837
C63   C     C_3   0.381821 0.336844 0.747895 -0.401787
C64   C     C_3   0.409114 0.325818 0.827151 -0.820623
C65   C     C_R   0.701432 0.338157 0.744436 -0.149316
C66   C     C_R   0.617585 0.265181 0.684569 -0.157244
C67   C     C_R   0.553391 0.271694 0.629225 -0.134137
F1    F     F_    0.270521 0.557325 0.207745 -0.648887
F2    F     F_    0.247510 0.530603 0.400114 -0.650578
F3    F     F_    0.715967 0.748795 0.344211 -0.588233
F4    F     F_    0.619113 0.595603 0.343167 -0.595229
F5    F     F_    0.747289 0.658110 0.673206 -0.709883
F6    F     F_    0.911904 0.765022 0.230351 -0.649036
F7    F     F_    0.930791 0.585971 0.221456 -0.644211
H1    H     H_    0.487653 0.215490 0.583869 0.138732
H2    H     H_    0.969940 0.799505 0.952033 0.156916
H3    H     H_    0.931809 0.667466 0.955355 0.167393
H4    H     H_    0.746241 0.325799 0.783605 0.159755
H5    H     H_    0.602260 0.203405 0.681761 0.135860
H6    H     H_    0.521576 0.351514 0.586295 0.136825
H7    H     H_    0.634350 0.994594 0.517556 0.262910
H8    H     H_    0.677127 0.921436 0.501512 0.273349
H9    H     H_    0.637374 0.937423 0.576730 0.254299
H10   H     H_    0.800439 0.019796 0.656569 0.228506
H11   H     H_    0.757722 0.091930 0.673600 0.224037
H12   H     H_    0.163955 0.207163 0.457308 0.160286
H13   H     H_    0.778056 0.115825 0.554378 0.199728
H14   H     H_    0.818108 0.043277 0.541621 0.228272
H15   H     H_    0.717037 0.271376 0.571770 0.268871
H16   H     H_    0.796599 0.386294 0.652002 0.263014
H17   H     H_    0.786207 0.338929 0.546679 0.253666
H18   H     H_    0.919346 0.363344 0.668516 0.226840
H19   H     H_    0.848166 0.253146 0.578048 0.225922
H20   H     H_    0.778057 0.215775 0.665611 0.202130
H21   H     H_    0.850317 0.325577 0.751625 0.192925
H22   H     H_    0.221884 0.339760 0.799056 0.251800
H23   H     H_    0.359739 0.397264 0.635973 0.170310
H24   H     H_    0.254627 0.453937 0.856526 0.266879
H25   H     H_    0.293946 0.405554 0.915989 0.263536
H26   H     H_    0.175642 0.421932 0.935154 0.248363
H27   H     H_    0.142782 0.308953 0.877727 0.213557
H28   H     H_    0.092838 0.416040 0.799765 0.220630
H29   H     H_    0.068942 0.312096 0.732946 0.211980
H30   H     H_    0.200112 0.768293 0.541058 0.259656
H31   H     H_    0.102559 0.711965 0.543801 0.258333
H32   H     H_    0.151034 0.652899 0.502777 0.275179
H33   H     H_    0.017576 0.621254 0.380832 0.274095
H34   H     H_    0.294071 0.245662 0.456245 0.159210
H35   H     H_    0.114981 0.677419 0.378111 0.223739
H36   H     H_    0.121382 0.819186 0.451514 0.221166
H37   H     H_    0.023198 0.762348 0.453107 0.240724
H38   H     H_    0.142367 0.957072 0.282652 0.262603
H39   H     H_    0.193113 0.920229 0.223513 0.266520
H40   H     H_    0.107359 0.940166 0.174219 0.248524
H41   H     H_    0.048496 0.781784 0.111388 0.222304
H42   H     H_    0.999451 0.817967 0.171365 0.278248
H43   H     H_    0.115377 0.829387 0.303535 0.192039
H44   H     H_    0.150613 0.781854 0.235736 0.225604
H45   H     H_    0.108613 0.469575 0.242528 0.167775
H46   H     H_    0.000168 0.967106 0.818662 0.263339
H47   H     H_    0.932890 0.991411 0.861097 0.261311
H48   H     H_    0.048905 0.040813 0.933715 0.254580
H49   H     H_    0.962352 0.920197 0.948049 0.230929
H50   H     H_    0.029471 0.895682 0.905395 0.231012
H51   H     H_    0.898542 0.806312 0.753390 0.223908
H52   H     H_    0.832119 0.829375 0.796557 0.221998
H53   H     H_    0.358058 0.315496 0.845812 0.259864
H54   H     H_    0.419129 0.269092 0.812529 0.258609
H55   H     H_    0.471694 0.385593 0.883147 0.269419
H56   H     H_    0.294160 0.454906 0.245393 0.165390
H57   H     H_    0.434251 0.346744 0.731010 0.238975
H58   H     H_    0.375424 0.395826 0.765581 0.229860
H59   H     H_    0.242670 0.249359 0.687669 0.202742
H60   H     H_    0.301011 0.197840 0.656578 0.221960
H61   H     H_    0.836421 0.797912 0.547915 0.132966
H62   H     H_    0.711554 0.752913 0.549339 0.129055
H63   H     H_    0.029917 0.192505 0.750084 0.165182
O1    O     O_R   0.409870 0.358470 0.449260 -0.642797
O2    O     O_R   0.948030 0.090450 0.538510 -0.631330
O3    O     O_R   0.141850 0.090470 0.551380 -0.626639
O4    O     O_R   0.409230 0.460600 0.550770 -0.613580
O5    O     O_R   0.039050 0.090460 0.448590 -0.611472
O6    O     O_R   0.051970 0.909550 0.461490 -0.673096
O7    O     O_R   0.949170 0.909540 0.358700 -0.544685
O8    O     O_R   0.960950 0.909540 0.551410 -0.640224
O9    O     O_R   0.858150 0.909530 0.448620 -0.567863
O10   O     O_R   0.591360 0.448940 0.540280 -0.634888
O11   O     O_R   0.590720 0.551070 0.641790 -0.604742
O12   O     O_R   0.048480 0.460610 0.906920 -0.622155
O13   O     O_R   0.590770 0.539400 0.449230 -0.560790
O14   O     O_R   0.590130 0.641530 0.550740 -0.610067
O15   O     O_R   0.409280 0.448930 0.358210 -0.627136
O16   O     O_R   0.408640 0.551060 0.459720 -0.564986
O17   O     O_R   0.946350 0.358500 0.906960 -0.631255
O18   O     O_R   0.854760 0.448970 0.905840 -0.633342
O19   O     O_R   0.956890 0.551080 0.905790 -0.622592
O20   O     O_R   0.945260 0.539450 0.086770 -0.540608
O21   O     O_R   0.047380 0.641560 0.086730 -0.651132
O22   O     O_R   0.036850 0.448980 0.087900 -0.647927
O23   O     O_R   0.138970 0.551100 0.087860 -0.572210
O24   O     O_R   0.050830 0.090460 0.641300 -0.624827
Zn1   Zn    Zn3+2 0.500430 0.431810 0.432220 1.019544
Zn2   Zn    Zn3+2 0.499570 0.568190 0.567780 1.029285
Zn3   Zn    Zn3+2 0.928680 0.431850 0.996880 0.999554
Zn4   Zn    Zn3+2 0.065060 0.568210 0.996820 0.971672
Zn5   Zn    Zn3+2 0.068640 0.000010 0.568630 0.928155
Zn6   Zn    Zn3+2 0.931360 0.999990 0.431370 1.029878

loop_
_geom_bond_atom_site_label_1
_geom_bond_atom_site_label_2
_ccdc_geom_bond_type
O9    Zn6   S    
C35   F7    S    
C19   O19   A    
C22   C29   S    
C27   C29   D    
C19   O18   A    
C47   H18   S    
C35   C36   D    
C44   H9    S    
C49   C50   S    
C57   H41   S    
C53   C54   S    
C24   O3    A    
C59   H52   S    
C66   H5    S    
C62   C63   S    
O16   Zn2   S    
C58   H38   S    
C11   C28   S    
C62   H59   S    
C54   H30   S    
O17   Zn3   S    
C44   H8    S    
C2    H6    S    
C30   C31   D    
C13   F3    S    
C4    O11   A    
C61   H47   S    
C12   C37   A    
C26   O9    A    
C32   C52   S    
C1    C7    S    
O5    Zn6   S    
C46   H21   S    
C45   C56   A    
C24   O5    A    
C16   C17   S    
C64   H54   S    
C48   H17   S    
C58   H39   S    
C63   H57   S    
C18   O12   A    
O24   Zn5   S    
C18   O17   A    
C51   H22   S    
C23   C34   A    
C51   H24   S    
C66   C67   A    
C59   C60   S    
C48   H16   S    
C13   C14   D    
C4    C56   S    
C27   C30   S    
O3    Zn5   S    
C43   H10   S    
C21   O22   A    
C25   O6    A    
C31   C49   S    
C34   C65   A    
C57   H42   S    
O8    Zn5   S    
C2    C45   A    
C51   H25   S    
O13   Zn1   S    
C54   H32   S    
O7    Zn6   S    
C43   H11   S    
C6    H23   S    
O12   Zn4   S    
C2    C67   A    
C49   H28   S    
C22   O24   A    
C8    C9    D    
C52   H37   S    
C63   H58   S    
C4    O10   A    
C22   O2    A    
C63   C64   S    
C61   H48   S    
C26   O8    A    
C19   C23   S    
C43   C44   S    
C32   C35   S    
O6    Zn5   S    
C37   C38   A    
C44   H7    S    
C53   H33   S    
C47   C48   S    
C46   H20   S    
C13   C15   S    
C52   H36   S    
C64   H53   S    
C20   O21   A    
C17   H62   S    
C50   C51   S    
C47   H19   S    
O1    Zn1   S    
C34   C45   A    
C39   H2    S    
C14   C26   S    
O2    Zn6   S    
O20   Zn3   S    
C12   C56   A    
C5    H12   S    
C33   F6    S    
C40   C41   A    
O4    Zn2   S    
O14   Zn2   S    
C48   H15   S    
C55   C57   S    
C28   O16   A    
C21   O23   A    
C25   O7    A    
C42   H14   S    
C42   C43   S    
C11   H56   S    
C39   C40   A    
C15   F4    S    
C52   C53   S    
C12   C41   A    
C55   H43   S    
C3    C62   S    
C53   H35   S    
C15   C17   D    
C46   C47   S    
C65   H4    S    
C54   H31   S    
C7    H34   S    
O11   Zn2   S    
C30   C46   S    
C3    C6    S    
C3    C5    D    
O10   Zn1   S    
C49   H29   S    
C28   O15   A    
C6    C7    D    
C42   H13   S    
C60   H50   S    
O18   Zn3   S    
C59   H51   S    
C29   H63   S    
C50   H26   S    
C23   C41   A    
C20   O20   A    
C32   C33   D    
C62   H60   S    
O23   Zn4   S    
C9    F1    S    
C36   C55   S    
C27   C42   S    
C9    C21   S    
C57   C58   S    
C38   C39   A    
C5    C24   S    
O19   Zn4   S    
C16   O14   A    
C40   H3    S    
C1    O4    A    
C10   C11   D    
C38   C59   S    
C20   C36   S    
C10   F2    S    
C60   H49   S    
C67   H1    S    
C64   H55   S    
C8    H45   S    
C50   H27   S    
C8    C10   S    
C65   C66   A    
C14   H61   S    
C37   F5    S    
C58   H40   S    
O22   Zn3   S    
C60   C61   S    
C16   O13   A    
C18   C31   S    
O15   Zn1   S    
C1    O1    A    
O21   Zn4   S    
C25   C33   S    
C61   H46   S    
C55   H44   S    
