data_mof_unit_51953.cif
_audit_creation_date              2012-12-10T20:31:09-0500
_audit_creation_method            fapswitch 2.2
_symmetry_space_group_name_H-M    P1
_symmetry_Int_Tables_number       1
_space_group_crystal_system       triclinic
_cell_length_a                    14.977422
_cell_length_b                    10.703441
_cell_length_c                    9.860559
_cell_angle_alpha                 89.385566
_cell_angle_beta                  89.418574
_cell_angle_gamma                 90.702298
_cell_volume                      1580.45258939

loop_
_atom_site_label
_atom_site_type_symbol
_atom_type_description
_atom_site_fract_x
_atom_site_fract_y
_atom_site_fract_z
_atom_type_partial_charge
C1    C     C_R   0.501907 0.260052 0.500881 0.878861
C2    C     C_R   0.909908 0.594134 0.400221 0.021988
C3    C     C_R   0.951656 0.438856 0.737541 -0.039543
C4    C     C_R   0.044438 0.433566 0.733277 -0.232352
C5    C     C_R   0.091983 0.479663 0.620843 0.104467
C6    C     C_R   0.047848 0.537865 0.511762 0.072156
C7    C     C_R   0.097191 0.589557 0.400746 0.042066
C8    C     C_R   0.052889 0.653337 0.295473 -0.044131
C9    C     C_R   0.960016 0.654614 0.296661 -0.202612
C10   C     C_R   0.183688 0.467812 0.616192 -0.233581
C11   C     C_R   0.231448 0.511602 0.503445 -0.073449
C12   C     C_R   0.326753 0.500805 0.500778 0.887204
C13   C     C_R   0.189179 0.572130 0.396697 -0.202636
C14   C     C_R   0.492863 0.061563 0.623063 0.071229
C15   C     C_R   0.512014 0.128479 0.503885 -0.106415
C16   C     C_R   0.542288 0.066507 0.387774 -0.196905
C17   C     C_R   0.540423 0.937238 0.385951 -0.135800
C18   C     C_R   0.507244 0.871592 0.499605 -0.102908
C19   C     C_R   0.487200 0.934036 0.618766 0.037024
C20   C     C_3   0.405301 0.928071 0.708016 -0.092062
C21   C     C_3   0.415024 0.070691 0.719492 -0.289237
C22   C     C_R   0.443433 0.422478 0.072990 0.240401
C23   C     C_R   0.500351 0.739823 0.499330 0.917023
C24   C     C_R   0.559089 0.571130 0.070801 -0.116102
C25   C     C_R   0.559867 0.570711 0.926893 0.015208
C26   C     C_R   0.443198 0.423024 0.930406 0.223465
C27   C     C_3   0.343834 0.424277 0.926254 -0.513280
C28   C     C_3   0.343921 0.423671 0.079997 -0.477637
C29   C     C_R   0.673458 0.505956 0.499322 0.912277
C30   C     C_R   0.816170 0.587815 0.395734 -0.037430
C31   C     C_R   0.769642 0.522397 0.500075 -0.157384
C32   C     C_R   0.814374 0.473952 0.611767 -0.205802
C33   C     C_R   0.906295 0.485932 0.622513 0.038202
C34   C     C_R   0.954599 0.540224 0.511956 0.047621
H1    H     H_    0.560947 0.889505 0.294668 0.197071
H2    H     H_    0.358834 0.125876 0.677904 0.146460
H3    H     H_    0.603647 0.632139 0.125093 0.174114
H4    H     H_    0.317649 0.512322 0.881912 0.227949
H5    H     H_    0.315751 0.336922 0.883057 0.199843
H6    H     H_    0.317614 0.511335 0.123621 0.222183
H7    H     H_    0.776594 0.421927 0.687975 0.190439
H8    H     H_    0.315745 0.336130 0.125586 0.214733
H9    H     H_    0.080101 0.394487 0.818769 0.187707
H10   H     H_    0.217758 0.421610 0.698781 0.148609
H11   H     H_    0.228929 0.604779 0.311137 0.181952
H12   H     H_    0.927633 0.704866 0.215636 0.209094
H13   H     H_    0.563163 0.117359 0.297041 0.182617
N1    N     N_R   0.499390 0.499140 0.142800 -0.123007
N2    N     N_R   0.499390 0.499180 0.857150 -0.138389
O1    O     O_R   0.500010 0.316790 0.614690 -0.618255
O2    O     O_R   0.500000 0.316760 0.385350 -0.618465
O3    O     O_R   0.367850 0.499990 0.614680 -0.629880
O4    O     O_R   0.367840 0.499950 0.385340 -0.629570
O5    O     O_R   0.500000 0.683240 0.614650 -0.627484
O6    O     O_R   0.499990 0.683210 0.385310 -0.607129
O7    O     O_R   0.632160 0.500050 0.614660 -0.618544
O8    O     O_R   0.632150 0.500010 0.385320 -0.605236
Zn1   Zn    Zn3+2 0.500010 0.500020 0.653130 0.973562
Zn2   Zn    Zn3+2 0.499990 0.499980 0.346870 0.986529
C35   C     C_2   0.767637 0.651058 0.284392 0.892914
O9    O     O_2   0.714832 0.733821 0.310560 -0.654232
O10   O     O_R   0.783944 0.617194 0.149899 -0.761258
H14   H     H_    0.753748 0.674265 0.082314 0.341396
C36   C     C_1   0.324236 0.888641 0.635476 0.161570
N3    N     N_1   0.260711 0.857469 0.578463 -0.164446
C37   C     C_1   0.417674 0.854116 0.833467 0.237351
N4    N     N_1   0.426600 0.796735 0.932410 -0.207598
C38   C     C_1   0.445012 0.113927 0.853317 0.242949
N5    N     N_1   0.469039 0.145111 0.958971 -0.216547
C39   C     C_1   0.621545 0.652186 0.855205 0.276010
N6    N     N_1   0.671261 0.718177 0.798165 -0.176351
C40   C     C_2   0.905790 0.397019 0.864900 0.934972
O11   O     O_2   0.840534 0.452569 0.907410 -0.591073
O12   O     O_R   0.940246 0.297412 0.940041 -0.795342
H15   H     H_    0.904435 0.279043 0.025926 0.357282
C41   C     C_2   0.100090 0.720612 0.182680 0.899286
O13   O     O_2   0.165787 0.785870 0.205104 -0.622069
O14   O     O_R   0.066606 0.713456 0.051053 -0.784003
H16   H     H_    0.103696 0.763934 0.982980 0.352360

loop_
_geom_bond_atom_site_label_1
_geom_bond_atom_site_label_2
_ccdc_geom_bond_type
C22   N1    A    
O6    Zn2   S    
C19   C20   S    
O4    Zn2   S    
C7    C8    A    
C21   H2    S    
C26   C27   S    
N1    Zn2   S    
C14   C21   S    
C20   C37   S    
C41   O14   S    
C5    C6    A    
O8    Zn2   S    
C16   C17   A    
C3    C33   A    
C27   H4    S    
C15   C16   A    
C8    C41   S    
C35   O10   S    
C18   C19   A    
C38   N5    T    
C27   H5    S    
C8    C9    A    
C30   C35   S    
C32   H7    S    
C39   N6    T    
C1    C15   S    
C1    O1    A    
C12   O4    A    
C2    C34   A    
C37   N4    T    
C9    H12   S    
C22   C28   S    
C16   H13   S    
C12   O3    A    
C33   C34   A    
O12   H15   S    
C10   H10   S    
C18   C23   S    
C24   N1    A    
C41   O13   D    
C40   O12   S    
C26   N2    A    
O14   H16   S    
C4    C5    A    
N2    Zn1   S    
C6    C34   A    
C35   O9    D    
O1    Zn1   S    
C20   C36   S    
O10   H14   S    
C31   C32   A    
C17   C18   A    
C24   C25   A    
C1    O2    A    
O3    Zn1   S    
C4    H9    S    
C29   O8    A    
C21   C38   S    
O2    Zn2   S    
C3    C4    A    
C23   O5    A    
O5    Zn1   S    
C24   H3    S    
C14   C19   A    
C40   O11   D    
C11   C12   S    
C23   O6    A    
C6    C7    A    
C29   O7    A    
C2    C30   A    
C36   N3    T    
C3    C40   S    
C5    C10   A    
C29   C31   S    
C32   C33   A    
C13   H11   S    
C11   C13   A    
C30   C31   A    
C28   H8    S    
O7    Zn1   S    
C25   N2    A    
C10   C11   A    
C7    C13   A    
C20   C21   S    
C22   C26   A    
C27   C28   S    
C28   H6    S    
C14   C15   A    
C25   C39   S    
C17   H1    S    
C2    C9    A    
