data_mof_unit_67183.cif
_audit_creation_date              2012-12-11T17:48:54-0500
_audit_creation_method            fapswitch 2.2
_symmetry_space_group_name_H-M    P1
_symmetry_Int_Tables_number       1
_space_group_crystal_system       triclinic
_cell_length_a                    8.159064
_cell_length_b                    12.621965
_cell_length_c                    14.946761
_cell_angle_alpha                 96.262694
_cell_angle_beta                  97.259783
_cell_angle_gamma                 98.598643
_cell_volume                      1496.85866083

loop_
_atom_site_label
_atom_site_type_symbol
_atom_type_description
_atom_site_fract_x
_atom_site_fract_y
_atom_site_fract_z
_atom_type_partial_charge
Ba1   Ba    Ba6+2 0.843750 0.550210 0.455600 1.637412
Ba2   Ba    Ba6+2 0.346090 0.449880 0.544410 1.631540
C1    C     C_3   0.612293 0.950676 0.238121 -0.397013
C2    C     C_R   0.896093 0.436610 0.922914 -0.030353
C3    C     C_R   0.039074 0.458627 0.110112 -0.023430
C4    C     C_3   0.102537 0.800692 0.208752 0.395435
C5    C     C_R   0.882629 0.393542 0.077038 -0.049579
C6    C     C_R   0.810630 0.385455 0.986264 -0.106555
C7    C     C_R   0.107861 0.471834 0.203913 0.040813
C8    C     C_R   0.266386 0.535177 0.231728 -0.279951
C9    C     C_R   0.082059 0.530349 0.795231 0.042481
C10   C     C_R   0.147952 0.547476 0.889237 -0.049964
C11   C     C_R   0.057616 0.498398 0.953097 0.008429
C12   C     C_3   0.626994 0.843413 0.273781 0.353919
C13   C     C_R   0.296818 0.618283 0.921453 -0.026357
C14   C     C_R   0.354019 0.646258 0.014239 0.011183
C15   C     C_R   0.284039 0.582984 0.078100 -0.046944
C16   C     C_3   0.043806 0.829014 0.114553 -0.186491
C17   C     C_R   0.127685 0.512923 0.047308 0.008100
C18   C     C_R   0.359393 0.587319 0.170953 -0.038599
C19   C     C_R   0.923574 0.469092 0.767280 -0.301095
C20   C     C_R   0.775522 0.181001 0.532911 -0.276168
C21   C     C_R   0.421594 0.808802 0.464709 -0.289452
C22   C     C_R   0.391167 0.987145 0.430949 -0.098557
C23   C     C_3   0.416859 0.290537 0.266617 0.306537
C24   C     C_R   0.325067 0.878959 0.427097 -0.009551
C25   C     C_R   0.580768 0.847786 0.513255 0.058709
C26   C     C_R   0.648146 0.959554 0.521686 -0.065614
C27   C     C_R   0.551942 0.029367 0.478044 -0.063789
C28   C     C_3   0.266156 0.782063 0.652889 0.273437
C29   C     C_R   0.617543 0.140063 0.483985 0.040683
C30   C     C_R   0.873747 0.113080 0.573119 -0.012031
C31   C     C_R   0.808619 0.003717 0.570547 -0.093524
C32   C     C_3   0.281767 0.903800 0.672706 -0.345995
C33   C     C_3   0.938299 0.213810 0.346736 0.272923
C34   C     C_3   0.374061 0.261370 0.163943 -0.403871
C35   C     C_3   0.008543 0.109519 0.337178 -0.346992
C36   C     C_3   0.772666 0.693940 0.729753 0.330597
C37   C     C_3   0.763601 0.713350 0.831345 -0.209563
C38   C     C_3   0.879857 0.815696 0.877633 -0.410687
C39   C     C_3   0.464849 0.754948 0.042701 -0.200494
C40   C     C_3   0.430836 0.844149 0.983948 -0.461127
C41   C     C_3   0.106488 0.947069 0.104882 -0.410015
C42   C     C_3   0.116259 0.226199 0.796207 0.368915
C43   C     C_3   0.152866 0.198935 0.892692 -0.370827
C44   C     C_3   0.602906 0.165193 0.755495 0.349629
C45   C     C_3   0.666884 0.083568 0.812946 -0.429656
C46   C     C_R   0.826083 0.427570 0.829920 -0.014892
H1    H     H_    0.723364 0.857624 0.334873 0.106590
H2    H     H_    0.902012 0.687070 0.718857 0.006611
H3    H     H_    0.688041 0.616819 0.702222 0.047838
H4    H     H_    0.636481 0.017027 0.295504 0.084751
H5    H     H_    0.797125 0.643695 0.864623 0.058584
H6    H     H_    0.632942 0.720417 0.840578 0.116704
H7    H     H_    0.504573 0.812605 0.294210 -0.070235
H8    H     H_    0.484282 0.948992 0.203075 0.098734
H9    H     H_    0.304430 0.312470 0.293775 0.010669
H10   H     H_    0.519418 0.361214 0.281041 0.072126
H11   H     H_    0.266330 0.193970 0.147193 0.120687
H12   H     H_    0.377044 0.934100 0.733102 0.113866
H13   H     H_    0.340293 0.332237 0.132385 0.061078
H14   H     H_    0.483676 0.236436 0.135279 0.124020
H15   H     H_    0.701219 0.967371 0.189026 0.139583
H16   H     H_    0.089058 0.775404 0.062489 0.061898
H17   H     H_    0.198185 0.303288 0.791241 0.094276
H18   H     H_    0.983251 0.236739 0.783342 -0.072341
H19   H     H_    0.287246 0.192500 0.909177 0.152352
H20   H     H_    0.123209 0.263348 0.941846 0.069630
H21   H     H_    0.075741 0.120783 0.899637 0.104743
H22   H     H_    0.707217 0.200144 0.720880 -0.052293
H23   H     H_    0.320159 0.942345 0.613951 0.084624
H24   H     H_    0.500353 0.122785 0.701925 0.081905
H25   H     H_    0.709322 0.019593 0.768775 0.088866
H26   H     H_    0.566368 0.046123 0.848748 0.130427
H27   H     H_    0.055143 0.713440 0.209228 0.037135
H28   H     H_    0.773431 0.124630 0.864694 0.111409
H29   H     H_    0.811876 0.348372 0.120751 0.101725
H30   H     H_    0.688486 0.336362 0.966154 0.103031
H31   H     H_    0.362843 0.660981 0.875054 0.104742
H32   H     H_    0.321746 0.539984 0.302019 0.073186
H33   H     H_    0.871081 0.459521 0.696138 0.073238
H34   H     H_    0.159697 0.925545 0.686567 0.141265
H35   H     H_    0.313175 0.037292 0.398568 0.093560
H36   H     H_    0.886054 0.954818 0.605772 0.102501
H37   H     H_    0.825605 0.265919 0.536102 0.063917
H38   H     H_    0.241331 0.815154 0.221121 -0.091169
H39   H     H_    0.368567 0.724221 0.460468 0.070472
H40   H     H_    0.904892 0.813662 0.101957 0.139985
H41   H     H_    0.385977 0.761406 0.635986 0.012753
H42   H     H_    0.165214 0.753410 0.594494 0.076362
H43   H     H_    0.012514 0.804184 0.879991 0.128479
H44   H     H_    0.860172 0.886263 0.841821 0.161225
H45   H     H_    0.803903 0.194998 0.352021 -0.003736
H46   H     H_    0.851183 0.833212 0.947514 0.114053
H47   H     H_    0.483714 0.833954 0.919436 0.139081
H48   H     H_    0.294581 0.845129 0.968599 0.144770
H49   H     H_    0.492268 0.924035 0.021180 0.131715
H50   H     H_    0.435534 0.785314 0.109669 0.125672
H51   H     H_    0.597836 0.744918 0.043862 0.144889
H52   H     H_    0.056005 0.002198 0.153224 0.155163
H53   H     H_    0.244920 0.964914 0.117327 0.125841
H54   H     H_    0.064963 0.963754 0.035037 0.111968
H55   H     H_    0.005124 0.262417 0.410663 0.069828
H56   H     H_    0.930894 0.051391 0.282430 0.124413
H57   H     H_    0.011934 0.074248 0.401870 0.109997
H58   H     H_    0.135993 0.125247 0.318373 0.132512
O1    O     O_2   0.827880 0.435260 0.277750 -0.464926
O2    O     O_2   0.215666 0.119258 0.568754 -0.484309
O3    O     O_3   0.148622 0.142220 0.734577 -0.601078
O4    O     O_3   0.100280 0.438960 0.391170 -0.496641
O5    O     O_3   0.587780 0.631850 0.546230 -0.486830
O6    O     O_2   0.332590 0.233690 0.456160 -0.468660
O7    O     O_3   0.466622 0.201417 0.304615 -0.650885
O8    O     O_2   0.484928 0.440832 0.826400 -0.492939
O9    O     O_3   0.539083 0.241480 0.811563 -0.597511
O10   O     O_3   0.625580 0.634130 0.333250 -0.471667
O11   O     O_2   0.703781 0.567781 0.174499 -0.477007
O12   O     O_3   0.724438 0.781872 0.689658 -0.648038
O13   O     O_3   0.954582 0.262520 0.267754 -0.641482
O14   O     O_3   0.675444 0.771674 0.206835 -0.602065
O15   O     O_2   0.857130 0.766340 0.543890 -0.472559
O16   O     O_3   0.056550 0.691050 0.379010 -0.476517
O17   O     O_2   0.994645 0.882264 0.443951 -0.497467
O18   O     O_3   0.038108 0.864234 0.274454 -0.596198
O19   O     O_2   0.361830 0.564780 0.722310 -0.470414
O20   O     O_3   0.089430 0.561130 0.608830 -0.497067
O21   O     O_3   0.564130 0.365960 0.666760 -0.467190
O22   O     O_3   0.230893 0.737577 0.731140 -0.646878
O23   O     O_3   0.601940 0.368240 0.453770 -0.475390
O24   O     O_3   0.133170 0.309040 0.621000 -0.482670
P1    P     P_3+3 0.998730 0.403530 0.291970 0.971684
P2    P     P_3+3 0.687380 0.751030 0.571310 0.965000
P3    P     P_3+3 0.105322 0.830107 0.381553 0.944462
P4    P     P_3+3 0.190990 0.596560 0.708040 0.962370
P5    P     P_3+3 0.091575 0.169599 0.623504 0.949247
P6    P     P_3+3 0.587340 0.639007 0.216877 0.944899
P7    P     P_3+3 0.507625 0.233613 0.423129 0.931080
P8    P     P_3+3 0.604296 0.371232 0.785032 0.950368

loop_
_geom_bond_atom_site_label_1
_geom_bond_atom_site_label_2
_ccdc_geom_bond_type
O19   P4    D    
C6    H30   S    
O3    P5    S    
C39   C40   S    
C42   H18   S    
O24   P5    S    
C4    O18   S    
C2    C6    A    
Ba1   P2    S    
Ba2   O23   S    
O10   P6    S    
C5    C6    A    
C3    C7    A    
Ba2   O6    S    
Ba2   P4    S    
C20   C30   A    
O18   P3    S    
O17   P3    D    
C40   H48   S    
C26   C27   A    
C33   C35   S    
C22   H35   S    
C22   C24   A    
C45   H28   S    
C33   H55   S    
C36   C37   S    
C20   H37   S    
C37   H6    S    
C13   C14   A    
C15   C18   A    
Ba1   Ba2   S    
C21   C24   A    
C2    C11   A    
Ba1   O16   S    
C15   C17   A    
C22   C27   A    
C33   O13   S    
C13   H31   S    
C8    C18   A    
C14   C15   A    
C43   H19   S    
O13   P1    S    
C39   H51   S    
Ba1   O10   S    
C21   C25   A    
C29   P7    S    
C7    C8    A    
C44   H24   S    
C28   H42   S    
C5    H29   S    
C19   C46   A    
Ba2   O21   S    
C34   H11   S    
C33   H45   S    
C12   H7    S    
C21   H39   S    
C32   H12   S    
C25   P2    S    
C42   H17   S    
C23   H9    S    
C28   H41   S    
C34   H14   S    
C7    P1    S    
C4    C16   S    
C28   O22   S    
Ba2   O5    S    
C20   C29   A    
C28   C32   S    
C43   H21   S    
C40   H47   S    
C4    H27   S    
Ba1   O20   S    
C45   H25   S    
O2    P5    D    
O1    P1    D    
C40   H49   S    
C37   C38   S    
C3    C5    A    
C8    H32   S    
C11   C17   A    
C36   H3    S    
C16   H40   S    
C9    C19   A    
C38   H44   S    
O14   P6    S    
C36   O12   S    
C41   H53   S    
O16   P3    S    
C35   H57   S    
C41   H52   S    
O22   P4    S    
Ba1   O4    S    
C30   P5    S    
C1    H8    S    
C10   C13   A    
C9    C10   A    
C43   H20   S    
O4    P1    S    
C18   P6    S    
C1    C12   S    
Ba1   O1    S    
C36   H2    S    
C23   O7    S    
C44   O9    S    
O21   P8    S    
C19   H33   S    
C26   C31   A    
C12   O14   S    
O7    P7    S    
C9    P4    S    
C23   H10   S    
O15   P2    D    
C34   H13   S    
Ba2   O20   S    
C42   C43   S    
C2    C46   A    
C44   C45   S    
Ba2   O4    S    
O6    P7    D    
C45   H26   S    
C38   H46   S    
Ba1   P1    S    
C35   H56   S    
C1    H4    S    
C3    C17   A    
C1    H15   S    
O9    P8    S    
Ba1   O23   S    
C4    H38   S    
C46   P8    S    
C30   C31   A    
C41   H54   S    
C35   H58   S    
C27   C29   A    
C24   P3    S    
C16   C41   S    
C42   O3    S    
C16   H16   S    
C37   H5    S    
C32   H23   S    
Ba2   O24   S    
O8    P8    D    
C38   H43   S    
C31   H36   S    
Ba1   O15   S    
C44   H22   S    
O12   P2    S    
C23   C34   S    
C12   H1    S    
Ba2   O19   S    
O5    P2    S    
O23   P7    S    
C10   C11   A    
O20   P4    S    
C25   C26   A    
C39   H50   S    
C32   H34   S    
O11   P6    D    
C14   C39   S    
Ba1   O5    S    
