data_mof_unit_41263.cif
_audit_creation_date              2013-03-05T16:07:56-0500
_audit_creation_method            fapswitch 2.2
_symmetry_space_group_name_H-M    P1
_symmetry_Int_Tables_number       1
_space_group_crystal_system       triclinic
_cell_length_a                    6.944629
_cell_length_b                    14.605415
_cell_length_c                    15.961613
_cell_angle_alpha                 90.227316
_cell_angle_beta                  89.943386
_cell_angle_gamma                 90.089088
_cell_volume                      1618.95797565

loop_
_atom_site_label
_atom_site_type_symbol
_atom_site_description
_atom_site_fract_x
_atom_site_fract_y
_atom_site_fract_z
_atom_type_partial_charge
O1    O     O_R   0.494380 0.415640 0.412830 -0.599974
O2    O     O_R   0.823960 0.405540 0.586560 -0.586025
O3    O     O_R   0.994270 0.584360 0.587170 -0.563875
C1    C     C_R   0.655046 0.383497 0.615006 1.017435
O4    O     O_R   0.824090 0.404620 0.413450 -0.610147
O5    O     O_R   0.994400 0.583430 0.412820 -0.586480
C2    C     C_R   0.655243 0.382394 0.384498 0.923677
O6    O     O_R   0.494250 0.416570 0.587180 -0.610778
O7    O     O_3   0.660800 0.558670 0.500000 -0.253311
V1    V     V_3+5 0.935650 0.489120 0.500000 1.200387
O8    O     O_R   0.324110 0.594460 0.413440 -0.600391
C3    C     C_R   0.155128 0.616239 0.384353 0.972508
O9    O     O_R   0.323980 0.595380 0.586550 -0.595334
C4    C     C_R   0.155282 0.614951 0.617522 0.988806
V2    V     V_3+5 0.435660 0.510880 0.500000 1.187073
O10   O     O_3   0.160640 0.441330 0.500000 -0.291933
C5    C     C_3   0.969719 0.660551 0.749918 0.162968
H1    H     H_    0.835166 0.660906 0.712276 0.111949
C6    C     C_3   0.946643 0.737056 0.818414 0.155355
H2    H     H_    0.816245 0.777420 0.801579 0.067078
H3    H     H_    0.978383 0.895032 0.724492 0.248862
C7    C     C_3   0.120860 0.782885 0.654769 0.192613
C8    C     C_3   0.332132 0.684094 0.742060 -0.367778
C9    C     C_3   0.142984 0.683330 0.689574 -0.291536
H4    H     H_    0.454867 0.706630 0.702219 0.197168
H5    H     H_    0.371118 0.614379 0.763523 0.218466
C10   C     C_3   0.121399 0.805433 0.814673 -0.212458
C11   C     C_3   0.112101 0.853743 0.728110 -0.452853
C12   C     C_3   0.314355 0.750556 0.817623 -0.262858
H6    H     H_    0.326071 0.711388 0.876791 0.239639
H7    H     H_    0.439021 0.798482 0.816247 0.170528
H8    H     H_    0.253047 0.798485 0.617687 0.121372
H9    H     H_    0.234388 0.902702 0.722224 0.196068
C13   C     C_R   0.272253 0.815989 0.240379 0.151245
C14   C     C_R   0.118281 0.815704 0.183654 -0.226422
C15   C     C_R   0.967055 0.753553 0.198876 -0.092039
H10   H     H_    0.844971 0.750815 0.157037 0.158944
C16   C     C_R   0.978225 0.689798 0.264778 -0.144543
H11   H     H_    0.863759 0.640155 0.271885 0.132429
C17   C     C_R   0.141322 0.685972 0.317249 -0.216226
C18   C     C_R   0.283747 0.752653 0.305349 0.226263
C19   C     C_3   0.495234 0.741168 0.293824 -0.476235
C20   C     C_3   0.482842 0.810528 0.223355 -0.463680
H12   H     H_    0.532570 0.671129 0.271824 0.188070
H13   H     H_    0.578471 0.766301 0.348764 0.226646
H14   H     H_    0.513786 0.780978 0.160494 0.212285
H15   H     H_    0.558178 0.875942 0.237697 0.193261
C21   C     C_R   0.523593 0.325232 0.751318 0.221871
C22   C     C_R   0.648063 0.315644 0.683150 -0.235039
C23   C     C_R   0.775892 0.241166 0.683863 -0.261208
H16   H     H_    0.877718 0.232838 0.632905 0.164136
C24   C     C_R   0.764911 0.172916 0.746312 0.387302
C25   C     C_R   0.627454 0.180850 0.812526 -0.382084
C26   C     C_R   0.515171 0.260577 0.814777 0.127803
C27   C     C_3   0.302936 0.273192 0.824869 -0.411502
C28   C     C_3   0.312782 0.343237 0.754694 -0.432633
H17   H     H_    0.265174 0.303823 0.886581 0.207212
H18   H     H_    0.219894 0.211129 0.807659 0.241658
H19   H     H_    0.281315 0.414053 0.775733 0.242319
H20   H     H_    0.236451 0.321031 0.696833 0.200515
C29   C     C_R   0.493525 0.316002 0.256667 0.173741
C30   C     C_R   0.647281 0.316479 0.313498 -0.223699
C31   C     C_R   0.798512 0.254363 0.298328 -0.141650
H21   H     H_    0.920542 0.252206 0.340186 0.141790
C32   C     C_R   0.787468 0.189905 0.232479 -0.145203
H22   H     H_    0.901867 0.140322 0.225488 0.132504
C33   C     C_R   0.624546 0.185326 0.179926 -0.224552
C34   C     C_R   0.482157 0.251970 0.191753 0.184512
C35   C     C_3   0.270628 0.240376 0.203173 -0.473783
C36   C     C_3   0.282891 0.310496 0.273544 -0.460463
H23   H     H_    0.233152 0.170520 0.225252 0.188581
H24   H     H_    0.187616 0.264838 0.148146 0.204641
H25   H     H_    0.251714 0.281577 0.336428 0.196601
H26   H     H_    0.207738 0.375682 0.259051 0.192817
O11   O     O_R   0.771490 0.080820 0.910070 -0.555193
O12   O     O_R   0.441590 0.092730 0.083780 -0.603284
O13   O     O_R   0.271350 0.913900 0.084390 -0.601219
C37   C     C_R   0.610674 0.114826 0.112878 0.926687
O14   O     O_R   0.441780 0.091820 0.910670 -0.584311
O15   O     O_R   0.271540 0.912980 0.910040 -0.599297
C38   C     C_R   0.611238 0.111883 0.880275 0.997650
O16   O     O_R   0.771300 0.081740 0.084420 -0.605090
O17   O     O_3   0.604960 0.938700 0.997240 -0.279100
V3    V     V_3+5 0.330090 0.008230 0.997220 1.194056
O18   O     O_R   0.941820 0.901930 0.910640 -0.582831
C39   C     C_R   0.111087 0.877843 0.883379 1.076851
O19   O     O_R   0.941630 0.902840 0.083750 -0.600161
C40   C     C_R   0.110365 0.880894 0.112677 0.977781
V4    V     V_3+5 0.830090 0.986410 0.997190 1.215246
O20   O     O_3   0.105080 0.055990 0.997200 -0.267001
N1    N     N_R   0.986201 0.568191 0.785943 0.246912
O21   O     O_R   0.863018 0.505173 0.764451 -0.419154
O22   O     O_R   0.110540 0.550165 0.844535 -0.376421
N2    N     N_R   0.876659 0.091419 0.734544 0.212055
O23   O     O_R   0.014745 0.071824 0.786332 -0.445166
O24   O     O_R   0.871715 0.049985 0.662265 -0.401150
N3    N     N_R   0.907727 0.699155 0.902180 0.267916
O25   O     O_R   0.742288 0.660217 0.916556 -0.371104
O26   O     O_R   0.031171 0.705961 0.963215 -0.418453
N4    N     N_R   0.955356 0.792259 0.598088 0.250214
O27   O     O_R   0.779971 0.795924 0.626714 -0.426933
O28   O     O_R   0.984611 0.803382 0.518237 -0.401905

loop_
_geom_bond_atom_site_label_1
_geom_bond_atom_site_label_2
_geom_bond_distance
_ccdc_geom_bond_type
C29   C36   1.489220 S    
O19   C40   1.300940 A    
C31   C32   1.410308 A    
C10   C12   1.563335 S    
C18   C19   1.489645 S    
C14   C15   1.408636 A    
C5    N1    1.473161 S    
O15   V3    2.005253 S    
O12   V3    2.004310 S    
N3    O25   1.301751 A    
C6    N3    1.473719 S    
O18   C39   1.301517 A    
C21   C26   1.388667 A    
C33   C37   1.485266 S    
C12   H6    1.109227 S    
O16   V4    2.007269 S    
V3    O20   1.712228 S    
C8    C12   1.550162 S    
C15   H10   1.080364 S    
O12   C37   1.302834 A    
O5    C3    1.296545 A    
C16   H11   1.081274 S    
V2    O10   2.161849 S    
C25   C38   1.484841 S    
C13   C14   1.401791 A    
C8    H5    1.109609 S    
C4    C9    1.522599 S    
C35   H23   1.111198 S    
O15   C39   1.297503 A    
O8    V2    2.004407 S    
C6    H2    1.114983 S    
O13   C40   1.298144 A    
C34   C35   1.489552 S    
C32   C33   1.410480 A    
C36   H26   1.111702 S    
C23   C24   1.414409 A    
C8    C9    1.558669 S    
C24   N2    1.433579 S    
O1    V2    2.005602 S    
C6    C10   1.571732 S    
O7    V1    2.163597 S    
C1    O6    1.296886 A    
C7    C11   1.560643 S    
O9    C4    1.302843 A    
C35   C36   1.519390 S    
C13   C18   1.394817 A    
C19   H12   1.111197 S    
C36   H25   1.111486 S    
N3    O26   1.301727 A    
C23   H16   1.083860 S    
O17   V4    1.710713 S    
C5    C9    1.576467 S    
C7    N4    1.470310 S    
C33   C34   1.400731 A    
N1    O21   1.300872 A    
O4    C2    1.300991 A    
O18   V4    2.005069 S    
O11   C38   1.294158 A    
O13   V3    2.003198 S    
C25   C26   1.402755 A    
C28   H20   1.112293 S    
C19   H13   1.111615 S    
C3    C17   1.484226 S    
C10   C39   1.522212 S    
O2    C1    1.297993 A    
C2    C30   1.485089 S    
C30   C31   1.409057 A    
N1    O22   1.301465 A    
C14   C40   1.483883 S    
C37   O16   1.297338 A    
O17   V3    2.163582 S    
C27   C28   1.521403 S    
N4    O28   1.301225 A    
C5    H1    1.111442 S    
N2    O23   1.299649 A    
N2    O24   1.301108 A    
O3    C4    1.297092 A    
C7    H8    1.115475 S    
C21   C22   1.395714 A    
H3    C11   1.109716 S    
C11   H9    1.113481 S    
C32   H22   1.081220 S    
O6    V2    2.004326 S    
C27   H17   1.111544 S    
C7    C9    1.566444 S    
C19   C20   1.519316 S    
O2    V1    2.002255 S    
C35   H24   1.111561 S    
C24   C25   1.427957 A    
O14   C38   1.305788 A    
C21   C28   1.488720 S    
C26   C27   1.494116 S    
C17   C18   1.400345 A    
O1    C2    1.298927 A    
C13   C20   1.489430 S    
O5    V1    2.003124 S    
O8    C3    1.302792 A    
C28   H19   1.108198 S    
C1    C22   1.475067 S    
O9    V2    2.005111 S    
O7    V2    1.711249 S    
O4    V1    2.004361 S    
C12   H7    1.112746 S    
O3    V1    2.005140 S    
V1    O10   1.712279 S    
C16   C17   1.410631 A    
C29   C34   1.395223 A    
O14   V3    2.002235 S    
C15   C16   1.409882 A    
N4    O27   1.301545 A    
C5    C6    1.568478 S    
C8    H4    1.113093 S    
C29   C30   1.401750 A    
C20   H14   1.111572 S    
O11   V4    2.004682 S    
C31   H21   1.080236 S    
C22   C23   1.405192 A    
C27   H18   1.107430 S    
C10   C11   1.555359 S    
O19   V4    2.004289 S    
V4    O20   2.161869 S    
C20   H15   1.111695 S    
