data_mof_unit_37353.cif
_audit_creation_date              2012-10-26T19:46:28-0400
_audit_creation_method            fapswitch 2.2
_symmetry_space_group_name_H-M    P1
_symmetry_Int_Tables_number       1
_space_group_crystal_system       triclinic
_cell_length_a                    10.855195
_cell_length_b                    9.660324
_cell_length_c                    15.173148
_cell_angle_alpha                 89.999669
_cell_angle_beta                  94.385242
_cell_angle_gamma                 89.999968
_cell_volume                      1586.46956716

loop_
_atom_site_label
_atom_site_type_symbol
_atom_type_description
_atom_site_fract_x
_atom_site_fract_y
_atom_site_fract_z
_atom_type_partial_charge
C1    C     C_R   0.262630 0.500417 0.501754 0.529737
C2    C     C_R   0.935998 0.628118 0.498945 -0.148482
C3    C     C_R   0.936319 0.377757 0.495015 -0.144393
C4    C     C_R   0.064002 0.628117 0.501053 -0.148484
C5    C     C_R   0.453521 0.596158 0.089137 -0.108589
C6    C     C_R   0.443506 0.374288 0.900667 -0.122623
C7    C     C_R   0.546474 0.596159 0.910862 -0.108587
C8    C     C_R   0.556492 0.374289 0.099334 -0.122622
C9    C     C_R   0.464263 0.608165 0.180426 0.215832
C10   C     C_R   0.437065 0.382186 0.807647 0.233443
C11   C     C_R   0.535733 0.608165 0.819574 0.215830
C12   C     C_R   0.737370 0.500417 0.498246 0.529737
C13   C     C_R   0.562933 0.382187 0.192353 0.233440
C14   C     C_R   0.510596 0.497187 0.233182 0.034889
C15   C     C_R   0.489402 0.497186 0.766818 0.034886
C16   C     C_R   0.499407 0.479926 0.048171 -0.055123
C17   C     C_R   0.500589 0.479926 0.951829 -0.055122
C18   C     C_R   0.871334 0.502261 0.496503 0.023075
C19   C     C_R   0.128666 0.502261 0.503496 0.023075
C20   C     C_3   0.218479 0.139958 0.385890 -0.088063
C21   C     C_3   0.729843 0.828693 0.651305 -0.069217
C22   C     C_3   0.781520 0.139958 0.614110 -0.088059
C23   C     C_R   0.504242 0.499792 0.330211 0.566576
C24   C     C_3   0.270156 0.828696 0.348696 -0.069220
C25   C     C_3   0.537503 0.817993 0.222827 -0.124854
C26   C     C_3   0.397219 0.155191 0.771274 -0.105680
C27   C     C_3   0.462484 0.817986 0.777163 -0.124855
C28   C     C_3   0.602773 0.155193 0.228733 -0.105681
C29   C     C_R   0.495758 0.499791 0.669789 0.566572
C30   C     C_R   0.412978 0.075380 0.448646 0.337037
C31   C     C_R   0.594687 0.926511 0.543840 0.324830
C32   C     C_R   0.587022 0.075378 0.551354 0.337039
C33   C     C_R   0.405313 0.926512 0.456160 0.324827
C34   C     C_R   0.063681 0.377757 0.504986 -0.144393
Cu1   Cu    Cu3+1 0.500000 0.640660 0.500000 1.013109
Cu2   Cu    Cu3+1 0.500000 0.359340 0.500000 1.070272
H1    H     H_    0.180867 0.245805 0.376311 0.140646
H2    H     H_    0.295581 0.719557 0.338494 0.207765
H3    H     H_    0.315460 0.899542 0.303408 0.159227
H4    H     H_    0.169254 0.834505 0.330955 0.093958
H5    H     H_    0.413799 0.681281 0.049994 0.130417
H6    H     H_    0.398697 0.290596 0.933243 0.118631
H7    H     H_    0.586195 0.681282 0.950004 0.130419
H8    H     H_    0.601300 0.290598 0.066758 0.118634
H9    H     H_    0.523756 0.898080 0.273086 0.122626
H10   H     H_    0.547618 0.868981 0.158130 0.102119
H11   H     H_    0.624674 0.762972 0.245392 0.127985
H12   H     H_    0.189137 0.096654 0.448984 0.126018
H13   H     H_    0.499242 0.141246 0.772112 0.142551
H14   H     H_    0.353892 0.092277 0.716176 0.133499
H15   H     H_    0.361764 0.115892 0.833267 0.090825
H16   H     H_    0.476243 0.898086 0.726914 0.122624
H17   H     H_    0.452346 0.868960 0.841861 0.102116
H18   H     H_    0.375324 0.762962 0.754580 0.127998
H19   H     H_    0.500751 0.141253 0.227902 0.142559
H20   H     H_    0.646106 0.092279 0.283829 0.133498
H21   H     H_    0.638217 0.115889 0.166738 0.090821
H22   H     H_    0.110746 0.280138 0.513335 0.117532
H23   H     H_    0.175837 0.080187 0.329321 0.110258
H24   H     H_    0.888312 0.726391 0.498422 0.175615
H25   H     H_    0.889254 0.280139 0.486665 0.117532
H26   H     H_    0.111688 0.726391 0.501576 0.175616
H27   H     H_    0.704417 0.719554 0.661507 0.207763
H28   H     H_    0.684539 0.899538 0.696593 0.159232
H29   H     H_    0.830745 0.834501 0.669047 0.093957
H30   H     H_    0.819130 0.245805 0.623690 0.140645
H31   H     H_    0.810862 0.096657 0.551015 0.126016
H32   H     H_    0.824164 0.080183 0.670677 0.110259
N1    N     N_R   0.500000 0.852070 0.500000 -0.250850
N2    N     N_R   0.500000 0.147930 0.500000 -0.245038
O1    O     O_R   0.319640 0.618740 0.499990 -0.476132
O2    O     O_3   0.708183 0.863355 0.561453 -0.589405
O3    O     O_3   0.652550 0.146702 0.619188 -0.558319
O4    O     O_3   0.291817 0.863356 0.438548 -0.589405
O5    O     O_3   0.432565 0.731497 0.217323 -0.600343
O6    O     O_3   0.361823 0.293497 0.755871 -0.549867
O7    O     O_3   0.567429 0.731498 0.782676 -0.600343
O8    O     O_3   0.638176 0.293499 0.244129 -0.549868
O9    O     O_R   0.680360 0.381260 0.500010 -0.491082
O10   O     O_R   0.680360 0.618740 0.500010 -0.476131
O11   O     O_R   0.319640 0.381260 0.499990 -0.491080
O12   O     O_R   0.499990 0.618780 0.371460 -0.494769
O13   O     O_R   0.500010 0.381220 0.628540 -0.431894
O14   O     O_R   0.500010 0.618780 0.628540 -0.494774
O15   O     O_R   0.499990 0.381220 0.371460 -0.431897
O16   O     O_3   0.347449 0.146706 0.380812 -0.558322

loop_
_geom_bond_atom_site_label_1
_geom_bond_atom_site_label_2
_ccdc_geom_bond_type
C8    C13   A    
C23   O12   A    
C2    C18   A    
Cu1   Cu2   S    
C28   H20   S    
C27   H18   S    
C28   H21   S    
C7    C11   A    
C1    O1    A    
C29   O13   A    
C10   C15   A    
C26   H14   S    
C2    H24   S    
Cu2   O13   S    
C1    O11   A    
C12   O9    A    
C4    H26   S    
Cu1   O10   S    
C24   H3    S    
C3    C18   A    
C22   H30   S    
C21   H28   S    
C11   O7    S    
C4    C19   A    
C11   C15   A    
Cu1   O12   S    
C16   C17   S    
C5    C16   A    
C20   O16   S    
C26   O6    S    
C7    H7    S    
C30   O16   S    
C28   O8    S    
C25   H11   S    
C33   N1    A    
Cu1   O1    S    
C8    C16   A    
C13   C14   A    
C10   O6    S    
C30   N2    A    
C28   H19   S    
Cu2   N2    S    
C15   C29   S    
C3    H25   S    
C1    C19   S    
C21   O2    S    
C29   O14   A    
C26   H13   S    
C32   O3    S    
C32   N2    A    
C3    C34   A    
C7    C17   A    
Cu2   O9    S    
C25   O5    S    
C14   C23   S    
C2    C4    A    
C9    C14   A    
C5    C9    A    
C24   H2    S    
C31   C32   A    
Cu2   O11   S    
C20   H23   S    
C22   H32   S    
C20   H12   S    
C31   O2    S    
C6    H6    S    
C25   H9    S    
C27   H16   S    
C6    C17   A    
C5    H5    S    
C13   O8    S    
C30   C33   A    
C21   H29   S    
C8    H8    S    
C27   O7    S    
C19   C34   A    
C6    C10   A    
Cu1   O14   S    
C27   H17   S    
Cu2   O15   S    
C26   H15   S    
C20   H1    S    
C24   O4    S    
C12   O10   A    
C24   H4    S    
C22   H31   S    
C21   H27   S    
C33   O4    S    
C31   N1    A    
Cu1   N1    S    
C23   O15   A    
C12   C18   S    
C34   H22   S    
C9    O5    S    
C22   O3    S    
C25   H10   S    
