data_mof_unit_15122.cif
_audit_creation_date              2012-12-10T18:05:41-0500
_audit_creation_method            fapswitch 2.2
_symmetry_space_group_name_H-M    P1
_symmetry_Int_Tables_number       1
_space_group_crystal_system       triclinic
_cell_length_a                    10.887198
_cell_length_b                    10.791499
_cell_length_c                    9.552101
_cell_angle_alpha                 89.897271
_cell_angle_beta                  90.951679
_cell_angle_gamma                 90.43263
_cell_volume                      1122.0802175

loop_
_atom_site_label
_atom_site_type_symbol
_atom_type_description
_atom_site_fract_x
_atom_site_fract_y
_atom_site_fract_z
_atom_type_partial_charge
C1    C     C_R   0.503684 0.262468 0.500178 0.799946
C2    C     C_R   0.496319 0.737532 0.499822 0.799960
C3    C     C_R   0.871717 0.497954 0.504053 -0.083391
C4    C     C_R   0.128282 0.502046 0.495947 -0.083396
C5    C     C_R   0.941428 0.473755 0.626945 -0.002050
C6    C     C_R   0.058572 0.526246 0.373055 -0.002051
C7    C     C_R   0.576312 0.061658 0.403501 0.411185
C8    C     C_R   0.423702 0.938341 0.596504 0.411165
C9    C     C_R   0.566657 0.933579 0.402037 -0.221733
C10   C     C_R   0.433354 0.066420 0.597966 -0.221738
C11   C     C_R   0.493262 0.871439 0.498895 -0.214520
C12   C     C_R   0.506746 0.128561 0.501105 -0.214524
C13   C     C_R   0.460358 0.398648 0.073592 -0.003016
C14   C     C_R   0.539641 0.601352 0.926408 -0.003006
C15   C     C_R   0.460493 0.398641 0.925237 -0.024908
C16   C     C_R   0.539506 0.601359 0.074763 -0.024908
C17   C     C_R   0.262246 0.501395 0.498505 0.782302
C18   C     C_R   0.737754 0.498605 0.501494 0.782298
C19   C     C_R   0.201785 0.696193 0.069676 -0.130328
C20   C     C_R   0.798216 0.303807 0.930325 -0.130329
C21   C     C_R   0.152640 0.672411 0.201482 -0.132074
C22   C     C_R   0.847361 0.327589 0.798519 -0.132073
C23   C     C_R   0.113063 0.552286 0.235866 0.132912
C24   C     C_R   0.886937 0.447714 0.764134 0.132909
C25   C     C_R   0.122990 0.456516 0.137959 -0.111439
C26   C     C_R   0.877009 0.543484 0.862041 -0.111440
C27   C     C_R   0.172890 0.480418 0.007075 -0.145029
C28   C     C_R   0.827108 0.519582 0.992925 -0.145027
C29   C     C_R   0.211558 0.600319 0.972340 -0.101069
C30   C     C_R   0.788441 0.399681 0.027660 -0.101070
C31   C     C_R   0.931577 0.523842 0.379018 -0.240162
C32   C     C_R   0.068423 0.476159 0.620982 -0.240165
Cu1   Cu    Cu3+1 0.500000 0.500020 0.640660 0.944322
Cu2   Cu    Cu3+1 0.500000 0.499980 0.359340 0.944312
H1    H     H_    0.250059 0.618760 0.870638 0.158919
H2    H     H_    0.749939 0.381240 0.129362 0.158914
H3    H     H_    0.427306 0.317558 0.869761 0.122772
H4    H     H_    0.572694 0.682442 0.130239 0.122772
H5    H     H_    0.232459 0.788775 0.043049 0.147824
H6    H     H_    0.767544 0.211225 0.956952 0.147824
H7    H     H_    0.145217 0.747090 0.276396 0.119215
H8    H     H_    0.854785 0.252910 0.723605 0.119220
H9    H     H_    0.092755 0.363436 0.163443 0.125375
H10   H     H_    0.907243 0.636564 0.836556 0.125374
H11   H     H_    0.182814 0.405168 0.933769 0.118562
H12   H     H_    0.817183 0.594831 0.066230 0.118562
H13   H     H_    0.879247 0.544002 0.284990 0.155345
H14   H     H_    0.120753 0.455999 0.715010 0.155345
H15   H     H_    0.621147 0.881977 0.328450 0.171301
H16   H     H_    0.378866 0.118021 0.671556 0.171301
H17   H     H_    0.427056 0.317568 0.128048 0.137048
H18   H     H_    0.572943 0.682432 0.871952 0.137055
N1    N     N_R   0.500030 0.500030 0.852070 -0.161577
N2    N     N_R   0.499970 0.499970 0.147930 -0.161576
O1    O     O_R   0.499990 0.319660 0.618740 -0.586944
O2    O     O_R   0.500010 0.680340 0.381260 -0.586951
O3    O     O_R   0.499990 0.319630 0.381170 -0.580850
O4    O     O_R   0.500010 0.680370 0.618830 -0.580824
O5    O     O_R   0.319650 0.500020 0.618780 -0.601894
O6    O     O_R   0.680350 0.499980 0.381220 -0.601899
O7    O     O_R   0.319640 0.500000 0.381210 -0.563027
O8    O     O_R   0.680360 0.500000 0.618790 -0.563030
O9    O     O_3   0.656725 0.116444 0.311293 -0.742008
H19   H     H_    0.683698 0.197733 0.349028 0.319000
O10   O     O_3   0.343302 0.883551 0.688723 -0.742011
H20   H     H_    0.316290 0.802289 0.650960 0.318999

loop_
_geom_bond_atom_site_label_1
_geom_bond_atom_site_label_2
_ccdc_geom_bond_type
Cu1   O1    S    
Cu2   O3    S    
C3    C31   A    
C16   H4    S    
C2    O4    A    
Cu2   O2    S    
Cu1   O4    S    
C14   C16   A    
C1    O3    A    
C27   C29   A    
C32   H14   S    
C29   H1    S    
C26   C28   A    
C13   C15   A    
C30   H2    S    
O10   H20   S    
C5    C32   A    
C7    O9    S    
C25   H9    S    
C28   C30   A    
C6    C31   A    
C1    O1    A    
C26   H10   S    
C8    O10   S    
Cu1   O5    S    
C10   H16   S    
C31   H13   S    
C23   C25   A    
Cu2   O6    S    
C9    C11   A    
Cu2   N2    S    
C28   H12   S    
C22   H8    S    
C1    C12   S    
C19   H5    S    
C17   O5    A    
C8    C11   A    
C21   H7    S    
C2    C11   S    
C15   N1    A    
C18   O6    A    
C19   C21   A    
C20   C22   A    
Cu1   Cu2   S    
C22   C24   A    
C21   C23   A    
Cu1   N1    S    
C7    C12   A    
C10   C12   A    
C16   N2    A    
C4    C6    A    
C25   C27   A    
C27   H11   S    
C6    C23   S    
O9    H19   S    
C19   C29   A    
C14   N1    A    
C9    H15   S    
C18   O8    A    
C3    C18   S    
C8    C10   A    
C13   N2    A    
Cu2   O7    S    
C15   H3    S    
C4    C32   A    
C7    C9    A    
C5    C24   S    
C20   C30   A    
C17   O7    A    
C13   H17   S    
C20   H6    S    
C2    O2    A    
C14   H18   S    
C24   C26   A    
Cu1   O8    S    
C3    C5    A    
C4    C17   S    
