data_mof_unit_20937.cif
_audit_creation_date              2013-03-05T16:47:30-0500
_audit_creation_method            fapswitch 2.2
_symmetry_space_group_name_H-M    P1
_symmetry_Int_Tables_number       1
_space_group_crystal_system       triclinic
_cell_length_a                    10.922069
_cell_length_b                    10.917044
_cell_length_c                    9.818799
_cell_angle_alpha                 99.043743
_cell_angle_beta                  98.331029
_cell_angle_gamma                 93.354138
_cell_volume                      1140.04131935

loop_
_atom_site_label
_atom_site_type_symbol
_atom_site_description
_atom_site_fract_x
_atom_site_fract_y
_atom_site_fract_z
_atom_type_partial_charge
O1    O     O_R   0.517830 0.337490 0.617920 -0.550544
O2    O     O_R   0.482170 0.662510 0.382080 -0.550545
O3    O     O_R   0.482150 0.301790 0.382070 -0.586604
O4    O     O_R   0.517850 0.698210 0.617930 -0.586605
C1    C     C_R   0.501220 0.261983 0.498979 0.843832
C2    C     C_R   0.498776 0.738017 0.501021 0.843832
O5    O     O_R   0.337480 0.517860 0.617920 -0.595661
O6    O     O_R   0.662520 0.482140 0.382080 -0.595660
O7    O     O_R   0.301810 0.482160 0.382070 -0.569698
O8    O     O_R   0.698190 0.517840 0.617930 -0.569694
C3    C     C_R   0.262097 0.501881 0.499505 0.834552
C4    C     C_R   0.737903 0.498118 0.500495 0.834553
Cu1   Cu    Cu3+1 0.521120 0.521140 0.639640 0.988815
Cu2   Cu    Cu3+1 0.478880 0.478860 0.360360 0.988811
H1    H     H_    0.174297 0.395491 0.859271 0.212993
H2    H     H_    0.825719 0.604539 0.140740 0.212999
C5    C     C_R   0.176122 0.528227 0.045152 -0.306265
C6    C     C_R   0.823887 0.471794 0.954864 -0.306290
H3    H     H_    0.226587 0.600924 0.007354 0.176824
H4    H     H_    0.773425 0.399099 0.992672 0.176823
C7    C     C_R   0.140130 0.551630 0.176928 0.727468
C8    C     C_R   0.859872 0.448384 0.823084 0.727476
C9    C     C_R   0.078205 0.456032 0.228235 -0.059152
C10   C     C_R   0.921795 0.543978 0.771767 -0.059155
C11   C     C_R   0.045859 0.339895 0.141995 -0.330183
C12   C     C_R   0.954146 0.660118 0.858000 -0.330186
H5    H     H_    0.994625 0.267706 0.179866 0.207603
H6    H     H_    0.005379 0.732304 0.820122 0.207604
C13   C     C_R   0.077215 0.317673 0.006849 0.406856
C14   C     C_R   0.922795 0.682348 0.993148 0.406865
C15   C     C_R   0.146043 0.411651 0.961169 -0.330529
C16   C     C_R   0.853969 0.588374 0.038839 -0.330514
C17   C     C_R   0.915683 0.472023 0.376123 -0.229755
C18   C     C_R   0.084316 0.527976 0.623877 -0.229742
H7    H     H_    0.850659 0.449401 0.279678 0.152157
H8    H     H_    0.149340 0.550601 0.720322 0.152155
C19   C     C_R   0.872130 0.496042 0.503655 -0.045909
C20   C     C_R   0.127869 0.503957 0.496345 -0.045905
C21   C     C_R   0.957973 0.522049 0.630281 0.107434
C22   C     C_R   0.042026 0.477952 0.369720 0.107428
C23   C     C_R   0.294125 0.074030 0.020567 -0.163957
C24   C     C_R   0.705865 0.925987 0.979437 -0.163970
H9    H     H_    0.202483 0.047679 0.961827 0.240322
H10   H     H_    0.797508 0.952343 0.038177 0.240308
C25   C     C_R   0.322980 0.044437 0.154072 -0.240300
C26   C     C_R   0.677007 0.955575 0.845930 -0.240318
H11   H     H_    0.252121 0.997827 0.198741 0.229893
H12   H     H_    0.747865 0.002187 0.801260 0.229883
C27   C     C_R   0.443099 0.074200 0.229411 0.108527
C28   C     C_R   0.556888 0.925802 0.770591 0.108540
C29   C     C_R   0.534857 0.131211 0.167704 -0.123464
C30   C     C_R   0.465132 0.868785 0.832297 -0.123465
H13   H     H_    0.628896 0.152031 0.223023 0.165482
H14   H     H_    0.371094 0.847956 0.776977 0.165479
C31   C     C_R   0.504549 0.163819 0.035462 -0.256832
C32   C     C_R   0.495444 0.836182 0.964542 -0.256833
H15   H     H_    0.574758 0.210118 0.989656 0.159352
H16   H     H_    0.425238 0.789877 0.010349 0.159349
C33   C     C_R   0.383794 0.136030 0.962356 0.603522
C34   C     C_R   0.616198 0.863982 0.037649 0.603541
C35   C     C_R   0.468536 0.914047 0.376981 -0.096733
C36   C     C_R   0.531450 0.085954 0.623020 -0.096744
H17   H     H_    0.443505 0.847863 0.280854 0.197066
H18   H     H_    0.556481 0.152138 0.719147 0.197070
C37   C     C_R   0.497046 0.872271 0.504289 -0.097673
C38   C     C_R   0.502943 0.127729 0.495712 -0.097673
C39   C     C_R   0.526992 0.959802 0.629930 0.018120
C40   C     C_R   0.472994 0.040199 0.370071 0.018121
H19   H     H_    0.417371 0.419447 0.865299 0.206951
H20   H     H_    0.582635 0.580547 0.134701 0.206941
N1    N     N_2   0.447120 0.447110 0.150550 -0.291250
N2    N     N_2   0.552880 0.552890 0.849450 -0.291250
C41   C     C_2   0.510950 0.510232 0.078882 -0.081313
C42   C     C_2   0.489053 0.489765 0.921118 -0.081311
H21   H     H_    0.620422 0.618907 0.904747 0.217356
H22   H     H_    0.379577 0.381095 0.095252 0.217358
F1    F     F_    0.168446 0.666167 0.256119 -0.648615
F2    F     F_    0.831552 0.333843 0.743901 -0.648604
N3    N     N_R   0.034654 0.202623 0.914389 0.143917
O9    O     O_R   0.061448 0.182871 0.788248 -0.289189
O10   O     O_R   0.964002 0.118787 0.953307 -0.373343
N4    N     N_R   0.965361 0.797401 0.085600 0.143919
O11   O     O_R   0.938550 0.817173 0.211733 -0.289203
O12   O     O_R   0.036032 0.881220 0.046683 -0.373355
F3    F     F_    0.353794 0.167548 0.834328 -0.682055
F4    F     F_    0.646202 0.832467 0.165679 -0.682052

loop_
_geom_bond_atom_site_label_1
_geom_bond_atom_site_label_2
_geom_bond_distance
_ccdc_geom_bond_type
C38   C40   1.420520 A    
C27   C40   1.482077 S    
C31   C33   1.398979 A    
Cu2   N1    2.009670 S    
O5    C3    1.304686 A    
C36   C39   1.387864 A    
O1    C1    1.301829 A    
C10   C12   1.404540 A    
C24   C26   1.395485 A    
N1    H22   1.028160 S    
C9    C22   1.486251 S    
O4    Cu1   1.979629 S    
C10   C21   1.486260 S    
C41   C42   1.511386 S    
C4    C19   1.463442 S    
C35   H17   1.084140 S    
C36   H18   1.084145 S    
C5    H3    1.082622 S    
C2    C37   1.462246 S    
C37   C39   1.420522 A    
C28   C30   1.407273 A    
C14   C16   1.403940 A    
C28   C39   1.482078 S    
C18   H8    1.083140 S    
C6    C8    1.396135 A    
Cu1   Cu2   2.675084 S    
C23   H9    1.078939 S    
O2    C2    1.301833 A    
C24   H10   1.078958 S    
N2    H21   1.028165 S    
C30   H14   1.083437 S    
C25   H11   1.082907 S    
C11   C13   1.406127 A    
C26   H12   1.082923 S    
C17   C22   1.388636 A    
C36   C38   1.396610 A    
C18   C21   1.388636 A    
C23   C33   1.396513 A    
N2    C42   1.301714 D    
C24   C34   1.396523 A    
N3    O10   1.300733 A    
C34   F4    1.354931 S    
C29   C31   1.398875 A    
C27   C29   1.407259 A    
C17   C19   1.395368 A    
C32   C34   1.398990 A    
C29   H13   1.083431 S    
C14   N4    1.438314 S    
C3    C20   1.463449 S    
O7    Cu2   1.977925 S    
C33   F3    1.354933 S    
C13   N3    1.438316 S    
C25   C27   1.402607 A    
O6    C4    1.304685 A    
H20   C41   1.084306 S    
H19   C42   1.084303 S    
O7    C3    1.281354 A    
C8    F2    1.357642 S    
O3    Cu2   1.979629 S    
O8    C4    1.281353 A    
O4    C2    1.283766 A    
C12   C14   1.406130 A    
N4    O12   1.300725 A    
C31   H15   1.082518 S    
C11   H5    1.083191 S    
C5    C15   1.396507 A    
C8    C10   1.407803 A    
O1    Cu1   1.980250 S    
N1    C41   1.301718 D    
O6    Cu2   1.983670 S    
C18   C20   1.395368 A    
C1    C38   1.462237 S    
O3    C1    1.283767 A    
O8    Cu1   1.977925 S    
H1    C15   1.080623 S    
Cu1   N2    2.009670 S    
H2    C16   1.080628 S    
C26   C28   1.402618 A    
C12   H6    1.083198 S    
C7    C9    1.407791 A    
C19   C21   1.423230 A    
C20   C22   1.423228 A    
C35   C40   1.387863 A    
C17   H7    1.083141 S    
C32   H16   1.082525 S    
C6    H4    1.082641 S    
C9    C11   1.404535 A    
O2    Cu2   1.980250 S    
C5    C7    1.396129 A    
N3    O9    1.301771 A    
C35   C37   1.396615 A    
O5    Cu1   1.983671 S    
C6    C16   1.396514 A    
C13   C15   1.403928 A    
N4    O11   1.301770 A    
C7    F1    1.357631 S    
C23   C25   1.395487 A    
C30   C32   1.398878 A    
