data_mof_unit_9420.cif
_audit_creation_date              2012-12-11T14:30:00-0500
_audit_creation_method            fapswitch 2.2
_symmetry_space_group_name_H-M    P1
_symmetry_Int_Tables_number       1
_space_group_crystal_system       triclinic
_cell_length_a                    12.669956
_cell_length_b                    12.67638
_cell_length_c                    26.986886
_cell_angle_alpha                 90.355373
_cell_angle_beta                  89.964487
_cell_angle_gamma                 119.956286
_cell_volume                      3755.21466073

loop_
_atom_site_label
_atom_site_type_symbol
_atom_type_description
_atom_site_fract_x
_atom_site_fract_y
_atom_site_fract_z
_atom_type_partial_charge
C1    C     C_R   0.558377 0.456084 0.822486 0.549117
C2    C     C_R   0.899361 0.442145 0.678094 0.559648
C3    C     C_R   0.543713 0.101594 0.822351 0.558670
C4    C     C_R   0.556258 0.456433 0.678312 0.541190
C5    C     C_R   0.900121 0.443902 0.821708 0.548361
C6    C     C_R   0.543853 0.102068 0.677644 0.553865
C7    C     C_R   0.455812 0.559045 0.322617 0.550290
C8    C     C_R   0.444280 0.901818 0.178701 0.550647
C9    C     C_R   0.102357 0.544618 0.322280 0.554502
C10   C     C_R   0.456859 0.555960 0.178378 0.543097
C11   C     C_R   0.442926 0.899652 0.321839 0.557202
C12   C     C_R   0.101612 0.543306 0.177721 0.563451
C13   C     C_R   0.006393 0.510594 0.972119 0.025684
C14   C     C_R   0.511634 0.015629 0.524496 0.022522
C15   C     C_R   0.501487 0.487322 0.975700 0.021290
C16   C     C_R   0.003678 0.503260 0.526815 0.022946
C17   C     C_R   0.511787 0.015659 0.976015 0.023714
C18   C     C_R   0.487772 0.498917 0.528402 0.025573
C19   C     C_R   0.507375 0.005662 0.472539 0.024126
C20   C     C_R   0.016330 0.512917 0.024145 0.021538
C21   C     C_R   0.484258 0.505600 0.476409 0.022081
C22   C     C_R   0.508114 0.006798 0.028192 0.025879
C23   C     C_R   0.015238 0.511014 0.474947 0.022455
C24   C     C_R   0.496728 0.490338 0.027799 0.025337
C25   C     C_R   0.961039 0.675051 0.976596 -0.129875
C26   C     C_R   0.698339 0.005859 0.525181 -0.135441
C27   C     C_R   0.310854 0.295032 0.974864 -0.133023
C28   C     C_R   0.050552 0.713695 0.530729 -0.136316
C29   C     C_R   0.695536 0.001418 0.975287 -0.133352
C30   C     C_R   0.304999 0.299775 0.525825 -0.134352
C31   C     C_R   0.693243 0.994378 0.473652 -0.134974
C32   C     C_R   0.968987 0.676158 0.028141 -0.134092
C33   C     C_R   0.299449 0.307915 0.474385 -0.131947
C34   C     C_R   0.696118 0.000420 0.026980 -0.133200
C35   C     C_R   0.060469 0.720950 0.479253 -0.130851
C36   C     C_R   0.304462 0.299866 0.026449 -0.137387
C37   C     C_R   0.959585 0.582838 0.896442 0.260790
C38   C     C_R   0.613699 0.031596 0.603128 0.255905
C39   C     C_R   0.418530 0.382947 0.896935 0.258175
C40   C     C_R   0.991146 0.589426 0.606424 0.255546
C41   C     C_R   0.610621 0.026223 0.896656 0.259057
C42   C     C_R   0.411718 0.383486 0.604810 0.261143
C43   C     C_R   0.586306 0.972568 0.395214 0.257027
C44   C     C_R   0.016273 0.602493 0.104889 0.265558
C45   C     C_R   0.385187 0.419500 0.397011 0.261868
C46   C     C_R   0.592063 0.984121 0.106482 0.264165
C47   C     C_R   0.054147 0.627061 0.398914 0.259488
C48   C     C_R   0.386247 0.409664 0.105116 0.258496
C49   C     C_R   0.050171 0.523157 0.127190 0.012232
C50   C     C_R   0.482486 0.960910 0.370371 -0.007353
C51   C     C_R   0.478795 0.513013 0.130366 -0.005167
C52   C     C_R   0.049005 0.528061 0.372075 -0.006858
C53   C     C_R   0.485671 0.966864 0.130812 0.015070
C54   C     C_R   0.473856 0.526803 0.373208 -0.007419
C55   C     C_R   0.524496 0.048932 0.627499 -0.006728
C56   C     C_R   0.963154 0.487882 0.869781 -0.005174
C57   C     C_R   0.513224 0.477556 0.630427 -0.004638
C58   C     C_R   0.524072 0.048293 0.872668 0.006249
C59   C     C_R   0.957066 0.476270 0.628815 0.002863
C60   C     C_R   0.522951 0.475044 0.872546 -0.008366
C61   C     C_R   0.977758 0.591579 0.948124 0.029049
C62   C     C_R   0.607996 0.016530 0.551188 0.031253
C63   C     C_R   0.408961 0.388350 0.948899 0.032351
C64   C     C_R   0.016564 0.603543 0.555009 0.023862
C65   C     C_R   0.606136 0.013016 0.948995 0.025886
C66   C     C_R   0.399821 0.393967 0.553314 0.030171
C67   C     C_R   0.597229 0.992432 0.446856 0.031590
C68   C     C_R   0.999440 0.597436 0.052707 0.024079
C69   C     C_R   0.389460 0.409842 0.449009 0.029736
C70   C     C_R   0.600779 0.998950 0.054221 0.027454
C71   C     C_R   0.041679 0.619819 0.450807 0.027226
C72   C     C_R   0.395886 0.398201 0.053429 0.032322
C73   C     C_R   0.006842 0.418928 0.893128 -0.201848
C74   C     C_R   0.424047 0.037016 0.600715 -0.158583
C75   C     C_R   0.607501 0.578300 0.899356 -0.155413
C76   C     C_R   0.959841 0.383584 0.600957 -0.180689
C77   C     C_R   0.425827 0.040375 0.899954 -0.174713
C78   C     C_R   0.588100 0.587847 0.606336 -0.201368
C79   C     C_R   0.402130 0.988172 0.395611 -0.173630
C80   C     C_R   0.055270 0.432978 0.098439 -0.163283
C81   C     C_R   0.572011 0.616604 0.400819 -0.176450
C82   C     C_R   0.404211 0.991624 0.105319 -0.187842
C83   C     C_R   0.015395 0.418267 0.396331 -0.175155
C84   C     C_R   0.587414 0.590261 0.105540 -0.180116
C85   C     C_R   0.023179 0.425578 0.944218 0.001892
C86   C     C_R   0.418909 0.024467 0.549632 0.006104
C87   C     C_R   0.599295 0.583663 0.950571 0.007681
C88   C     C_R   0.979168 0.394689 0.550348 -0.001134
C89   C     C_R   0.419598 0.025464 0.950980 0.001254
C90   C     C_R   0.580618 0.596974 0.555347 0.001086
C91   C     C_R   0.411838 0.007205 0.446429 0.005403
C92   C     C_R   0.040732 0.428522 0.047498 0.001306
C93   C     C_R   0.576213 0.608385 0.451967 0.001212
C94   C     C_R   0.412272 0.007798 0.054332 0.001664
C95   C     C_R   0.000798 0.409700 0.447371 0.004923
C96   C     C_R   0.593032 0.586211 0.054204 0.007137
C97   C     C_R   0.054122 0.342577 0.019512 -0.104454
C98   C     C_R   0.322524 0.020007 0.471829 -0.120599
C99   C     C_R   0.689794 0.681305 0.028765 -0.118640
C100  C     C_R   0.978484 0.303069 0.471459 -0.112854
C101  C     C_R   0.321402 0.017708 0.028860 -0.121700
C102  C     C_R   0.668853 0.704412 0.479165 -0.109928
C103  C     C_R   0.324913 0.026539 0.523218 -0.112202
C104  C     C_R   0.047094 0.342108 0.968141 -0.123616
C105  C     C_R   0.669786 0.699792 0.530600 -0.123275
C106  C     C_R   0.324539 0.025462 0.977490 -0.109493
C107  C     C_R   0.968942 0.296094 0.522731 -0.113386
C108  C     C_R   0.691147 0.681600 0.977230 -0.106900
Cr1   Cr    Cr6+3 0.487630 0.241180 0.750000 1.057249
Cr2   Cr    Cr6+3 0.753550 0.512370 0.750000 1.036581
Cr3   Cr    Cr6+3 0.758820 0.246450 0.750000 1.027675
Cr4   Cr    Cr6+3 0.241180 0.487630 0.250000 1.062180
Cr5   Cr    Cr6+3 0.512370 0.753550 0.250000 1.030521
Cr6   Cr    Cr6+3 0.246450 0.758820 0.250000 1.027360
H1    H     H_    0.951917 0.739919 0.048275 0.130647
H2    H     H_    0.764391 0.986106 0.454952 0.136873
H3    H     H_    0.227343 0.226368 0.045074 0.132945
H4    H     H_    0.083495 0.806422 0.461853 0.147488
H5    H     H_    0.770454 0.997289 0.044896 0.128817
H6    H     H_    0.224778 0.233557 0.454585 0.143898
H7    H     H_    0.773223 0.006004 0.544538 0.136248
H8    H     H_    0.940289 0.739097 0.959142 0.141137
H9    H     H_    0.234998 0.219029 0.543910 0.139056
H10   H     H_    0.766993 0.994543 0.956517 0.132036
H11   H     H_    0.069044 0.794798 0.551134 0.140776
H12   H     H_    0.238227 0.218092 0.955410 0.136295
H13   H     H_    0.078982 0.370014 0.115191 0.185199
H14   H     H_    0.324665 0.983803 0.376570 0.157378
H15   H     H_    0.663661 0.662109 0.125582 0.131242
H16   H     H_    0.009252 0.341349 0.375972 0.146841
H17   H     H_    0.328734 0.990074 0.124741 0.108742
H18   H     H_    0.641556 0.698524 0.383068 0.169503
H19   H     H_    0.353601 0.047552 0.619019 0.179096
H20   H     H_    0.016771 0.351199 0.872209 0.106578
H21   H     H_    0.660483 0.663485 0.626489 0.109230
H22   H     H_    0.356859 0.053696 0.881988 0.167582
H23   H     H_    0.936910 0.297273 0.617782 0.170679
H24   H     H_    0.686245 0.650915 0.881001 0.178072
H25   H     H_    0.069767 0.275521 0.037471 0.115359
H26   H     H_    0.249085 0.021854 0.452016 0.097081
H27   H     H_    0.762505 0.757302 0.048680 0.084848
H28   H     H_    0.969598 0.225543 0.450706 0.101506
H29   H     H_    0.246769 0.017487 0.048607 0.084801
H30   H     H_    0.740201 0.783469 0.460621 0.105089
H31   H     H_    0.253639 0.033945 0.542320 0.106748
H32   H     H_    0.056925 0.274257 0.947256 0.088370
H33   H     H_    0.742269 0.775124 0.550916 0.087147
H34   H     H_    0.252715 0.031852 0.958447 0.102976
H35   H     H_    0.951992 0.213012 0.540783 0.107256
H36   H     H_    0.765093 0.757516 0.958192 0.104273
O1    O     O_R   0.460870 0.120930 0.805240 -0.514333
O2    O     O_R   0.660060 0.539130 0.694760 -0.553646
O3    O     O_R   0.879070 0.339940 0.805240 -0.559006
O4    O     O_R   0.460870 0.120930 0.694760 -0.511497
O5    O     O_R   0.660060 0.539130 0.805240 -0.507003
O6    O     O_R   0.879070 0.339940 0.694760 -0.521468
O7    O     O_R   0.120930 0.460870 0.305240 -0.513088
O8    O     O_R   0.539130 0.660060 0.194760 -0.554967
O9    O     O_R   0.339940 0.879070 0.305240 -0.512214
O10   O     O_R   0.120930 0.460870 0.194760 -0.512985
O11   O     O_R   0.539130 0.660060 0.305240 -0.517245
O12   O     O_R   0.339940 0.879070 0.194760 -0.554460
O13   O     O_R   0.498910 0.350470 0.801870 -0.455785
O14   O     O_R   0.851560 0.501090 0.698130 -0.473158
O15   O     O_R   0.649530 0.148440 0.801870 -0.477585
O16   O     O_R   0.498910 0.350470 0.698130 -0.450880
O17   O     O_R   0.851560 0.501090 0.801870 -0.442853
O18   O     O_R   0.649530 0.148440 0.698130 -0.450769
O19   O     O_R   0.350470 0.498910 0.301870 -0.451175
O20   O     O_R   0.501090 0.851560 0.198130 -0.478904
O21   O     O_R   0.148440 0.649530 0.301870 -0.448121
O22   O     O_R   0.350470 0.498910 0.198130 -0.452166
O23   O     O_R   0.501090 0.851560 0.301870 -0.448073
O24   O     O_R   0.148440 0.649530 0.198130 -0.479325
O25   O     O_3   0.666667 0.333333 0.750000 -0.259381
O26   O     O_3   0.333333 0.666667 0.250000 -0.258855
O27   O     O_3   0.989595 0.675612 0.134758 -0.568355
C109  C     C_3   0.080539 0.799396 0.130622 -0.116715
H37   H     H_    0.036806 0.853679 0.121004 0.094057
H38   H     H_    0.151778 0.817649 0.102405 0.105544
H39   H     H_    0.124849 0.832917 0.167180 0.172030
O28   O     O_3   0.669989 0.952025 0.370392 -0.565897
C110  C     C_3   0.756866 0.062245 0.348464 -0.122775
H40   H     H_    0.826179 0.047326 0.329600 0.138542
H41   H     H_    0.804958 0.135076 0.376833 0.099749
H42   H     H_    0.714316 0.092507 0.319988 0.121282
O29   O     O_3   0.281628 0.326653 0.129527 -0.569013
C111  C     C_3   0.304839 0.240808 0.152629 -0.124948
H43   H     H_    0.331236 0.192415 0.125087 0.105576
H44   H     H_    0.220083 0.171599 0.170921 0.127748
H45   H     H_    0.376331 0.284352 0.181749 0.118721
O30   O     O_3   0.083929 0.735160 0.375476 -0.556831
C112  C     C_3   0.975268 0.727948 0.358507 -0.122988
H46   H     H_    0.998447 0.814733 0.339981 0.133242
H47   H     H_    0.912882 0.715807 0.389793 0.101960
H48   H     H_    0.928136 0.653291 0.330778 0.120293
O31   O     O_3   0.691203 0.001397 0.134581 -0.567570
C113  C     C_3   0.703938 0.897103 0.133048 -0.094148
H49   H     H_    0.791714 0.919662 0.115395 0.089603
H50   H     H_    0.628194 0.818033 0.113448 0.119007
H51   H     H_    0.709547 0.870581 0.171568 0.177102
O32   O     O_3   0.289333 0.328603 0.370344 -0.558025
C114  C     C_3   0.327568 0.249881 0.350666 -0.130868
H52   H     H_    0.249932 0.174625 0.330516 0.133640
H53   H     H_    0.355442 0.208456 0.380515 0.105763
H54   H     H_    0.403111 0.297869 0.323700 0.110370
O33   O     O_3   0.711719 0.039855 0.629070 -0.568678
C115  C     C_3   0.676265 0.924733 0.649399 -0.128274
H55   H     H_    0.756219 0.928916 0.668101 0.129717
H56   H     H_    0.645374 0.853159 0.620084 0.107690
H57   H     H_    0.603661 0.899267 0.677676 0.125754
O34   O     O_3   0.924730 0.657865 0.873394 -0.561422
C116  C     C_3   0.029795 0.758000 0.853623 -0.117167
H58   H     H_    0.096946 0.811498 0.883249 0.101598
H59   H     H_    0.002703 0.819215 0.835491 0.137270
H60   H     H_    0.072914 0.728394 0.824930 0.124108
O35   O     O_3   0.331481 0.276728 0.628598 -0.564119
C117  C     C_3   0.240961 0.293775 0.651485 -0.120302
H61   H     H_    0.175256 0.207857 0.670026 0.135474
H62   H     H_    0.189242 0.315042 0.623770 0.109242
H63   H     H_    0.280681 0.366413 0.680413 0.112985
O36   O     O_3   0.691743 0.007964 0.868417 -0.571759
C118  C     C_3   0.809098 0.112163 0.869891 -0.092317
H64   H     H_    0.872662 0.092655 0.890749 0.083863
H65   H     H_    0.811384 0.194422 0.885972 0.132477
H66   H     H_    0.844694 0.132934 0.831547 0.168769
O37   O     O_3   0.001284 0.685164 0.635086 -0.569859
C119  C     C_3   0.897008 0.696791 0.628215 -0.089887
H67   H     H_    0.813817 0.609281 0.618331 0.138819
H68   H     H_    0.913488 0.765405 0.599507 0.084661
H69   H     H_    0.878431 0.730345 0.663351 0.153609
O38   O     O_3   0.331603 0.282281 0.871091 -0.564864
C120  C     C_3   0.249601 0.312973 0.849190 -0.130547
H70   H     H_    0.207330 0.344553 0.877427 0.102527
H71   H     H_    0.175280 0.230490 0.831056 0.124964
H72   H     H_    0.295127 0.383485 0.820176 0.117455

loop_
_geom_bond_atom_site_label_1
_geom_bond_atom_site_label_2
_ccdc_geom_bond_type
C44   C49   A    
C14   C86   A    
C114  H52   S    
C74   H19   S    
C80   C92   A    
C82   C94   A    
C18   C21   A    
C101  H29   S    
C5    C56   S    
C118  H64   S    
C6    C55   S    
C79   H14   S    
C42   O35   S    
C50   C79   A    
C119  H68   S    
C12   C49   S    
C118  H66   S    
C11   O9    A    
Cr3   O6    S    
C30   H9    S    
Cr2   O25   S    
C78   C90   A    
C31   C67   A    
C99   C108  A    
C114  H53   S    
C103  H31   S    
C73   H20   S    
C111  H45   S    
Cr3   O25   S    
C12   O24   A    
Cr1   O1    S    
C41   C58   A    
Cr2   O2    S    
C110  H41   S    
C27   H12   S    
C5    O3    A    
Cr6   O12   S    
C86   C103  A    
C10   O22   A    
C98   C103  A    
C105  H33   S    
C96   C99   A    
C16   C88   A    
C84   H15   S    
C101  C106  A    
C81   C93   A    
Cr3   O18   S    
C102  C105  A    
C111  H44   S    
C84   C96   A    
C47   O30   S    
C1    O5    A    
O28   C110  S    
Cr2   O5    S    
C58   C77   A    
C55   C74   A    
C48   C51   A    
C38   C55   A    
O37   C119  S    
C94   C101  A    
C23   C95   A    
C45   O32   S    
C112  H47   S    
C89   C106  A    
C120  H71   S    
C19   C67   A    
C113  H49   S    
Cr3   O15   S    
C26   H7    S    
Cr5   O8    S    
C38   O33   S    
C25   H8    S    
C34   C70   A    
C79   C91   A    
C41   O36   S    
C13   C20   A    
C33   C69   A    
C32   C68   A    
C25   C32   A    
Cr6   O26   S    
C35   C71   A    
C26   C31   A    
C37   C56   A    
C40   C59   A    
C4    C57   S    
C22   C94   A    
O31   C113  S    
C9    C52   S    
C102  H30   S    
C48   C72   A    
C10   C51   S    
C14   C19   A    
C42   C57   A    
C119  H67   S    
C8    O20   A    
C92   C97   A    
C109  H37   S    
C116  H59   S    
C24   C72   A    
C82   H17   S    
Cr6   O21   S    
C4    O2    A    
C114  H54   S    
C6    O18   A    
C11   O23   A    
O32   C114  S    
C87   C108  A    
C45   C69   A    
O33   C115  S    
C18   C90   A    
C104  H32   S    
C17   C89   A    
C28   C35   A    
C83   H16   S    
Cr4   O7    S    
C1    C60   S    
C2    O14   A    
C88   C107  A    
Cr2   O14   S    
C2    C59   S    
C115  H55   S    
C81   H18   S    
C41   C65   A    
O35   C117  S    
C76   H23   S    
C29   C34   A    
C74   C86   A    
C76   C88   A    
C21   C69   A    
C53   C82   A    
C107  H35   S    
C44   O27   S    
C52   C83   A    
C110  H40   S    
C37   O34   S    
C109  H39   S    
Cr1   O4    S    
C23   C71   A    
C7    O11   A    
Cr2   O17   S    
O29   C111  S    
C117  H62   S    
Cr4   O19   S    
C9    O7    A    
C112  H48   S    
C83   C95   A    
C113  H51   S    
C118  H65   S    
C106  H34   S    
C43   C67   A    
C25   C61   A    
C12   O10   A    
C36   H3    S    
Cr3   O3    S    
C73   C85   A    
C30   C66   A    
C85   C104  A    
C27   C63   A    
C48   O29   S    
Cr5   O26   S    
C29   C65   A    
C28   C64   A    
C75   C87   A    
C15   C24   A    
C77   H22   S    
C45   C54   A    
C112  H46   S    
C20   C92   A    
C7    O19   A    
Cr1   O13   S    
C91   C98   A    
C108  H36   S    
C44   C68   A    
C18   C66   A    
C47   C71   A    
C31   H2    S    
C22   C70   A    
C28   H11   S    
C3    O15   A    
C117  H63   S    
Cr5   O23   S    
C78   H21   S    
C116  H60   S    
C34   H5    S    
C10   O8    A    
C54   C81   A    
C100  C107  A    
C2    O6    A    
C56   C73   A    
Cr4   O10   S    
C30   C33   A    
Cr4   O26   S    
C95   C100  A    
C93   C102  A    
C3    O1    A    
C57   C78   A    
C20   C68   A    
C19   C91   A    
C90   C105  A    
C46   O31   S    
C75   H24   S    
C8    C53   S    
C109  H38   S    
Cr1   O25   S    
C43   C50   A    
C99   H27   S    
Cr5   O20   S    
C77   C89   A    
C80   H13   S    
C27   C36   A    
C16   C23   A    
C39   C63   A    
C60   C75   A    
C17   C65   A    
C17   C22   A    
C40   C64   A    
C49   C80   A    
C15   C63   A    
C110  H42   S    
O30   C112  S    
C40   O37   S    
C24   C96   A    
C26   C62   A    
C43   O28   S    
C39   O38   S    
C11   C50   S    
C100  H28   S    
C6    O4    A    
C117  H61   S    
Cr4   O22   S    
C21   C93   A    
C115  H57   S    
C116  H58   S    
C39   C60   A    
C51   C84   A    
C46   C53   A    
O38   C120  S    
C4    O16   A    
C5    O17   A    
C32   H1    S    
O36   C118  S    
C120  H72   S    
Cr6   O9    S    
C46   C70   A    
C97   C104  A    
C9    O21   A    
Cr1   O16   S    
Cr5   O11   S    
C29   H10   S    
C3    C58   S    
Cr6   O24   S    
C37   C61   A    
C13   C61   A    
O34   C116  S    
C1    O13   A    
C33   H6    S    
C115  H56   S    
O27   C109  S    
C15   C87   A    
C13   C85   A    
C42   C66   A    
C98   H26   S    
C111  H43   S    
C47   C52   A    
C113  H50   S    
C8    O12   A    
C16   C64   A    
C7    C54   S    
C35   H4    S    
C59   C76   A    
C97   H25   S    
C119  H69   S    
C36   C72   A    
C120  H70   S    
C38   C62   A    
C14   C62   A    
