data_mof_unit_14985.cif
_audit_creation_date              2012-10-26T21:07:45-0400
_audit_creation_method            fapswitch 2.2
_symmetry_space_group_name_H-M    P1
_symmetry_Int_Tables_number       1
_space_group_crystal_system       triclinic
_cell_length_a                    11.021948
_cell_length_b                    9.095381
_cell_length_c                    7.801343
_cell_angle_alpha                 89.986709
_cell_angle_beta                  102.431597
_cell_angle_gamma                 89.985751
_cell_volume                      763.738578823

loop_
_atom_site_label
_atom_site_type_symbol
_atom_type_description
_atom_site_fract_x
_atom_site_fract_y
_atom_site_fract_z
_atom_type_partial_charge
C1    C     C_R   0.499926 0.220085 0.499984 0.545799
C2    C     C_1   0.499832 0.934624 0.499920 -0.054967
C3    C     C_3   0.945692 0.516072 0.797687 -0.278697
C4    C     C_3   0.953929 0.668708 0.880669 -0.433294
C5    C     C_3   0.059601 0.367573 0.255864 -0.292288
C6    C     C_3   0.141775 0.278789 0.158877 -0.415420
C7    C     C_R   0.499899 0.779918 0.499956 0.550704
C8    C     C_R   0.262176 0.493461 0.429632 0.564740
C9    C     C_R   0.738364 0.505071 0.570199 0.555073
C10   C     C_2   0.126823 0.478190 0.390643 -0.000644
C11   C     C_2   0.874340 0.521103 0.608968 0.000041
C12   C     C_2   0.065042 0.552725 0.493864 -0.161206
C13   C     C_2   0.930408 0.539471 0.473213 -0.149675
C14   C     C_1   0.499831 0.065390 0.499947 -0.057679
Cu1   Cu    Cu3+1 0.500010 0.500000 0.669080 1.001373
Cu2   Cu    Cu3+1 0.499990 0.500000 0.330920 0.997339
H1    H     H_    0.875883 0.539481 0.339507 0.147826
H2    H     H_    0.084230 0.194949 0.075062 0.126352
H3    H     H_    0.009948 0.287766 0.324241 0.152782
H4    H     H_    0.988996 0.426262 0.157835 0.136764
H5    H     H_    0.115038 0.622601 0.598686 0.144072
H6    H     H_    0.000286 0.746600 0.805744 0.150425
H7    H     H_    0.859533 0.710477 0.882725 0.167796
H8    H     H_    0.008928 0.663364 0.017603 0.143346
H9    H     H_    0.897521 0.440322 0.872449 0.150677
H10   H     H_    0.040523 0.470646 0.808120 0.149314
H11   H     H_    0.182939 0.351126 0.071911 0.176616
H12   H     H_    0.216279 0.221013 0.253497 0.162405
N1    N     N_1   0.499980 0.500000 0.076820 -0.087273
N2    N     N_1   0.500020 0.500000 0.923180 -0.086124
O1    O     O_R   0.500010 0.288400 0.642760 -0.493976
O2    O     O_R   0.499990 0.711600 0.357240 -0.493710
O3    O     O_R   0.499990 0.288400 0.357240 -0.499006
O4    O     O_R   0.500010 0.711600 0.642760 -0.496465
O5    O     O_R   0.320690 0.500000 0.590310 -0.508710
O6    O     O_R   0.679310 0.500000 0.409690 -0.510544
O7    O     O_R   0.320680 0.500000 0.304730 -0.502432
O8    O     O_R   0.679320 0.500000 0.695270 -0.501334

loop_
_geom_bond_atom_site_label_1
_geom_bond_atom_site_label_2
_ccdc_geom_bond_type
C9    O6    A    
Cu1   O8    S    
Cu1   O1    S    
N1    N2    T    
C5    H3    S    
Cu2   O3    S    
Cu2   O2    S    
C4    H6    S    
Cu1   O4    S    
C6    H11   S    
C13   H1    S    
Cu2   O7    S    
C1    O3    A    
C5    C10   S    
C5    H4    S    
Cu2   O6    S    
C9    C11   S    
C1    C14   S    
C10   C12   D    
C2    C14   T    
Cu1   O5    S    
C9    O8    A    
C5    C6    S    
C4    H8    S    
C7    O4    A    
C6    H2    S    
C11   C13   D    
C3    C11   S    
C8    O7    A    
Cu1   Cu2   S    
C1    O1    A    
C3    H9    S    
C12   C13   S    
Cu1   N2    S    
C8    C10   S    
C4    H7    S    
C7    O2    A    
Cu2   N1    S    
C12   H5    S    
C3    H10   S    
C6    H12   S    
C3    C4    S    
C2    C7    S    
C8    O5    A    
