data_mof_unit_34361.cif
_audit_creation_date              2012-12-10T17:26:23-0500
_audit_creation_method            fapswitch 2.2
_symmetry_space_group_name_H-M    P1
_symmetry_Int_Tables_number       1
_space_group_crystal_system       triclinic
_cell_length_a                    10.172613
_cell_length_b                    10.704481
_cell_length_c                    27.733385
_cell_angle_alpha                 89.860903
_cell_angle_beta                  80.820698
_cell_angle_gamma                 95.571004
_cell_volume                      2966.71021543

loop_
_atom_site_label
_atom_site_type_symbol
_atom_type_description
_atom_site_fract_x
_atom_site_fract_y
_atom_site_fract_z
_atom_type_partial_charge
C1    C     C_R   0.556923 0.732957 0.496616 0.953745
C2    C     C_R   0.552966 0.599554 0.124839 0.008466
C3    C     C_R   0.501392 0.504328 0.646490 -0.108575
C4    C     C_R   0.499327 0.495542 0.353491 -0.108910
C5    C     C_R   0.548811 0.607928 0.023462 0.099137
C6    C     C_R   0.474526 0.385156 0.975175 0.094147
C7    C     C_R   0.464561 0.383944 0.026704 -0.021229
C8    C     C_R   0.538987 0.613149 0.973181 -0.017848
C9    C     C_R   0.506483 0.494246 0.050403 0.079239
C10   C     C_R   0.507057 0.500923 0.948849 0.079211
C11   C     C_R   0.601370 0.712590 0.047691 -0.215668
C12   C     C_R   0.443072 0.267049 0.503386 0.953863
C13   C     C_R   0.454056 0.273965 0.948904 -0.212802
C14   C     C_R   0.603522 0.708143 0.097444 -0.155385
C15   C     C_R   0.456756 0.277597 0.898834 -0.139950
C16   C     C_R   0.500267 0.500926 0.593894 0.909230
C17   C     C_R   0.499806 0.499104 0.406109 0.909576
C18   C     C_R   0.557559 0.727765 0.946632 -0.322873
C19   C     C_R   0.411309 0.276396 0.055451 -0.319613
C20   C     C_2   0.590934 0.864608 0.486379 -0.336013
C21   C     C_2   0.409019 0.135453 0.513708 -0.334614
C22   C     C_2   0.516806 0.944057 0.512130 0.120727
C23   C     C_R   0.506642 0.504406 0.897824 -0.110502
C24   C     C_2   0.482854 0.055837 0.487934 0.120057
C25   C     C_2   0.925628 0.504483 0.505632 0.081187
C26   C     C_2   0.074517 0.496314 0.494128 0.079750
C27   C     C_R   0.529078 0.619066 0.820922 0.591170
C28   C     C_R   0.454118 0.383251 0.180227 0.592715
C29   C     C_R   0.480553 0.396159 0.822847 0.562773
C30   C     C_R   0.550131 0.596401 0.175283 0.556073
C31   C     C_R   0.622091 0.494193 0.714661 0.191265
C32   C     C_R   0.385772 0.521649 0.284323 0.197387
C33   C     C_R   0.620468 0.491489 0.664691 -0.216968
C34   C     C_R   0.505106 0.491432 0.101534 -0.109975
C35   C     C_R   0.386009 0.524423 0.334413 -0.223185
C36   C     C_R   0.383873 0.521395 0.678829 -0.215167
C37   C     C_R   0.612134 0.462263 0.321992 -0.207020
C38   C     C_R   0.384720 0.523993 0.728881 0.204287
C39   C     C_R   0.612454 0.458826 0.271916 0.196513
C40   C     C_R   0.503863 0.509707 0.746832 0.199963
C41   C     C_R   0.499377 0.489221 0.253018 0.198368
C42   C     C_3   0.165341 0.707933 0.572246 0.224218
C43   C     C_3   0.076863 0.773940 0.611588 -0.821120
C44   C     C_3   0.833606 0.290647 0.428427 0.220013
C45   C     C_R   0.531392 0.619944 0.871510 -0.136073
C46   C     C_3   0.921204 0.223358 0.389238 -0.812840
C47   C     C_3   0.706300 0.896502 0.865898 0.099584
C48   C     C_3   0.723033 0.018729 0.836461 -0.665436
C49   C     C_3   0.436882 0.072874 0.126920 0.090292
C50   C     C_3   0.376658 0.962135 0.160401 -0.647098
C51   C     C_R   0.455477 0.381194 0.129419 -0.139271
C52   C     C_R   0.556992 0.732060 0.896411 0.518963
C53   C     C_R   0.408535 0.273228 0.105882 0.523796
C54   C     C_R   0.480799 0.391926 0.873113 0.000834
H1    H     H_    0.291237 0.532268 0.665407 0.197212
H2    H     H_    0.439458 0.189891 0.880355 0.200817
H3    H     H_    0.645283 0.798571 0.028873 0.139324
H4    H     H_    0.439037 0.181877 0.965875 0.146149
H5    H     H_    0.568104 0.817061 0.964227 0.153600
H6    H     H_    0.365726 0.193920 0.040073 0.162444
H7    H     H_    0.186185 0.769293 0.538787 0.149697
H8    H     H_    0.259543 0.694699 0.585758 0.203979
H9    H     H_    0.056811 0.716764 0.645934 0.280674
H10   H     H_    0.127577 0.867010 0.618808 0.239792
H11   H     H_    0.980328 0.787731 0.599408 0.258329
H12   H     H_    0.700085 0.438633 0.336113 0.193805
H13   H     H_    0.739390 0.304116 0.414973 0.202099
H14   H     H_    0.812705 0.230039 0.462086 0.150875
H15   H     H_    0.017831 0.209476 0.401326 0.259227
H16   H     H_    0.869861 0.130259 0.382434 0.239773
H17   H     H_    0.941116 0.279679 0.354685 0.280909
H18   H     H_    0.771095 0.829768 0.845314 0.167576
H19   H     H_    0.740283 0.916871 0.901547 0.120485
H20   H     H_    0.662003 0.088406 0.856535 0.241336
H21   H     H_    0.829776 0.057458 0.830412 0.206952
H22   H     H_    0.690446 0.001749 0.800468 0.289021
H23   H     H_    0.353511 0.111600 0.549753 0.163578
H24   H     H_    0.535398 0.107440 0.137267 0.159840
H25   H     H_    0.452566 0.039310 0.088656 0.115224
H26   H     H_    0.279727 0.923321 0.150266 0.250006
H27   H     H_    0.445668 0.887428 0.157045 0.209047
H28   H     H_    0.359841 0.992634 0.198959 0.287479
H29   H     H_    0.646725 0.888675 0.450394 0.164082
H30   H     H_    0.115722 0.445057 0.462483 0.149019
H31   H     H_    0.884555 0.556456 0.537095 0.146522
H32   H     H_    0.297970 0.549989 0.358229 0.191162
H33   H     H_    0.712388 0.479190 0.640258 0.191545
H34   H     H_    0.644869 0.790833 0.114380 0.183372
I1    I     I_    0.204189 0.548650 0.776164 -0.255135
I2    I     I_    0.785636 0.407729 0.226123 -0.253120
I3    I     I_    0.212813 0.568278 0.257345 -0.252487
I4    I     I_    0.804735 0.474027 0.740073 -0.286241
I5    I     I_    0.534064 0.087726 0.410370 -0.402684
I6    I     I_    0.464821 0.911730 0.589651 -0.396916
N1    N     N_R   0.504271 0.508396 0.798158 -0.349584
N2    N     N_R   0.501009 0.489609 0.201576 -0.348548
N3    N     N_2   0.842700 0.448890 0.480020 0.030035
N4    N     N_2   0.157300 0.551110 0.519980 0.029161
O1    O     O_R   0.431060 0.692470 0.504020 -0.624655
O2    O     O_2   0.407046 0.280581 0.208360 -0.485661
O3    O     O_2   0.595663 0.699133 0.198130 -0.542109
O4    O     O_2   0.456715 0.289190 0.798613 -0.528995
O5    O     O_3   0.099296 0.590823 0.563675 -0.564355
O6    O     O_3   0.900542 0.407649 0.436560 -0.563805
O7    O     O_3   0.570389 0.847744 0.872771 -0.563660
O8    O     O_3   0.348266 0.167459 0.132396 -0.552566
O9    O     O_R   0.568940 0.307530 0.495980 -0.625205
O10   O     O_R   0.651120 0.659650 0.491200 -0.606392
O11   O     O_R   0.348880 0.340350 0.508800 -0.605736
O12   O     O_R   0.389980 0.516390 0.577660 -0.614119
O13   O     O_R   0.610020 0.483610 0.422340 -0.613501
O14   O     O_R   0.610040 0.483570 0.564830 -0.635481
O15   O     O_R   0.389960 0.516430 0.435170 -0.635246
O16   O     O_2   0.551680 0.726971 0.794347 -0.483605
Zn1   Zn    Zn3+2 0.353060 0.521910 0.508560 0.988526
Zn2   Zn    Zn3+2 0.646940 0.478090 0.491440 0.988713

loop_
_geom_bond_atom_site_label_1
_geom_bond_atom_site_label_2
_ccdc_geom_bond_type
C49   O8    S    
C23   C45   A    
C48   H22   S    
C27   N1    A    
C28   C51   A    
C42   O5    S    
C1    O1    A    
C28   O2    S    
C44   O6    S    
C18   C52   A    
C39   C41   A    
C49   H24   S    
C38   I1    S    
C16   O14   A    
C34   C51   A    
C5    C11   A    
O1    Zn1   S    
C11   C14   A    
C32   I3    S    
C29   C54   A    
C3    C33   A    
N4    O5    S    
C31   C40   A    
C46   H15   S    
C30   N2    A    
C53   O8    S    
C47   O7    S    
C32   C41   A    
C31   C33   A    
O13   Zn2   S    
C42   H8    S    
C39   I2    S    
C27   C45   A    
C4    C35   A    
C22   I6    S    
C48   H21   S    
C20   H29   S    
C17   O13   A    
C12   O11   A    
C44   C46   S    
C43   H10   S    
O9    Zn2   S    
C16   O12   A    
C32   C35   A    
C48   H20   S    
C47   H19   S    
C29   N1    A    
C13   H4    S    
C45   C52   A    
C25   C26   S    
C12   C21   S    
C8    C18   A    
C49   H25   S    
C51   C53   A    
C15   C54   A    
C5    C9    A    
C5    C8    A    
C47   C48   S    
C43   H11   S    
C37   H12   S    
C25   H31   S    
N3    Zn2   S    
C42   H7    S    
C46   H17   S    
C17   O15   A    
C26   N4    D    
C4    C17   S    
C25   N3    D    
C20   C22   D    
C52   O7    S    
C49   C50   S    
C7    C19   A    
C13   C15   A    
C9    C34   A    
C10   C23   A    
C22   C24   S    
C44   H14   S    
C42   C43   S    
C40   N1    S    
O14   Zn2   S    
C50   H28   S    
C23   C54   A    
C7    C9    A    
C1    C20   S    
C26   H30   S    
C2    C34   A    
C50   H26   S    
C6    C10   A    
C12   O9    A    
C6    C7    A    
C19   H6    S    
C2    C30   A    
C28   N2    A    
C15   H2    S    
O10   Zn2   S    
C36   C38   A    
C33   H33   S    
C14   H34   S    
C37   C39   A    
C36   H1    S    
C24   I5    S    
C6    C13   A    
C38   C40   A    
C19   C53   A    
N4    Zn1   S    
C3    C36   A    
C30   O3    S    
C35   H32   S    
C29   O4    S    
C2    C14   A    
C47   H18   S    
C46   H16   S    
N3    O6    S    
O11   Zn1   S    
C1    O10   A    
C41   N2    S    
C27   O16   S    
C18   H5    S    
C4    C37   A    
C8    C10   A    
C31   I4    S    
C43   H9    S    
C21   C24   D    
C21   H23   S    
C44   H13   S    
C11   H3    S    
O12   Zn1   S    
C3    C16   S    
C50   H27   S    
O15   Zn1   S    
