data_mof_unit_50097.cif
_audit_creation_date              2012-12-10T17:45:27-0500
_audit_creation_method            fapswitch 2.2
_symmetry_space_group_name_H-M    P1
_symmetry_Int_Tables_number       1
_space_group_crystal_system       triclinic
_cell_length_a                    11.541633
_cell_length_b                    10.703482
_cell_length_c                    9.936362
_cell_angle_alpha                 86.259955
_cell_angle_beta                  89.267264
_cell_angle_gamma                 93.011529
_cell_volume                      1223.02728229

loop_
_atom_site_label
_atom_site_type_symbol
_atom_type_description
_atom_site_fract_x
_atom_site_fract_y
_atom_site_fract_z
_atom_type_partial_charge
C1    C     C_R   0.508748 0.260025 0.505103 0.868694
C2    C     C_R   0.476610 0.874476 0.485339 -0.278222
C3    C     C_R   0.330933 0.351175 0.151231 -0.149336
C4    C     C_R   0.282059 0.499458 0.500740 0.872428
C5    C     C_R   0.242983 0.285893 0.086175 -0.147276
C6    C     C_R   0.243731 0.286326 0.946666 -0.183718
C7    C     C_R   0.332847 0.351483 0.871916 -0.194466
C8    C     C_R   0.416530 0.428008 0.933727 0.147334
C9    C     C_R   0.416012 0.428167 0.078128 0.131985
C10   C     C_R   0.583919 0.565177 0.063158 -0.007845
C11   C     C_R   0.582198 0.565163 0.920746 -0.174084
C12   C     C_R   0.398145 0.014461 0.857831 0.052912
C13   C     C_R   0.491133 0.740025 0.495236 0.900126
C14   C     C_R   0.717943 0.500388 0.499271 0.928008
C15   C     C_1   0.161539 0.499315 0.501823 -0.182838
C16   C     C_1   0.059335 0.499346 0.500910 0.005007
C17   C     C_1   0.940648 0.499609 0.499004 0.005968
C18   C     C_1   0.838453 0.499968 0.498153 -0.183272
C19   C     C_R   0.462107 0.088855 0.758616 -0.266778
C20   C     C_3   0.655417 0.146391 0.306651 -0.737196
C21   C     C_2   0.393179 0.052943 0.997638 0.397094
C22   C     C_2   0.538652 0.903510 0.239751 0.561975
C23   C     C_R   0.341229 0.903142 0.823021 -0.122746
C24   C     C_2   0.684430 0.634684 0.118350 0.476855
C25   C     C_R   0.359709 0.860082 0.695995 -0.173566
C26   C     C_R   0.435487 0.927974 0.601284 0.106434
C27   C     C_R   0.473629 0.050157 0.625397 0.070957
C28   C     C_R   0.525661 0.126233 0.516632 -0.156042
C29   C     C_R   0.568310 0.072831 0.401227 0.130447
C30   C     C_R   0.531985 0.949478 0.378184 -0.042303
H1    H     H_    0.179095 0.229672 0.896680 0.164498
H2    H     H_    0.614196 0.173588 0.209451 0.247301
H3    H     H_    0.692437 0.232066 0.350776 0.209390
H4    H     H_    0.448745 0.131088 0.027260 0.077072
H5    H     H_    0.471916 0.837392 0.207434 0.112267
H6    H     H_    0.766003 0.643214 0.061988 0.027637
H7    H     H_    0.337131 0.335646 0.767045 0.208483
H8    H     H_    0.648567 0.618420 0.860002 0.154314
H9    H     H_    0.508317 0.171902 0.790134 0.169113
H10   H     H_    0.287410 0.846144 0.895878 0.176466
H11   H     H_    0.317012 0.771532 0.673373 0.156919
H12   H     H_    0.331538 0.335256 0.258130 0.204383
H13   H     H_    0.177391 0.229267 0.144610 0.170367
H14   H     H_    0.731015 0.089293 0.288877 0.258546
N1    N     N_R   0.498930 0.498800 0.142780 -0.128495
N2    N     N_R   0.498900 0.498720 0.857170 -0.117849
O1    O     O_R   0.500000 0.316780 0.614690 -0.650880
O2    O     O_2   0.615959 0.939180 0.159158 -0.592768
O3    O     O_2   0.677441 0.689565 0.221016 -0.520061
O4    O     O_R   0.499990 0.316750 0.385360 -0.631410
O5    O     O_R   0.334450 0.500030 0.614670 -0.635981
O6    O     O_R   0.334440 0.500000 0.385330 -0.629973
O7    O     O_R   0.500010 0.683250 0.614640 -0.600186
O8    O     O_R   0.500000 0.683220 0.385310 -0.587562
O9    O     O_R   0.665560 0.500000 0.614670 -0.617973
O10   O     O_R   0.665550 0.499970 0.385330 -0.575755
O11   O     O_2   0.326383 0.998913 0.081149 -0.612301
Zn1   Zn    Zn3+2 0.500010 0.500020 0.653130 0.935855
Zn2   Zn    Zn3+2 0.499990 0.499980 0.346870 0.972047

loop_
_geom_bond_atom_site_label_1
_geom_bond_atom_site_label_2
_ccdc_geom_bond_type
C11   H8    S    
C14   O10   A    
O7    Zn1   S    
C3    H12   S    
C9    N1    A    
C6    C7    A    
C3    C9    A    
O6    Zn2   S    
C1    C28   S    
C29   C30   A    
C19   C27   A    
C1    O4    A    
C14   C18   S    
C22   O2    D    
O10   Zn2   S    
C2    C30   A    
C4    C15   S    
C14   O9    A    
C7    H7    S    
C7    C8    A    
C2    C26   A    
O5    Zn1   S    
N2    Zn1   S    
O1    Zn1   S    
C21   O11   D    
C22   H5    S    
C12   C23   A    
C26   C27   A    
C24   H6    S    
C19   H9    S    
C20   C29   S    
C10   N1    A    
C20   H3    S    
C12   C19   A    
C28   C29   A    
C20   H14   S    
C4    O6    A    
C17   C18   T    
C13   O7    A    
O8    Zn2   S    
C23   C25   A    
C5    H13   S    
C5    C6    A    
C8    N2    A    
C16   C17   S    
C10   C11   A    
O4    Zn2   S    
C4    O5    A    
C15   C16   T    
C27   C28   A    
C13   O8    A    
C20   H2    S    
O9    Zn1   S    
C25   H11   S    
C24   O3    D    
C2    C13   S    
C1    O1    A    
C11   N2    A    
C6    H1    S    
C21   H4    S    
C22   C30   S    
C10   C24   S    
C25   C26   A    
C12   C21   S    
N1    Zn2   S    
C23   H10   S    
C8    C9    A    
C3    C5    A    
