data_mof_unit_24603.cif
_audit_creation_date              2013-03-05T15:49:19-0500
_audit_creation_method            fapswitch 2.2
_symmetry_space_group_name_H-M    P1
_symmetry_Int_Tables_number       1
_space_group_crystal_system       triclinic
_cell_length_a                    20.675444
_cell_length_b                    22.897092
_cell_length_c                    6.939239
_cell_angle_alpha                 90.181505
_cell_angle_beta                  87.250527
_cell_angle_gamma                 90.163945
_cell_volume                      3281.27784954

loop_
_atom_site_label
_atom_site_type_symbol
_atom_site_description
_atom_site_fract_x
_atom_site_fract_y
_atom_site_fract_z
_atom_type_partial_charge
O1    O     O_R   0.387100 0.552640 0.378490 -0.580056
O2    O     O_R   0.612900 0.052640 0.621510 -0.581450
O3    O     O_R   0.249610 0.559600 0.072250 -0.626231
O4    O     O_R   0.750390 0.059600 0.927750 -0.625747
O5    O     O_R   0.249120 0.447360 0.902040 -0.612929
O6    O     O_R   0.750880 0.947360 0.097960 -0.615452
C1    C     C_R   0.223853 0.569550 0.244011 0.982054
C2    C     C_R   0.776095 0.069957 0.756604 0.980788
O7    O     O_R   0.386610 0.559560 0.048860 -0.573246
O8    O     O_R   0.613390 0.059560 0.951140 -0.571727
O9    O     O_R   0.387100 0.447320 0.878470 -0.595392
O10   O     O_R   0.612900 0.947320 0.121530 -0.596299
C3    C     C_R   0.404905 0.577346 0.215791 0.952643
C4    C     C_R   0.595280 0.077476 0.784561 0.950956
O11   O     O_R   0.249120 0.552680 0.402050 -0.604721
O12   O     O_R   0.750880 0.052680 0.597950 -0.604276
O13   O     O_3   0.318110 0.463180 0.223790 -0.266986
O14   O     O_3   0.681890 0.963180 0.776210 -0.266616
V1    V     V_3+5 0.318110 0.506830 0.948930 1.208442
V2    V     V_3+5 0.681890 0.006830 0.051070 1.207878
O15   O     O_R   0.386610 0.440400 0.548840 -0.571704
O16   O     O_R   0.613390 0.940400 0.451160 -0.570277
C5    C     C_R   0.407090 0.425126 0.715191 1.050313
C6    C     C_R   0.592730 0.925337 0.284513 1.047730
O17   O     O_R   0.249610 0.440440 0.572240 -0.594727
O18   O     O_R   0.750390 0.940440 0.427760 -0.593922
C7    C     C_R   0.226603 0.426867 0.743537 0.978580
C8    C     C_R   0.772392 0.926184 0.255600 0.978706
V3    V     V_3+5 0.318110 0.493170 0.448930 1.237259
V4    V     V_3+5 0.681890 0.993170 0.551070 1.236946
O19   O     O_3   0.318110 0.536820 0.723940 -0.274065
O20   O     O_3   0.681890 0.036820 0.276060 -0.274960
C9    C     C_R   0.170927 0.385722 0.756199 -0.116505
C10   C     C_R   0.823914 0.881569 0.237796 -0.110192
C11   C     C_R   0.130717 0.379825 0.599756 -0.115805
C12   C     C_R   0.865580 0.872579 0.387759 -0.135670
C13   C     C_R   0.076893 0.342905 0.611506 -0.107256
C14   C     C_R   0.914143 0.830435 0.370783 -0.101585
C15   C     C_R   0.062561 0.309898 0.777651 0.096386
C16   C     C_R   0.921522 0.794539 0.205386 0.135162
C17   C     C_R   0.102750 0.315042 0.937128 -0.076128
C18   C     C_R   0.880397 0.805072 0.050289 -0.070640
C19   C     C_R   0.156594 0.353071 0.924056 -0.183512
C20   C     C_R   0.831982 0.847902 0.069482 -0.178476
C21   C     C_R   0.906182 0.178514 0.886241 -0.088798
C22   C     C_R   0.098947 0.683881 0.133216 -0.077930
C23   C     C_R   0.851096 0.143253 0.898427 -0.019710
C24   C     C_R   0.150450 0.644938 0.110362 0.001180
C25   C     C_R   0.876334 0.106951 0.576766 -0.232753
C26   C     C_R   0.126800 0.608215 0.432441 -0.231401
C27   C     C_R   0.934000 0.140346 0.564209 -0.084885
C28   C     C_R   0.072532 0.645054 0.453966 -0.073408
C29   C     C_R   0.948377 0.177988 0.721172 0.090356
C30   C     C_R   0.060064 0.685179 0.304831 0.076104
C31   C     C_2   0.004337 0.271958 0.780612 -0.154100
C32   C     C_2   0.969821 0.745508 0.194803 -0.165170
C33   C     C_2   0.007197 0.215965 0.721314 -0.120848
C34   C     C_2   0.011232 0.732280 0.332226 -0.121859
C35   C     C_R   0.834742 0.107897 0.742653 -0.100615
C36   C     C_R   0.166432 0.608237 0.262258 -0.110212
H1    H     H_    0.140095 0.404722 0.468847 0.123358
H2    H     H_    0.861162 0.898720 0.518136 0.124696
H3    H     H_    0.820922 0.144203 0.030197 0.132790
H4    H     H_    0.179245 0.645252 0.975971 0.134493
H5    H     H_    0.864303 0.078591 0.458420 0.172240
H6    H     H_    0.137294 0.578019 0.546670 0.166831
H7    H     H_    0.053875 0.198025 0.674540 0.187249
H8    H     H_    0.011085 0.755736 0.467404 0.185084
H9    H     H_    0.916811 0.205420 0.009550 0.162784
H10   H     H_    0.090376 0.714129 0.017490 0.147902
H11   H     H_    0.187241 0.357629 0.045632 0.176579
H12   H     H_    0.800618 0.855362 0.951211 0.171290
H13   H     H_    0.958131 0.291333 0.825525 0.174605
H14   H     H_    0.970884 0.716784 0.070543 0.178646
H15   H     H_    0.046037 0.340124 0.490016 0.152343
H16   H     H_    0.945522 0.826868 0.489298 0.151848
C37   C     C_R   0.570467 0.369054 0.812530 -0.020545
C38   C     C_R   0.430434 0.868591 0.176544 -0.021339
H17   H     H_    0.524893 0.452203 0.809256 0.148790
H18   H     H_    0.476072 0.951890 0.181536 0.148727
H19   H     H_    0.614960 0.389099 0.855970 0.184020
H20   H     H_    0.386505 0.888253 0.128495 0.184045
C39   C     C_R   0.460860 0.383557 0.723412 -0.262864
C40   C     C_R   0.538921 0.883815 0.275106 -0.262549
C41   C     C_R   0.480138 0.097915 0.765514 -0.264570
C42   C     C_R   0.519792 0.598255 0.241274 -0.264642
C43   C     C_R   0.425637 0.133647 0.764032 0.392950
C44   C     C_R   0.574286 0.634226 0.244616 0.393008
C45   C     C_R   0.433770 0.194324 0.766189 -0.164954
C46   C     C_R   0.566270 0.694829 0.239048 -0.164279
C47   C     C_R   0.495656 0.220754 0.762951 0.086481
C48   C     C_R   0.504460 0.720938 0.237096 0.087401
C49   C     C_R   0.550321 0.183882 0.793702 0.004426
C50   C     C_R   0.450060 0.683704 0.204272 0.003394
C51   C     C_R   0.503472 0.283252 0.747853 -0.034350
C52   C     C_R   0.496554 0.783396 0.249657 -0.033475
C53   C     C_R   0.563691 0.308125 0.796074 -0.034975
C54   C     C_R   0.436977 0.807802 0.195348 -0.033086
C55   C     C_R   0.616165 0.272423 0.836180 0.297208
C56   C     C_R   0.384933 0.771721 0.152277 0.296749
C57   C     C_R   0.609734 0.211358 0.836805 -0.246771
C58   C     C_R   0.391112 0.710726 0.156171 -0.244874
C59   C     C_R   0.453641 0.322722 0.691225 0.280606
C60   C     C_R   0.545753 0.823236 0.309643 0.279395
C61   C     C_R   0.519028 0.405731 0.784618 -0.200440
C62   C     C_R   0.481533 0.905557 0.208206 -0.198708
C63   C     C_R   0.542108 0.121285 0.783613 -0.192162
C64   C     C_R   0.458095 0.621264 0.217837 -0.194473
H21   H     H_    0.474212 0.050902 0.758471 0.163982
H22   H     H_    0.525547 0.551320 0.251018 0.164269
H23   H     H_    0.390593 0.220384 0.780353 0.199513
H24   H     H_    0.609517 0.721046 0.226597 0.199397
C65   C     C_2   0.976459 0.134223 0.384740 1.041965
O21   O     O_2   0.028620 0.159205 0.367540 -0.618471
O22   O     O_R   0.956833 0.098565 0.233986 -0.825306
H25   H     H_    0.989557 0.097588 0.120390 0.339306
C66   C     C_2   0.028274 0.637831 0.627901 1.019613
O23   O     O_2   0.972154 0.654430 0.627133 -0.591745
O24   O     O_R   0.049825 0.609016 0.790092 -0.832597
H26   H     H_    0.015024 0.605775 0.897599 0.333894
N1    N     N_R   0.677014 0.298505 0.881406 0.235798
O25   O     O_R   0.713815 0.322143 0.745560 -0.328599
O26   O     O_R   0.695505 0.298558 0.058000 -0.345976
N2    N     N_R   0.324650 0.797283 0.100933 0.234574
O27   O     O_R   0.286729 0.821583 0.232836 -0.328957
O28   O     O_R   0.307543 0.795755 0.922982 -0.346546
N3    N     N_R   0.400465 0.302996 0.581729 0.221498
O29   O     O_R   0.341365 0.318524 0.629900 -0.407926
O30   O     O_R   0.411462 0.270978 0.428424 -0.362129
N4    N     N_R   0.597786 0.804183 0.424121 0.221901
O31   O     O_R   0.657337 0.819306 0.379374 -0.408401
O32   O     O_R   0.585306 0.772898 0.577753 -0.362257
N5    N     N_R   0.361799 0.108286 0.760362 0.253198
O33   O     O_R   0.353927 0.051882 0.766130 -0.352903
O34   O     O_R   0.310918 0.141284 0.750171 -0.320252
N6    N     N_R   0.637964 0.609197 0.253837 0.253371
O35   O     O_R   0.645753 0.552801 0.251859 -0.352231
O36   O     O_R   0.688771 0.642502 0.265426 -0.319381
C67   C     C_2   0.665165 0.179569 0.906722 1.037714
O37   O     O_2   0.715309 0.178280 0.807095 -0.650791
O38   O     O_R   0.663016 0.159372 0.096730 -0.740987
H27   H     H_    0.706596 0.145321 0.138024 0.333868
C68   C     C_2   0.335480 0.678418 0.089053 1.040470
O39   O     O_2   0.285996 0.676944 0.191495 -0.653308
O40   O     O_R   0.336399 0.658299 0.898637 -0.737955
H28   H     H_    0.292436 0.644371 0.859209 0.334024
C69   C     C_2   0.089909 0.282131 0.119058 1.016806
O41   O     O_2   0.035047 0.266043 0.166631 -0.633604
O42   O     O_R   0.140836 0.270385 0.238691 -0.758944
H29   H     H_    0.126365 0.247556 0.358127 0.359414
C70   C     C_2   0.887386 0.774212 0.862638 0.994995
O43   O     O_2   0.941143 0.764679 0.789049 -0.672168
O44   O     O_R   0.832260 0.758877 0.764583 -0.736064
H30   H     H_    0.843263 0.739077 0.636301 0.363802

loop_
_geom_bond_atom_site_label_1
_geom_bond_atom_site_label_2
_geom_bond_distance
_ccdc_geom_bond_type
V4    O20   2.157044 S    
O13   V3    1.704558 S    
C43   N5    1.441748 S    
C69   O41   1.222204 D    
C46   H24   1.075724 S    
O4    C2    1.299860 A    
V1    O19   1.707588 S    
O40   H28   1.012112 S    
C57   C67   1.462535 S    
C15   C17   1.419795 A    
C14   H16   1.075104 S    
C7    C9    1.484924 S    
O9    V1    2.017515 S    
C27   C65   1.495313 S    
C5    C39   1.468882 S    
C11   C13   1.395011 A    
C41   H21   1.084264 S    
C66   O24   1.398235 S    
C2    C35   1.489166 S    
C23   H3    1.082125 S    
C42   C44   1.394774 A    
C24   H4    1.082091 S    
O12   V4    2.006920 S    
C68   O39   1.217949 D    
H18   C62   1.084628 S    
C48   C52   1.441784 A    
H17   C61   1.084569 S    
C21   C23   1.393594 A    
O9    C5    1.290517 A    
O7    C3    1.299595 A    
O13   V1    2.156122 S    
O5    C7    1.300490 A    
O38   H27   1.012182 S    
O7    V1    2.005871 S    
O6    C8    1.296454 A    
C28   C30   1.419332 A    
C25   C27   1.413874 A    
C52   C54   1.421756 A    
C38   C54   1.405923 A    
C26   C28   1.407558 A    
C70   O43   1.220651 D    
C37   C53   1.406543 A    
O14   V4    1.708540 S    
C45   C47   1.413084 A    
C59   N3    1.437079 S    
C10   C12   1.398486 A    
C55   N1    1.438846 S    
C24   C36   1.402506 A    
C15   C31   1.481889 S    
C28   C66   1.488600 S    
C16   C18   1.424806 A    
C13   H15   1.082952 S    
C8    C10   1.478645 S    
C2    O12   1.300558 A    
C60   N4    1.437215 S    
C17   C19   1.411046 A    
O10   V2    2.014090 S    
C18   C20   1.404813 A    
C33   H7    1.084827 S    
C3    C64   1.488575 S    
C12   H2    1.083534 S    
O1    V3    2.013443 S    
C53   C55   1.399369 A    
C51   C59   1.441891 A    
O11   V3    2.013851 S    
C40   C62   1.388829 A    
C41   C43   1.394886 A    
O15   C5    1.297851 A    
O17   V3    2.018964 S    
C22   C24   1.393713 A    
C69   O42   1.398952 S    
C23   C35   1.402176 A    
C32   H14   1.082232 S    
C21   H9    1.083480 S    
C9    C19   1.405214 A    
C10   C20   1.400920 A    
C44   N6    1.441712 S    
N6    O36   1.301769 A    
O8    C4    1.300020 A    
C49   C57   1.422605 A    
C29   C33   1.493047 S    
C16   C32   1.503933 S    
O15   V3    2.013880 S    
C39   C61   1.388769 A    
C56   N2    1.439116 S    
C31   H13   1.086080 S    
N4    O32   1.301409 A    
N3    O30   1.301415 A    
C25   H5    1.083166 S    
C47   C49   1.437185 A    
C38   H20   1.082187 S    
C46   C48   1.413083 A    
C17   C69   1.484874 S    
C37   H19   1.082172 S    
C67   O37   1.218581 D    
C50   C64   1.443674 A    
C22   C30   1.404784 A    
C56   C58   1.403261 A    
C11   H1    1.083295 S    
O3    V1    2.021143 S    
C18   C70   1.480713 S    
C26   H6    1.083645 S    
N1    O25   1.300989 A    
C39   C59   1.418631 A    
C34   H8    1.079304 S    
C4    C63   1.490607 S    
C55   C57   1.404150 A    
C44   C46   1.398841 A    
O18   V4    2.020568 S    
C54   C56   1.397828 A    
C31   C33   1.345844 D    
N5    O33   1.301740 A    
C40   C60   1.416988 A    
O16   C6    1.297192 A    
O1    C3    1.301218 A    
C58   C68   1.459976 S    
N3    O29   1.301461 A    
C1    C36   1.483586 S    
N1    O26   1.301067 A    
N2    O28   1.301047 A    
C65   O21   1.220277 D    
V2    O20   1.703606 S    
C68   O40   1.397249 S    
O10   C6    1.289783 A    
C19   H11   1.083731 S    
O16   V4    2.006367 S    
C42   H22   1.084263 S    
O18   C8    1.298820 A    
C42   C64   1.398383 A    
N6    O35   1.301729 A    
O24   H26   1.014065 S    
C51   C53   1.421687 A    
O5    V1    2.006314 S    
O17   C7    1.297319 A    
O6    V2    2.013242 S    
C45   H23   1.075581 S    
O3    C1    1.301612 A    
C37   C61   1.378323 A    
C25   C35   1.403572 A    
O2    V4    2.016867 S    
C38   C62   1.377250 A    
C26   C36   1.404716 A    
C52   C60   1.439798 A    
N4    O31   1.301478 A    
C6    C40   1.465060 S    
C13   C15   1.399877 A    
C41   C63   1.398162 A    
O42   H29   1.013764 S    
C49   C63   1.444687 A    
C12   C14   1.395235 A    
C14   C16   1.412112 A    
C67   O38   1.397292 S    
C48   C50   1.435836 A    
O8    V2    2.013381 S    
C1    O11   1.297533 A    
C9    C11   1.404611 A    
C32   C34   1.347523 D    
C20   H12   1.084351 S    
O14   V2    2.150513 S    
C70   O44   1.398528 S    
O2    C4    1.301473 A    
C22   H10   1.083452 S    
C21   C29   1.406193 A    
O4    V2    2.019539 S    
C30   C34   1.484972 S    
C50   C58   1.422782 A    
C47   C51   1.443229 A    
V3    O19   2.151434 S    
N5    O34   1.301752 A    
C43   C45   1.399107 A    
C27   C29   1.428711 A    
O44   H30   1.014051 S    
C66   O23   1.222257 D    
O22   H25   1.014129 S    
N2    O27   1.300962 A    
C65   O22   1.399669 S    
