data_mof_unit_51503.cif
_audit_creation_date              2012-12-10T19:47:17-0500
_audit_creation_method            fapswitch 2.2
_symmetry_space_group_name_H-M    P1
_symmetry_Int_Tables_number       1
_space_group_crystal_system       triclinic
_cell_length_a                    14.976291
_cell_length_b                    14.190773
_cell_length_c                    10.635056
_cell_angle_alpha                 89.701565
_cell_angle_beta                  88.949827
_cell_angle_gamma                 89.729284
_cell_volume                      2259.78229862

loop_
_atom_site_label
_atom_site_type_symbol
_atom_type_description
_atom_site_fract_x
_atom_site_fract_y
_atom_site_fract_z
_atom_type_partial_charge
C1    C     C_R   0.328220 0.499763 0.502538 0.963431
C2    C     C_R   0.672881 0.500216 0.487164 0.927397
C3    C     C_R   0.233435 0.497532 0.490925 -0.177196
C4    C     C_R   0.770236 0.499648 0.459600 -0.258438
C5    C     C_R   0.179939 0.483444 0.599261 0.252906
C6    C     C_R   0.813871 0.411695 0.440672 0.415280
C7    C     C_R   0.087369 0.482562 0.588063 0.436020
C8    C     C_R   0.906642 0.404760 0.449412 0.416082
C9    C     C_R   0.051053 0.487824 0.468156 -0.060814
C10   C     C_R   0.955911 0.488254 0.455144 -0.036984
C11   C     C_R   0.455337 0.107088 0.603605 0.341867
C12   C     C_R   0.538511 0.102603 0.404945 0.330711
C13   C     C_R   0.461189 0.207027 0.599461 -0.167100
C14   C     C_R   0.536321 0.202676 0.402751 -0.120722
C15   C     C_R   0.497303 0.054197 0.506573 0.015847
C16   C     C_R   0.572150 0.895873 0.549703 -0.007814
C17   C     C_R   0.422835 0.896935 0.465853 0.008852
C18   C     C_R   0.569125 0.795499 0.552992 0.455546
C19   C     C_R   0.427926 0.796891 0.454802 0.459670
C20   C     C_R   0.497080 0.947524 0.508786 0.114901
C21   C     C_R   0.507220 0.500449 0.259169 0.849612
C22   C     C_R   0.489319 0.499850 0.739722 0.883675
C23   C     C_R   0.546507 0.674227 0.093848 0.139687
C24   C     C_R   0.422865 0.666913 0.898012 0.111305
C25   C     C_R   0.513576 0.759235 0.041130 0.123092
C26   C     C_R   0.445278 0.755404 0.950377 0.139793
C27   C     C_R   0.467536 0.584596 0.940729 0.006410
C28   C     C_R   0.510190 0.587157 0.055328 0.002491
C29   C     C_R   0.513760 0.501293 0.123967 -0.079267
C30   C     C_R   0.474618 0.499133 0.873657 -0.091541
C31   C     C_R   0.503006 0.414968 0.063205 -0.213651
C32   C     C_R   0.488764 0.413984 0.936694 -0.222110
C33   C     C_R   0.104500 0.498031 0.360212 -0.309173
C34   C     C_R   0.914658 0.575642 0.449213 -0.271790
C35   C     C_R   0.196620 0.499924 0.370092 0.135396
C36   C     C_R   0.822392 0.583434 0.450296 0.116279
H1    H     H_    0.506609 0.348118 0.112540 0.164404
H2    H     H_    0.489637 0.346868 0.888537 0.169931
H3    H     H_    0.073975 0.501509 0.268598 0.168816
H4    H     H_    0.955359 0.638825 0.447369 0.169901
H5    H     H_    0.433690 0.249266 0.675022 0.134827
H6    H     H_    0.563305 0.240966 0.323235 0.137211
N1    N     N_R   0.500000 0.252470 0.500000 -0.111849
N2    N     N_R   0.500000 0.747550 0.500000 -0.205442
O1    O     O_R   0.369060 0.579480 0.500010 -0.563728
O2    O     O_R   0.630940 0.579480 0.499990 -0.572067
O3    O     O_R   0.369050 0.420520 0.500010 -0.640514
O4    O     O_R   0.630950 0.420520 0.499990 -0.549881
O5    O     O_R   0.500000 0.579490 0.316770 -0.621545
O6    O     O_R   0.500000 0.579490 0.683230 -0.610656
O7    O     O_R   0.499990 0.420540 0.316770 -0.635533
O8    O     O_R   0.500010 0.420540 0.683230 -0.629291
Zn1   Zn    Zn3+2 0.500000 0.606140 0.500000 0.977043
Zn2   Zn    Zn3+2 0.500000 0.393860 0.500000 0.955290
C37   C     C_3   0.654676 0.947690 0.590281 -0.860819
H7    H     H_    0.711634 0.899771 0.608979 0.254742
H8    H     H_    0.677730 0.996225 0.514825 0.252520
H9    H     H_    0.639184 0.988965 0.676426 0.237546
C38   C     C_3   0.338963 0.949782 0.430463 -0.859330
H10   H     H_    0.281655 0.902481 0.416181 0.267277
H11   H     H_    0.317860 0.997895 0.507093 0.251853
H12   H     H_    0.351542 0.991502 0.343387 0.233861
O9    O     O_3   0.638621 0.744859 0.603920 -0.594595
C39   C     C_3   0.631066 0.745548 0.736345 0.140003
H13   H     H_    0.563011 0.726320 0.767922 0.172541
H14   H     H_    0.646859 0.815913 0.775116 0.135588
C40   C     C_3   0.696143 0.674049 0.790459 -0.820309
H15   H     H_    0.765686 0.692703 0.762618 0.240356
H16   H     H_    0.690327 0.673591 0.894589 0.211929
H17   H     H_    0.681088 0.602398 0.755436 0.266323
O10   O     O_3   0.356040 0.748282 0.407915 -0.574522
C41   C     C_3   0.355086 0.756409 0.275119 0.129602
H18   H     H_    0.391222 0.695662 0.233885 0.178741
H19   H     H_    0.386279 0.822175 0.237446 0.142701
C42   C     C_3   0.259195 0.753869 0.229537 -0.880428
H20   H     H_    0.220777 0.697752 0.278945 0.285134
H21   H     H_    0.225369 0.822329 0.246977 0.239869
H22   H     H_    0.259129 0.740128 0.126810 0.224735
C43   C     C_3   0.626847 0.676995 0.177918 -0.850324
H23   H     H_    0.683054 0.713600 0.129357 0.224212
H24   H     H_    0.608949 0.715498 0.265293 0.248287
H25   H     H_    0.652046 0.605754 0.202231 0.222189
C44   C     C_3   0.347229 0.659401 0.806278 -0.794699
H26   H     H_    0.284777 0.687829 0.849638 0.223116
H27   H     H_    0.363563 0.698796 0.718417 0.255838
H28   H     H_    0.333195 0.585590 0.781742 0.264883
C45   C     C_3   0.551983 0.852153 0.083897 -0.879263
H29   H     H_    0.546167 0.858009 0.187779 0.258713
H30   H     H_    0.623324 0.854915 0.054696 0.235389
H31   H     H_    0.519488 0.915471 0.044285 0.261298
C46   C     C_3   0.401824 0.845632 0.905201 -0.885255
H32   H     H_    0.452365 0.890485 0.856491 0.269667
H33   H     H_    0.347243 0.835330 0.838241 0.251447
H34   H     H_    0.372595 0.883482 0.987343 0.238018
C47   C     C_3   0.254416 0.497912 0.252184 -0.872196
H35   H     H_    0.303935 0.555495 0.253010 0.248761
H36   H     H_    0.290981 0.429743 0.247060 0.243489
H37   H     H_    0.214226 0.505591 0.165919 0.235686
C48   C     C_3   0.787422 0.682572 0.436405 -0.760101
H38   H     H_    0.793373 0.720103 0.526955 0.267225
H39   H     H_    0.828391 0.721384 0.365152 0.197526
H40   H     H_    0.719403 0.686797 0.400627 0.272405
O11   O     O_3   0.217543 0.475643 0.716596 -0.640954
C49   C     C_3   0.223800 0.379455 0.750380 0.116462
H41   H     H_    0.281158 0.346090 0.699546 0.134549
H42   H     H_    0.161830 0.339500 0.729740 0.171075
C50   C     C_3   0.239312 0.371908 0.891020 -0.844247
H43   H     H_    0.180749 0.400854 0.943808 0.262165
H44   H     H_    0.248883 0.296923 0.918195 0.200013
H45   H     H_    0.299530 0.412298 0.916363 0.265357
O12   O     O_3   0.766191 0.332579 0.407413 -0.572621
C51   C     C_3   0.780669 0.315176 0.277060 0.119439
H46   H     H_    0.770828 0.239328 0.260078 0.142418
H47   H     H_    0.849646 0.330206 0.242586 0.123871
C52   C     C_3   0.715673 0.370944 0.196873 -0.930939
H48   H     H_    0.728473 0.447613 0.204605 0.236900
H49   H     H_    0.723655 0.350177 0.096773 0.232345
H50   H     H_    0.646671 0.355960 0.228340 0.268462
O13   O     O_3   0.032214 0.470449 0.692705 -0.585809
C53   C     C_3   0.020814 0.558071 0.753423 0.136433
H51   H     H_    0.002560 0.615165 0.686051 0.120121
H52   H     H_    0.082919 0.578068 0.802298 0.177094
C54   C     C_3   0.945601 0.549878 0.850834 -0.835188
H53   H     H_    0.962090 0.494795 0.921372 0.256531
H54   H     H_    0.936032 0.618270 0.899660 0.200787
H55   H     H_    0.882459 0.530880 0.804165 0.263868
O14   O     O_3   0.944249 0.315804 0.466057 -0.577124
C55   C     C_3   0.008337 0.293969 0.371041 0.108580
H56   H     H_    0.076331 0.305032 0.408063 0.165992
H57   H     H_    0.000899 0.336412 0.283268 0.103740
C56   C     C_3   0.000554 0.190324 0.337233 -0.838915
H58   H     H_    0.933320 0.175694 0.299891 0.243052
H59   H     H_    0.051707 0.171909 0.264422 0.206667
H60   H     H_    0.011277 0.145759 0.421837 0.263608
O15   O     O_3   0.412175 0.059277 0.701947 -0.605798
C57   C     C_3   0.332127 0.105766 0.739747 0.091130
H61   H     H_    0.295646 0.135756 0.658041 0.121829
H62   H     H_    0.347108 0.162816 0.807326 0.141176
C58   C     C_3   0.269892 0.036437 0.805801 -0.842863
H63   H     H_    0.298558 0.014214 0.896635 0.255625
H64   H     H_    0.204333 0.070788 0.825228 0.208557
H65   H     H_    0.259462 0.973865 0.745612 0.261914
O16   O     O_3   0.575139 0.050093 0.306377 -0.609266
C59   C     C_3   0.659190 0.086125 0.267903 0.100090
H66   H     H_    0.699048 0.109358 0.349629 0.148096
H67   H     H_    0.649817 0.145704 0.201129 0.144652
C60   C     C_3   0.712825 0.010205 0.199907 -0.855887
H68   H     H_    0.684188 0.997858 0.106110 0.253516
H69   H     H_    0.782950 0.033795 0.186149 0.206291
H70   H     H_    0.712354 0.943728 0.255595 0.269006

loop_
_geom_bond_atom_site_label_1
_geom_bond_atom_site_label_2
_ccdc_geom_bond_type
C45   H29   S    
C4    C36   A    
C47   H35   S    
C11   C13   A    
C6    O12   S    
C19   O10   S    
C60   H68   S    
C24   C27   A    
C21   O7    A    
C37   H7    S    
C56   H60   S    
C55   H56   S    
C13   H5    S    
C47   H37   S    
C54   H53   S    
C2    O2    A    
O4    Zn2   S    
C33   H3    S    
C34   H4    S    
C22   O8    A    
C28   C29   A    
C60   H69   S    
C24   C44   S    
C24   C26   A    
C18   N2    A    
C41   C42   S    
C58   H65   S    
C18   O9    S    
C54   H54   S    
C52   H48   S    
C25   C45   S    
C17   C20   A    
C51   H46   S    
N1    Zn2   S    
C17   C19   A    
C11   C15   A    
N2    Zn1   S    
C48   H38   S    
O8    Zn2   S    
C52   H49   S    
C50   H43   S    
C32   H2    S    
C9    C10   S    
C53   C54   S    
C22   O6    A    
O1    Zn1   S    
C38   H10   S    
C27   C30   A    
C9    C33   A    
C5    O11   S    
C50   H44   S    
C59   C60   S    
C49   H42   S    
C49   H41   S    
C53   H52   S    
C15   C20   S    
C38   H11   S    
O6    Zn1   S    
C40   H15   S    
C39   C40   S    
C7    O13   S    
O15   C57   S    
C60   H70   S    
C43   H23   S    
C41   H19   S    
C46   H32   S    
C43   H24   S    
C1    O3    A    
C54   H55   S    
C6    C8    A    
C3    C5    A    
C26   C46   S    
C21   C29   S    
C31   H1    S    
C1    C3    S    
C39   H14   S    
C2    C4    S    
C42   H20   S    
C11   O15   S    
C46   H33   S    
C59   H67   S    
C8    O14   S    
C44   H26   S    
C12   C15   A    
C3    C35   A    
C16   C20   A    
C52   H50   S    
C48   H40   S    
C10   C34   A    
C16   C18   A    
C23   C28   A    
C49   C50   S    
O13   C53   S    
C42   H21   S    
C17   C38   S    
O3    Zn2   S    
C21   O5    A    
C4    C6    A    
C44   H27   S    
C12   C14   A    
C45   H30   S    
C50   H45   S    
C45   H31   S    
O14   C55   S    
C55   C56   S    
C13   N1    A    
C19   N2    A    
C57   H62   S    
C5    C7    A    
C40   H16   S    
C7    C9    A    
C38   H12   S    
C22   C30   S    
O12   C51   S    
C48   H39   S    
C31   C32   A    
C41   H18   S    
C56   H59   S    
C55   H57   S    
C43   H25   S    
C58   H63   S    
C47   H36   S    
C35   C47   S    
C12   O16   S    
C14   H6    S    
C59   H66   S    
O7    Zn2   S    
C2    O4    A    
C39   H13   S    
C40   H17   S    
C37   H8    S    
C25   C26   A    
C16   C37   S    
O10   C41   S    
C29   C31   A    
C57   C58   S    
C46   H34   S    
C30   C32   A    
C58   H64   S    
C1    O1    A    
O5    Zn1   S    
O2    Zn1   S    
C33   C35   A    
C36   C48   S    
C34   C36   A    
C23   C25   A    
C56   H58   S    
C42   H22   S    
O9    C39   S    
C51   H47   S    
C44   H28   S    
C8    C10   A    
C37   H9    S    
O11   C49   S    
C53   H51   S    
C57   H61   S    
C23   C43   S    
C51   C52   S    
O16   C59   S    
C14   N1    A    
C27   C28   A    
