data_mof_unit_26885.cif
_audit_creation_date              2012-10-26T19:29:41-0400
_audit_creation_method            fapswitch 2.2
_symmetry_space_group_name_H-M    P1
_symmetry_Int_Tables_number       1
_space_group_crystal_system       triclinic
_cell_length_a                    15.894527
_cell_length_b                    14.693398
_cell_length_c                    10.64204
_cell_angle_alpha                 90.2437
_cell_angle_beta                  90.301927
_cell_angle_gamma                 90.027447
_cell_volume                      2485.3337924

loop_
_atom_site_label
_atom_site_type_symbol
_atom_type_description
_atom_site_fract_x
_atom_site_fract_y
_atom_site_fract_z
_atom_type_partial_charge
C1    C     C_R   0.339871 0.499992 0.499537 0.567393
C2    C     C_3   0.947724 0.512976 0.344880 0.154879
C3    C     C_3   0.048804 0.519520 0.351127 0.415722
C4    C     C_1   0.824533 0.500300 0.492805 -0.093339
C5    C     C_1   0.175133 0.500235 0.495047 -0.070875
C6    C     C_R   0.499961 0.499758 0.258813 0.542299
C7    C     C_1   0.250509 0.500023 0.497425 -0.043776
C8    C     C_3   0.585003 0.053096 0.563893 -0.097590
C9    C     C_3   0.581336 0.945110 0.578758 -0.082450
C10   C     C_3   0.480191 0.051485 0.379955 0.068586
C11   C     C_3   0.492954 0.945582 0.378886 0.105311
C12   C     C_3   0.500657 0.499221 0.122488 -0.002766
C13   C     C_3   0.497424 0.092382 0.514945 -0.015001
C14   C     C_3   0.497083 0.907291 0.516854 0.012435
C15   C     C_3   0.415807 0.945502 0.591381 0.225933
C16   C     C_3   0.423767 0.057166 0.604377 0.276261
C17   C     C_1   0.499975 0.804525 0.508108 0.151552
C18   C     C_1   0.500136 0.195478 0.506941 0.158097
C19   C     C_R   0.659973 0.500037 0.499832 0.537843
C20   C     C_R   0.500768 0.500248 0.740909 0.587664
C21   C     C_3   0.435730 0.550348 0.041455 -0.123433
C22   C     C_3   0.493809 0.413047 0.039928 -0.112492
C23   C     C_3   0.049507 0.577220 0.586636 0.264833
C24   C     C_3   0.430750 0.465189 0.957785 0.238229
C25   C     C_3   0.502066 0.500906 0.877182 0.064465
C26   C     C_3   0.509018 0.586920 0.959930 -0.126628
C27   C     C_3   0.566942 0.449799 0.958283 -0.142482
C28   C     C_3   0.573126 0.535358 0.042672 0.006992
C29   C     C_3   0.903829 0.595842 0.273411 -0.196685
C30   C     C_3   0.888962 0.687911 0.336246 -0.429947
C31   C     C_3   0.917882 0.427037 0.263528 -0.234151
C32   C     C_3   0.927012 0.434121 0.119560 -0.403475
C33   C     C_3   0.338594 0.109347 0.576950 -0.199081
C34   C     C_3   0.048463 0.404071 0.541507 0.253114
C35   C     C_3   0.275770 0.105899 0.686409 -0.364696
C36   C     C_3   0.330342 0.916048 0.524426 -0.258836
C37   C     C_3   0.313044 0.814113 0.505599 -0.419671
C38   C     C_3   0.626696 0.107557 0.675507 -0.261898
C39   C     C_3   0.722683 0.112644 0.664084 -0.472344
C40   C     C_3   0.604931 0.907565 0.712527 -0.286693
C41   C     C_3   0.624239 0.805511 0.718653 -0.429465
C42   C     C_3   0.654735 0.574911 0.096511 -0.260289
C43   C     C_3   0.715944 0.600172 0.992445 -0.450923
C44   C     C_3   0.083458 0.319523 0.467143 -0.249148
C45   C     C_3   0.949889 0.407853 0.538712 -0.165447
C46   C     C_3   0.061416 0.227902 0.527393 -0.433659
C47   C     C_3   0.086109 0.674859 0.560813 -0.234135
C48   C     C_3   0.069858 0.744531 0.665630 -0.457156
C49   C     C_3   0.951004 0.575467 0.578377 -0.197915
C50   C     C_1   0.749261 0.500156 0.496878 -0.044305
C51   C     C_3   0.082542 0.500646 0.492153 0.127631
C52   C     C_3   0.916619 0.500399 0.486172 -0.038234
Cu1   Cu    Cu3+1 0.499910 0.589920 0.499840 0.957195
Cu2   Cu    Cu3+1 0.499910 0.410080 0.499840 1.001869
H1    H     H_    0.634061 0.918631 0.520831 0.136949
H2    H     H_    0.925491 0.399197 0.635962 0.170131
H3    H     H_    0.921862 0.349464 0.487368 0.075035
H4    H     H_    0.926330 0.643560 0.557807 0.099653
H5    H     H_    0.322202 0.411577 0.982160 0.324564
H6    H     H_    0.840434 0.683003 0.410390 0.143112
H7    H     H_    0.947617 0.718828 0.370785 0.171780
H8    H     H_    0.863095 0.735393 0.264853 0.126428
H9    H     H_    0.938882 0.609665 0.185407 0.186353
H10   H     H_    0.839603 0.574549 0.243121 0.118720
H11   H     H_    0.875310 0.475375 0.078548 0.110468
H12   H     H_    0.629356 0.064784 0.485558 0.108285
H13   H     H_    0.987872 0.464511 0.091683 0.225366
H14   H     H_    0.922564 0.365121 0.076984 0.140450
H15   H     H_    0.950522 0.364411 0.290557 0.153521
H16   H     H_    0.850325 0.412822 0.281387 0.118957
H17   H     H_    0.580922 0.112611 0.311209 0.318419
H18   H     H_    0.611041 0.957566 0.324270 0.330473
H19   H     H_    0.479222 0.040006 0.770906 0.364862
H20   H     H_    0.422844 0.842738 0.710751 0.326054
H21   H     H_    0.276846 0.039581 0.735637 0.193213
H22   H     H_    0.291415 0.159453 0.756797 0.195094
H23   H     H_    0.413142 0.063955 0.356937 0.130448
H24   H     H_    0.211126 0.118761 0.650867 0.096084
H25   H     H_    0.350075 0.182877 0.562122 0.158981
H26   H     H_    0.306873 0.087598 0.489278 0.066654
H27   H     H_    0.348209 0.787015 0.423964 0.156858
H28   H     H_    0.326780 0.773948 0.591150 0.173834
H29   H     H_    0.245317 0.804497 0.482916 0.124389
H30   H     H_    0.276905 0.940114 0.581621 0.170202
H31   H     H_    0.322841 0.948121 0.431235 0.078575
H32   H     H_    0.750564 0.044025 0.651674 0.144476
H33   H     H_    0.740098 0.155167 0.582143 0.146438
H34   H     H_    0.437833 0.915178 0.329991 0.154830
H35   H     H_    0.749814 0.144341 0.750126 0.146980
H36   H     H_    0.604320 0.178843 0.679320 0.183886
H37   H     H_    0.611075 0.079612 0.768750 0.157904
H38   H     H_    0.565557 0.765502 0.728936 0.169792
H39   H     H_    0.659765 0.782394 0.634805 0.160338
H40   H     H_    0.663295 0.791396 0.803180 0.125824
H41   H     H_    0.664134 0.940342 0.744018 0.146335
H42   H     H_    0.557566 0.923185 0.784618 0.190605
H43   H     H_    0.734420 0.538610 0.938352 0.145728
H44   H     H_    0.686664 0.650147 0.927702 0.153405
H45   H     H_    0.381395 0.589830 0.077604 0.122068
H46   H     H_    0.773415 0.631070 0.034296 0.129723
H47   H     H_    0.639870 0.636512 0.153021 0.174311
H48   H     H_    0.684674 0.523895 0.159198 0.137143
H49   H     H_    0.041766 0.587325 0.772503 0.322471
H50   H     H_    0.134612 0.386242 0.673134 0.354379
H51   H     H_    0.087425 0.223354 0.624123 0.183088
H52   H     H_    0.992378 0.217363 0.530472 0.143432
H53   H     H_    0.089248 0.171872 0.470915 0.123737
H54   H     H_    0.061892 0.315910 0.369241 0.171743
H55   H     H_    0.153182 0.323415 0.463253 0.142483
H56   H     H_    0.486034 0.342324 0.074300 0.149659
H57   H     H_    0.002087 0.747193 0.689919 0.130919
H58   H     H_    0.107429 0.728032 0.750778 0.180385
H59   H     H_    0.089503 0.813171 0.633649 0.131091
H60   H     H_    0.155289 0.671164 0.548430 0.157823
H61   H     H_    0.060259 0.705194 0.475156 0.163089
H62   H     H_    0.135527 0.610692 0.310683 0.311281
H63   H     H_    0.145382 0.466317 0.259901 0.322084
H64   H     H_    0.516120 0.657607 0.925054 0.126178
H65   H     H_    0.620629 0.409587 0.921488 0.112860
H66   H     H_    0.924273 0.561350 0.672829 0.117051
N1    N     N_1   0.501390 0.724970 0.502570 -0.209778
N2    N     N_1   0.501390 0.275030 0.502570 -0.195703
O1    O     O_R   0.379360 0.575970 0.499860 -0.500139
O2    O     O_3   0.524254 0.094481 0.281732 -0.673259
O3    O     O_3   0.562441 0.917384 0.306343 -0.677305
O4    O     O_3   0.444286 0.085407 0.728127 -0.671196
O5    O     O_3   0.412253 0.909042 0.713866 -0.710433
O6    O     O_3   0.076409 0.554545 0.709611 -0.642735
O7    O     O_3   0.072328 0.390628 0.668278 -0.650823
O8    O     O_3   0.073237 0.606531 0.309324 -0.737008
O9    O     O_3   0.084136 0.455007 0.267922 -0.739679
O10   O     O_R   0.379360 0.424030 0.499860 -0.485837
O11   O     O_R   0.499910 0.575920 0.316720 -0.493124
O12   O     O_R   0.499910 0.424080 0.316720 -0.499306
O13   O     O_R   0.620490 0.575900 0.499870 -0.497235
O14   O     O_R   0.620490 0.424100 0.499870 -0.499605
O15   O     O_R   0.499950 0.575950 0.683010 -0.518263
O16   O     O_R   0.499950 0.424050 0.683010 -0.470522
O17   O     O_3   0.356385 0.428609 0.908258 -0.674815

loop_
_geom_bond_atom_site_label_1
_geom_bond_atom_site_label_2
_ccdc_geom_bond_type
C47   H60   S    
C21   C26   S    
C29   H9    S    
C8    H12   S    
C8    C13   S    
C3    O8    S    
Cu1   O13   S    
C43   H44   S    
C39   H33   S    
C1    O10   A    
C23   O6    S    
C41   H40   S    
Cu1   Cu2   S    
C47   H61   S    
C35   H21   S    
C34   C51   S    
C13   C18   S    
C12   C28   S    
C2    C29   S    
Cu1   O15   S    
C36   C37   S    
C11   O3    S    
C6    O11   A    
C10   O2    S    
C6    C12   S    
C38   C39   S    
C21   H45   S    
C11   C14   S    
C23   C49   S    
C49   H66   S    
C20   C25   S    
C19   O13   A    
H19   O4    S    
Cu2   O12   S    
C46   H51   S    
C12   C22   S    
C20   O16   A    
C31   H16   S    
C41   H39   S    
C47   C48   S    
C34   O7    S    
C8    C9    S    
C22   H56   S    
C30   H6    S    
C9    H1    S    
C32   H14   S    
C44   H55   S    
Cu2   N2    S    
C29   H10   S    
Cu2   O14   S    
C15   O5    S    
C14   C17   S    
C37   H27   S    
C8    C38   S    
C40   H42   S    
C42   H48   S    
C10   H23   S    
C44   C46   S    
C44   H54   S    
C24   O17   S    
C35   H22   S    
C23   C47   S    
C30   H7    S    
C43   H43   S    
H17   O2    S    
Cu1   O11   S    
C43   H46   S    
C45   H2    S    
Cu1   O1    S    
C5    C7    T    
C3    C51   S    
C33   H25   S    
C45   C52   S    
C19   O14   A    
C12   C21   S    
C9    C40   S    
C49   H4    S    
C4    C50   T    
C2    C31   S    
C20   O15   A    
C9    C14   S    
C1    O1    A    
C29   C30   S    
C16   C33   S    
C23   C51   S    
H20   O5    S    
H5    O17   S    
C11   H34   S    
C49   C52   S    
C45   H3    S    
C46   H53   S    
C48   H57   S    
C34   C44   S    
C34   C45   S    
C24   C25   S    
H49   O6    S    
C2    C52   S    
C18   N2    T    
C32   H13   S    
C17   N1    T    
C40   C41   S    
C48   H58   S    
C4    C52   S    
H50   O7    S    
C30   H8    S    
C3    O9    S    
C37   H28   S    
C13   C16   S    
C42   C43   S    
C40   H41   S    
C42   H47   S    
C15   C36   S    
C1    C7    S    
C31   C32   S    
C37   H29   S    
C26   H64   S    
C10   C13   S    
C33   H26   S    
C27   H65   S    
C36   H31   S    
C25   C27   S    
Cu2   O10   S    
C38   H36   S    
C35   H24   S    
C26   C28   S    
H18   O3    S    
C22   C27   S    
C32   H11   S    
C2    C3    S    
C25   C26   S    
C6    O12   A    
Cu1   N1    S    
C19   C50   S    
Cu2   O16   S    
C36   H30   S    
C38   H37   S    
C28   C42   S    
C33   C35   S    
C22   C24   S    
H63   O9    S    
C10   C11   S    
C46   H52   S    
C31   H15   S    
C41   H38   S    
H62   O8    S    
C21   C24   S    
C27   C28   S    
C14   C15   S    
C5    C51   S    
C39   H32   S    
C16   O4    S    
C39   H35   S    
C15   C16   S    
C48   H59   S    
