data_mof_unit_23798.cif
_audit_creation_date              2012-12-10T16:35:14-0500
_audit_creation_method            fapswitch 2.2
_symmetry_space_group_name_H-M    P1
_symmetry_Int_Tables_number       1
_space_group_crystal_system       triclinic
_cell_length_a                    10.88523
_cell_length_b                    10.888395
_cell_length_c                    10.901774
_cell_angle_alpha                 81.038488
_cell_angle_beta                  98.39795
_cell_angle_gamma                 90.802571
_cell_volume                      1262.59905404

loop_
_atom_site_label
_atom_site_type_symbol
_atom_type_description
_atom_site_fract_x
_atom_site_fract_y
_atom_site_fract_z
_atom_type_partial_charge
C1    C     C_R   0.833924 0.471819 0.529561 0.585167
C2    C     C_2   0.455945 0.032382 0.515481 0.189745
C3    C     C_2   0.542235 0.965383 0.474525 0.207086
C4    C     C_2   0.028471 0.527914 0.457013 0.002297
C5    C     C_2   0.962051 0.600462 0.338124 0.572663
C6    C     C_2   0.965954 0.463843 0.545945 0.209034
C7    C     C_2   0.476734 0.542323 0.024803 0.145483
C8    C     C_2   0.531895 0.456448 0.971412 0.209609
C9    C     C_R   0.164079 0.525624 0.472303 0.534123
C10   C     C_R   0.523513 0.472051 0.838043 0.597381
C11   C     C_R   0.477619 0.527638 0.160494 0.514334
C12   C     C_R   0.525651 0.834281 0.476520 0.586767
C13   C     C_R   0.475084 0.164466 0.521566 0.542854
H1    H     H_    0.154734 0.015454 0.633999 0.394364
H2    H     H_    0.870595 0.928351 0.441429 0.391748
H3    H     H_    0.818302 0.712511 0.252517 0.363166
H4    H     H_    0.959293 0.303734 0.866426 0.391934
H5    H     H_    0.251348 0.731611 0.017229 0.379307
H6    H     H_    0.665941 0.146803 0.986914 0.395303
O1    O     O_3   0.500000 0.500000 0.500000 -0.534182
O2    O     O_R   0.597340 0.765700 0.560080 -0.478066
O3    O     O_R   0.548200 0.222430 0.451790 -0.485691
O4    O     O_R   0.441590 0.789440 0.401000 -0.494482
O5    O     O_R   0.412860 0.222430 0.587130 -0.467311
O6    O     O_2   0.231824 0.952431 0.426565 -0.256405
O7    O     O_2   0.331270 0.841253 0.628165 -0.227931
O8    O     O_3   0.234643 0.057868 0.624306 -0.425395
O9    O     O_2   0.693698 0.101506 0.332287 -0.190282
O10   O     O_2   0.751326 0.081494 0.561082 -0.246142
O11   O     O_3   0.787881 0.892708 0.452063 -0.481309
O12   O     O_R   0.441590 0.410520 0.779910 -0.475536
O13   O     O_2   0.003842 0.602386 0.239597 -0.443349
O14   O     O_R   0.853691 0.667771 0.338849 -0.675500
O15   O     O_2   0.096442 0.268699 0.684090 -0.211028
O16   O     O_2   0.120084 0.468563 0.762942 -0.214947
O17   O     O_3   0.916524 0.345861 0.784531 -0.487447
O18   O     O_2   0.503984 0.756375 0.872247 -0.207026
O19   O     O_2   0.311576 0.643216 0.827681 -0.239048
O20   O     O_3   0.334936 0.767980 0.013636 -0.424127
O21   O     O_2   0.715516 0.329483 0.131437 -0.213533
O22   O     O_2   0.506372 0.238974 0.121859 -0.225388
O23   O     O_R   0.548210 0.443940 0.230290 -0.486781
O24   O     O_3   0.630246 0.225931 0.938281 -0.492576
O25   O     O_R   0.787780 0.544200 0.591150 -0.482499
O26   O     O_R   0.222430 0.601350 0.398650 -0.492178
O27   O     O_R   0.767360 0.410530 0.454140 -0.499311
O28   O     O_R   0.222430 0.443930 0.556060 -0.473397
O29   O     O_R   0.597340 0.544190 0.781580 -0.504704
O30   O     O_R   0.412870 0.601350 0.208220 -0.508078
S1    S     S_3+6 0.310675 0.966833 0.548610 0.071174
S2    S     S_3+6 0.696633 0.015480 0.454692 0.076756
S3    S     S_3+6 0.030580 0.385285 0.697254 0.093246
S4    S     S_3+6 0.405673 0.679587 0.930678 0.081006
S5    S     S_3+6 0.597246 0.309827 0.046791 0.089946
Zn1   Zn    Zn3+2 0.396020 0.396030 0.603970 1.126374
Zn2   Zn    Zn3+2 0.618560 0.587010 0.606350 1.115684
Zn3   Zn    Zn3+2 0.396030 0.620930 0.379070 1.076479
Zn4   Zn    Zn3+2 0.589390 0.396030 0.410610 1.100619

loop_
_geom_bond_atom_site_label_1
_geom_bond_atom_site_label_2
_ccdc_geom_bond_type
O3    Zn4   S    
O2    Zn2   S    
H5    O20   S    
C9    O26   A    
C11   O30   A    
H4    O17   S    
H3    O14   S    
C2    S1    S    
O25   Zn2   S    
O24   S5    S    
O15   S3    D    
O17   S3    S    
O8    S1    S    
O29   Zn2   S    
O1    Zn2   S    
C5    O13   D    
O18   S4    D    
O23   Zn4   S    
C2    C3    D    
C4    C9    S    
O28   Zn1   S    
C7    C8    D    
O27   Zn4   S    
O5    Zn1   S    
C7    C11   S    
C12   O4    A    
O26   Zn3   S    
C1    O27   A    
O20   S4    S    
O19   S4    D    
H2    O11   S    
O1    Zn1   S    
O12   Zn1   S    
C10   O12   A    
C4    C6    D    
O11   S2    S    
H6    O24   S    
C13   O3    A    
C9    O28   A    
O21   S5    D    
O7    S1    D    
C10   O29   A    
H1    O8    S    
O9    S2    D    
O22   S5    D    
C7    S4    S    
O1    Zn4   S    
C1    C6    S    
O30   Zn3   S    
C11   O23   A    
C8    C10   S    
O10   S2    D    
C8    S5    S    
O16   S3    D    
O4    Zn3   S    
C2    C13   S    
C3    S2    S    
O6    S1    D    
C3    C12   S    
C1    O25   A    
C6    S3    S    
O1    Zn3   S    
C12   O2    A    
C13   O5    A    
C4    C5    S    
C5    O14   S    
