data_mof_unit_7308.cif
_audit_creation_date              2012-12-10T19:25:46-0500
_audit_creation_method            fapswitch 2.2
_symmetry_space_group_name_H-M    P1
_symmetry_Int_Tables_number       1
_space_group_crystal_system       triclinic
_cell_length_a                    9.844171
_cell_length_b                    10.497197
_cell_length_c                    16.901959
_cell_angle_alpha                 90.872659
_cell_angle_beta                  82.841352
_cell_angle_gamma                 90.343386
_cell_volume                      1732.75369153

loop_
_atom_site_label
_atom_site_type_symbol
_atom_type_description
_atom_site_fract_x
_atom_site_fract_y
_atom_site_fract_z
_atom_type_partial_charge
C1    C     C_R   0.500504 0.741963 0.498901 0.923048
C2    C     C_R   0.499871 0.257947 0.499412 1.010150
C3    C     C_3   0.461528 0.955213 0.429185 -0.240442
C4    C     C_3   0.539541 0.044389 0.567569 -0.175313
C5    C     C_3   0.587353 0.039679 0.437460 0.002211
C6    C     C_3   0.413596 0.960233 0.559355 0.042604
C7    C     C_3   0.499972 0.122891 0.498303 -0.046625
C8    C     C_3   0.500908 0.876924 0.498601 -0.044923
C9    C     C_3   0.372800 0.040364 0.490930 -0.140447
C10   C     C_3   0.628143 0.959383 0.505828 -0.170374
C11   C     C_3   0.940539 0.576501 0.554267 0.025351
C12   C     C_3   0.059657 0.423464 0.445646 0.018223
C13   C     C_3   0.050989 0.612016 0.486303 -0.087336
C14   C     C_3   0.949083 0.387908 0.513586 -0.084285
C15   C     C_3   0.033520 0.464416 0.567896 -0.023699
C16   C     C_3   0.966510 0.535505 0.432036 -0.049309
C17   C     C_R   0.478008 0.501829 0.652598 1.039618
C18   C     C_R   0.521819 0.499558 0.347638 0.917489
C19   C     C_R   0.456063 0.512190 0.739332 -0.095588
C20   C     C_R   0.542594 0.500952 0.261166 -0.131548
C21   C     C_R   0.497670 0.624693 0.777632 -0.073754
C22   C     C_R   0.505652 0.392862 0.217083 -0.039033
C23   C     C_R   0.472885 0.634804 0.860888 -0.055431
C24   C     C_R   0.524071 0.397983 0.133640 -0.052341
C25   C     C_R   0.413311 0.532432 0.905268 0.088322
C26   C     C_R   0.571512 0.510843 0.095659 0.046144
C27   C     C_R   0.359347 0.427082 0.867475 -0.044220
C28   C     C_R   0.618761 0.613719 0.138879 -0.003279
C29   C     C_R   0.382481 0.414694 0.783984 -0.057780
C30   C     C_R   0.604010 0.609942 0.222702 -0.079438
C31   C     C_2   0.428596 0.525331 0.990002 -0.178924
C32   C     C_2   0.554641 0.527479 0.011867 -0.205960
H1    H     H_    0.644277 0.546174 0.969128 0.178962
H2    H     H_    0.339719 0.504837 0.032942 0.181295
H3    H     H_    0.430269 0.915520 0.372904 0.150610
H4    H     H_    0.572256 0.082952 0.623729 0.189202
H5    H     H_    0.268310 0.075861 0.485820 0.182125
H6    H     H_    0.732581 0.923746 0.510972 0.187525
N1    N     N_3   0.136700 0.499970 0.500060 -0.176630
N2    N     N_3   0.863300 0.500030 0.499940 -0.176702
O1    O     O_R   0.383390 0.686040 0.500000 -0.633062
O2    O     O_R   0.616610 0.313960 0.500000 -0.632594
O3    O     O_R   0.616650 0.686050 0.499970 -0.646220
O4    O     O_R   0.383350 0.313950 0.500030 -0.632231
O5    O     O_R   0.369590 0.500020 0.615820 -0.595877
O6    O     O_R   0.630410 0.499980 0.384180 -0.616502
O7    O     O_R   0.602840 0.500020 0.615790 -0.615232
O8    O     O_R   0.397160 0.499980 0.384210 -0.615227
Zn1   Zn    Zn3+2 0.344250 0.499990 0.500020 0.983203
Zn2   Zn    Zn3+2 0.655750 0.500010 0.499980 0.976427
C33   C     C_2   0.567662 0.733016 0.733004 0.417199
H7    H     H_    0.634899 0.796247 0.761603 0.109477
O9    O     O_2   0.548691 0.755770 0.664959 -0.635439
C34   C     C_2   0.445914 0.274562 0.256028 0.438844
H8    H     H_    0.390338 0.206916 0.222924 0.099142
O10   O     O_2   0.459029 0.249407 0.324740 -0.630471
C35   C     C_2   0.868659 0.669387 0.612918 0.576784
H9    H     H_    0.813767 0.748435 0.591664 0.078948
O11   O     O_2   0.872573 0.658008 0.684255 -0.539808
C36   C     C_2   0.132920 0.331354 0.386857 0.590819
H10   H     H_    0.187222 0.251868 0.408058 0.072997
O12   O     O_2   0.131695 0.344374 0.315408 -0.533192
C37   C     C_2   0.078352 0.412626 0.642424 0.471105
H11   H     H_    0.131343 0.322168 0.639685 0.056558
O13   O     O_2   0.056142 0.470464 0.705766 -0.517135
C38   C     C_2   0.921326 0.586994 0.357511 0.499328
H12   H     H_    0.867930 0.677225 0.360257 0.060227
O14   O     O_2   0.943419 0.528999 0.294217 -0.490982
C39   C     C_2   0.643658 0.721669 0.271179 0.403213
H13   H     H_    0.596407 0.735683 0.331980 0.013452
O15   O     O_2   0.731465 0.797766 0.244837 -0.554469
C40   C     C_2   0.333998 0.296668 0.745487 0.381677
H14   H     H_    0.246461 0.244177 0.773962 0.100396
O16   O     O_2   0.393093 0.254276 0.683064 -0.646471
C41   C     C_1   0.287422 0.327925 0.915165 0.162570
N3    N     N_1   0.229586 0.249047 0.953052 -0.152248
C42   C     C_1   0.673869 0.725744 0.096709 0.296583
N4    N     N_1   0.718331 0.814976 0.063184 -0.134688
C43   C     C_1   0.498336 0.286181 0.085885 0.173688
N5    N     N_1   0.478596 0.196795 0.047977 -0.153527
C44   C     C_1   0.503405 0.752503 0.901627 0.159533
N6    N     N_1   0.527024 0.846667 0.933788 -0.159851
C45   C     C_1   0.684945 0.085229 0.371046 0.347644
N7    N     N_1   0.761988 0.121253 0.318762 -0.103721
C46   C     C_1   0.315983 0.915194 0.625944 0.332483
N8    N     N_1   0.239001 0.879559 0.678375 -0.137842
C47   C     C_2   0.112475 0.740227 0.466440 0.426984
H15   H     H_    0.184476 0.751311 0.412926 0.076849
O17   O     O_2   0.081213 0.832509 0.509442 -0.590244
C48   C     C_2   0.887680 0.259602 0.533226 0.416662
H16   H     H_    0.815929 0.248194 0.586812 0.085250
O18   O     O_2   0.918695 0.167606 0.489924 -0.590497

loop_
_geom_bond_atom_site_label_1
_geom_bond_atom_site_label_2
_ccdc_geom_bond_type
O4    Zn1   S    
C25   C31   S    
C38   O14   D    
C47   H15   S    
C4    H4    S    
C26   C32   S    
C27   C29   A    
C1    C8    S    
C2    C7    S    
C6    C9    S    
C37   O13   D    
C44   N6    T    
C48   H16   S    
C22   C34   S    
C20   C30   A    
C46   N8    T    
C6    C46   S    
C45   N7    T    
C19   C21   A    
C24   C26   A    
C5    C45   S    
C35   O11   D    
C36   O12   D    
C39   O15   D    
C14   C48   S    
C11   C15   S    
C1    O3    A    
C12   C16   S    
C2    O4    A    
C3    H3    S    
C29   C40   S    
C38   H12   S    
C39   H13   S    
C4    C7    S    
C27   C41   S    
C18   O6    A    
O1    Zn1   S    
O7    Zn2   S    
C34   O10   D    
C33   H7    S    
C40   O16   D    
C3    C8    S    
C5    C7    S    
C6    C8    S    
C42   N4    T    
C37   H11   S    
C36   H10   S    
C33   O9    D    
C41   N3    T    
C3    C9    S    
C24   C43   S    
C48   O18   D    
C31   C32   D    
O5    Zn1   S    
C13   C47   S    
C9    H5    S    
C31   H2    S    
C28   C42   S    
C15   N1    S    
O2    Zn2   S    
C4    C6    S    
O8    Zn1   S    
N1    Zn1   S    
C12   C14   S    
C21   C23   A    
C22   C24   A    
C16   C38   S    
C20   C22   A    
C4    C10   S    
C19   C29   A    
C16   N2    S    
C21   C33   S    
C30   C39   S    
C1    O1    A    
C7    C9    S    
C34   H8    S    
C23   C44   S    
C17   O7    A    
C17   O5    A    
C40   H14   S    
C3    C5    S    
C18   O8    A    
O3    Zn2   S    
C25   C27   A    
O6    Zn2   S    
C26   C28   A    
C10   H6    S    
C32   H1    S    
C12   N1    S    
C28   C30   A    
C5    C10   S    
C11   C13   S    
C35   H9    S    
C2    O2    A    
N2    Zn2   S    
C17   C19   S    
C18   C20   S    
C23   C25   A    
C11   N2    S    
C13   N1    S    
C14   N2    S    
C43   N5    T    
C12   C36   S    
C8    C10   S    
C13   C16   S    
C47   O17   D    
C15   C37   S    
C14   C15   S    
C11   C35   S    
