data_mof_unit_38477.cif
_audit_creation_date              2012-12-10T19:00:43-0500
_audit_creation_method            fapswitch 2.2
_symmetry_space_group_name_H-M    P1
_symmetry_Int_Tables_number       1
_space_group_crystal_system       triclinic
_cell_length_a                    15.050762
_cell_length_b                    10.81469
_cell_length_c                    9.562459
_cell_angle_alpha                 90.0
_cell_angle_beta                  89.830208
_cell_angle_gamma                 90.031557
_cell_volume                      1556.46792909

loop_
_atom_site_label
_atom_site_type_symbol
_atom_type_description
_atom_site_fract_x
_atom_site_fract_y
_atom_site_fract_z
_atom_type_partial_charge
C1    C     C_R   0.498402 0.262376 0.499992 0.816897
C2    C     C_R   0.907441 0.559254 0.395168 0.112353
C3    C     C_R   0.950203 0.359817 0.705221 -0.238456
C4    C     C_R   0.042673 0.356861 0.705754 -0.146615
C5    C     C_R   0.091957 0.421696 0.603913 0.037157
C6    C     C_R   0.046270 0.489824 0.500100 0.003503
C7    C     C_R   0.093561 0.555656 0.396495 0.115119
C8    C     C_R   0.047809 0.621955 0.293324 -0.181619
C9    C     C_R   0.955250 0.623632 0.292565 -0.212895
C10   C     C_R   0.185490 0.420345 0.603093 0.306469
C11   C     C_R   0.231945 0.489881 0.501255 -0.138565
C12   C     C_R   0.328810 0.495957 0.500374 0.872676
C13   C     C_R   0.185906 0.555196 0.398096 -0.302167
C14   C     C_R   0.491021 0.063591 0.625598 0.177075
C15   C     C_R   0.489651 0.129238 0.499998 -0.098071
C16   C     C_R   0.475709 0.064437 0.374466 -0.207821
C17   C     C_R   0.475734 0.935525 0.374451 -0.217703
C18   C     C_R   0.489695 0.870739 0.499976 -0.102499
C19   C     C_R   0.491048 0.936365 0.625583 0.136505
C20   C     C_3   0.555011 0.929793 0.744527 -0.479897
C21   C     C_3   0.554989 0.070234 0.744543 -0.473399
C22   C     C_R   0.575213 0.472326 0.073374 0.264303
C23   C     C_R   0.498421 0.737616 0.499962 0.793466
C24   C     C_R   0.424081 0.521922 0.074428 -0.078042
C25   C     C_R   0.424082 0.521866 0.926162 -0.032790
C26   C     C_R   0.575274 0.472531 0.925941 0.246838
C27   C     C_3   0.660833 0.542200 0.920670 -0.493225
C28   C     C_3   0.660901 0.541337 0.078809 -0.508940
C29   C     C_R   0.671116 0.499736 0.499773 0.803210
C30   C     C_R   0.814810 0.561232 0.395765 -0.260857
C31   C     C_R   0.767590 0.497349 0.499324 -0.061053
C32   C     C_R   0.812489 0.430209 0.602186 -0.255028
C33   C     C_R   0.905008 0.427041 0.602913 0.117481
C34   C     C_R   0.952934 0.492009 0.499409 0.084524
Cu1   Cu    Cu3+1 0.500000 0.499980 0.640670 0.970521
Cu2   Cu    Cu3+1 0.500000 0.500020 0.359330 0.944659
H1    H     H_    0.779445 0.614085 0.317369 0.143126
H2    H     H_    0.469047 0.887326 0.275747 0.168485
H3    H     H_    0.524273 0.889243 0.839938 0.205046
H4    H     H_    0.620023 0.888962 0.713840 0.195711
H5    H     H_    0.524230 0.110680 0.839965 0.211473
H6    H     H_    0.619992 0.111202 0.713862 0.189532
H7    H     H_    0.362829 0.541858 0.128955 0.149739
H8    H     H_    0.362864 0.541768 0.872093 0.173531
H9    H     H_    0.715703 0.486390 0.875526 0.196816
H10   H     H_    0.653329 0.636284 0.875185 0.212499
H11   H     H_    0.715338 0.484201 0.123149 0.202548
H12   H     H_    0.775286 0.378610 0.679951 0.135537
H13   H     H_    0.653696 0.634984 0.125567 0.209216
H14   H     H_    0.913974 0.309536 0.785185 0.146461
H15   H     H_    0.074685 0.304073 0.787325 0.203278
H16   H     H_    0.222322 0.607583 0.319909 0.158024
H17   H     H_    0.083669 0.672683 0.213334 0.146117
H18   H     H_    0.921063 0.675447 0.212027 0.146641
H19   H     H_    0.469009 0.112632 0.275772 0.172745
N1    N     N_R   0.500570 0.500930 0.147930 -0.191403
N2    N     N_R   0.500570 0.500890 0.852020 -0.191250
O1    O     O_R   0.500000 0.319640 0.618810 -0.559352
O2    O     O_R   0.500010 0.319680 0.381230 -0.584966
O3    O     O_R   0.370250 0.499950 0.618800 -0.548252
O4    O     O_R   0.370260 0.499990 0.381220 -0.600322
O5    O     O_R   0.499990 0.680320 0.618770 -0.581187
O6    O     O_R   0.500000 0.680360 0.381190 -0.587709
O7    O     O_R   0.629740 0.500010 0.618780 -0.590597
O8    O     O_R   0.629750 0.500050 0.381200 -0.585412
Cl1   Cl    Cl    0.244178 0.325939 0.723376 -0.659191

loop_
_geom_bond_atom_site_label_1
_geom_bond_atom_site_label_2
_ccdc_geom_bond_type
C8    H17   S    
C11   C12   S    
C28   H11   S    
C6    C7    A    
C1    C15   S    
C24   N1    A    
Cu2   O6    S    
C11   C13   A    
C28   H13   S    
C19   C20   S    
C2    C30   A    
Cu1   N2    S    
Cu2   O2    S    
C32   C33   A    
C27   H9    S    
C23   O6    A    
C17   C18   A    
C16   H19   S    
C5    C10   A    
C29   C31   S    
C22   C28   S    
C1    O1    A    
C24   C25   A    
C12   O4    A    
C32   H12   S    
C2    C34   A    
C26   C27   S    
Cu1   O7    S    
C25   N2    A    
Cu1   O1    S    
C29   O8    A    
C5    C6    A    
C14   C21   S    
Cu2   N1    S    
C9    H18   S    
C3    H14   S    
C33   C34   A    
Cu1   O5    S    
C17   H2    S    
C10   Cl1   S    
Cu2   O4    S    
C30   C31   A    
C20   H4    S    
C26   N2    A    
C21   H5    S    
C29   O7    A    
C7    C8    A    
C10   C11   A    
C3    C33   A    
C4    H15   S    
C18   C23   S    
C13   H16   S    
C6    C34   A    
C7    C13   A    
C27   H10   S    
C20   C21   S    
C25   H8    S    
C30   H1    S    
C18   C19   A    
C22   C26   A    
C1    O2    A    
C24   H7    S    
C20   H3    S    
Cu2   O8    S    
Cu1   O3    S    
C22   N1    A    
C21   H6    S    
C23   O5    A    
C14   C15   A    
C2    C9    A    
C4    C5    A    
C14   C19   A    
C31   C32   A    
C3    C4    A    
C15   C16   A    
C16   C17   A    
C8    C9    A    
C27   C28   S    
Cu1   Cu2   S    
C12   O3    A    
