data_mof_unit_36369.cif
_audit_creation_date              2012-12-10T17:55:51-0500
_audit_creation_method            fapswitch 2.2
_symmetry_space_group_name_H-M    P1
_symmetry_Int_Tables_number       1
_space_group_crystal_system       triclinic
_cell_length_a                    10.927702
_cell_length_b                    10.77067
_cell_length_c                    9.612292
_cell_angle_alpha                 88.743347
_cell_angle_beta                  100.922649
_cell_angle_gamma                 92.557173
_cell_volume                      1109.64732492

loop_
_atom_site_label
_atom_site_type_symbol
_atom_type_description
_atom_site_fract_x
_atom_site_fract_y
_atom_site_fract_z
_atom_type_partial_charge
C1    C     C_R   0.500219 0.262834 0.501191 0.808022
C2    C     C_R   0.500620 0.737090 0.498927 0.792907
C3    C     C_R   0.262171 0.497065 0.443934 0.872898
C4    C     C_R   0.737490 0.497418 0.555744 0.865269
C5    C     C_R   0.414420 0.428260 0.060425 0.482754
C6    C     C_R   0.585609 0.571932 0.939850 0.479655
C7    C     C_R   0.414445 0.427347 0.911808 0.293171
C8    C     C_R   0.587035 0.571159 0.089057 0.313328
C9    C     C_2   0.124904 0.492037 0.416568 -0.058259
C10   C     C_2   0.873689 0.488309 0.580720 -0.060616
C11   C     C_2   0.063375 0.423501 0.503521 0.311293
C12   C     C_2   0.925991 0.426145 0.486843 0.335686
C13   C     C_R   0.386997 0.061104 0.460930 0.088830
C14   C     C_R   0.614403 0.938500 0.537691 0.097967
C15   C     C_R   0.386019 0.931307 0.457604 0.397479
C16   C     C_R   0.615254 0.068351 0.541964 0.403272
C17   C     C_R   0.500160 0.871057 0.496460 -0.223791
C18   C     C_R   0.501020 0.128681 0.503366 -0.227274
Cu1   Cu    Cu3+1 0.500000 0.500020 0.640660 1.006509
Cu2   Cu    Cu3+1 0.500000 0.499980 0.359340 1.015985
N1    N     N_R   0.500030 0.500030 0.852080 -0.267070
N2    N     N_R   0.499970 0.499970 0.147920 -0.260755
O1    O     O_R   0.499990 0.319660 0.618740 -0.615214
O2    O     O_R   0.500010 0.680340 0.381260 -0.617041
O3    O     O_R   0.499990 0.319630 0.381170 -0.513134
O4    O     O_R   0.500010 0.680370 0.618830 -0.529246
O5    O     O_R   0.320690 0.500020 0.575130 -0.558157
O6    O     O_R   0.679310 0.499980 0.424870 -0.542217
O7    O     O_R   0.320680 0.499990 0.337560 -0.541527
O8    O     O_R   0.679320 0.500010 0.662440 -0.538215
O9    O     O_3   0.851568 0.361452 0.377029 -0.698796
H1    H     H_    0.906420 0.317343 0.325061 0.329563
O10   O     O_3   0.128124 0.348582 0.607789 -0.729978
H2    H     H_    0.067277 0.301219 0.655170 0.345355
O11   O     O_3   0.331062 0.354876 0.120903 -0.687174
H3    H     H_    0.272567 0.307866 0.047620 0.354529
O12   O     O_3   0.668605 0.645894 0.879551 -0.694918
H4    H     H_    0.723264 0.696907 0.952357 0.351328
C19   C     C_3   0.952012 0.552471 0.707608 -0.870678
H5    H     H_    0.893406 0.603619 0.767670 0.264550
H6    H     H_    0.003731 0.483022 0.780247 0.268371
H7    H     H_    0.019358 0.620759 0.672260 0.248491
C20   C     C_3   0.056161 0.567392 0.294104 -0.845174
H8    H     H_    0.121985 0.621484 0.238816 0.251016
H9    H     H_    0.997108 0.504938 0.216050 0.262909
H10   H     H_    0.996444 0.634208 0.333411 0.257584
O13   O     O_3   0.325574 0.351091 0.831670 -0.712068
H11   H     H_    0.348677 0.338979 0.740153 0.409846
O14   O     O_3   0.680545 0.641524 0.171293 -0.738895
H12   H     H_    0.655230 0.660287 0.260359 0.379663
C21   C     C_3   0.266248 0.128602 0.421205 -0.706855
H13   H     H_    0.270396 0.191794 0.329347 0.240510
H14   H     H_    0.182790 0.065458 0.392133 0.273767
H15   H     H_    0.252705 0.183967 0.512483 0.238462
C22   C     C_3   0.735268 0.870714 0.576270 -0.718981
H16   H     H_    0.732045 0.808647 0.669302 0.239542
H17   H     H_    0.748156 0.813778 0.485580 0.201162
H18   H     H_    0.818853 0.934002 0.603401 0.275876
O15   O     O_3   0.272253 0.867331 0.417135 -0.727540
H19   H     H_    0.282445 0.776645 0.419019 0.314720
O16   O     O_3   0.728928 0.132291 0.582965 -0.715361
H20   H     H_    0.718075 0.222648 0.585845 0.326660

loop_
_geom_bond_atom_site_label_1
_geom_bond_atom_site_label_2
_ccdc_geom_bond_type
Cu1   O1    S    
C22   H16   S    
C1    O1    A    
O12   H4    S    
C3    C9    S    
Cu1   O5    S    
C8    N2    A    
O9    H1    S    
C13   C15   A    
C20   H8    S    
C21   H15   S    
C3    O5    A    
C14   C22   S    
C6    O12   S    
O15   H19   S    
C2    O4    A    
C7    N1    A    
C6    N1    A    
C2    C17   S    
C1    O3    A    
C20   H9    S    
C14   C17   A    
C9    C11   D    
C1    C18   S    
C10   C12   D    
C13   C18   A    
C5    O11   S    
C16   C18   A    
Cu1   N1    S    
Cu2   N2    S    
O10   H2    S    
C19   H7    S    
Cu2   O7    S    
C22   H17   S    
C12   O9    S    
C2    O2    A    
O16   H20   S    
C20   H10   S    
C14   C16   A    
C9    C20   S    
Cu2   O3    S    
C4    C10   S    
C21   H13   S    
O13   H11   S    
Cu2   O2    S    
C11   O10   S    
C3    O7    A    
C19   H6    S    
C5    C7    A    
O14   H12   S    
C16   O16   S    
C22   H18   S    
C19   H5    S    
C15   C17   A    
Cu1   O4    S    
C6    C8    A    
Cu2   O6    S    
C4    O6    A    
C13   C21   S    
Cu1   O8    S    
C15   O15   S    
C8    O14   S    
C4    O8    A    
C5    N2    A    
Cu1   Cu2   S    
C11   C12   S    
C10   C19   S    
C21   H14   S    
O11   H3    S    
C7    O13   S    
