data_mof_unit_10264.cif
_audit_creation_date              2012-12-10T17:22:09-0500
_audit_creation_method            fapswitch 2.2
_symmetry_space_group_name_H-M    P1
_symmetry_Int_Tables_number       1
_space_group_crystal_system       triclinic
_cell_length_a                    15.89
_cell_length_b                    10.825792
_cell_length_c                    9.606102
_cell_angle_alpha                 90.59691
_cell_angle_beta                  89.669877
_cell_angle_gamma                 91.859858
_cell_volume                      1651.47483025

loop_
_atom_site_label
_atom_site_type_symbol
_atom_type_description
_atom_site_fract_x
_atom_site_fract_y
_atom_site_fract_z
_atom_type_partial_charge
C1    C     C_R   0.498714 0.262355 0.498786 0.787729
C2    C     C_3   0.949103 0.490354 0.653841 -0.390254
C3    C     C_3   0.917409 0.504856 0.502773 0.287628
C4    C     C_3   0.954277 0.627674 0.443692 -0.436619
C5    C     C_3   0.052342 0.628233 0.446216 0.004902
C6    C     C_1   0.825128 0.504399 0.500689 -0.096353
C7    C     C_1   0.175520 0.503555 0.503616 -0.074924
C8    C     C_1   0.250953 0.502300 0.501795 -0.179872
C9    C     C_R   0.369222 0.126150 0.654013 -0.175689
C10   C     C_R   0.309481 0.061310 0.733844 -0.152774
C11   C     C_R   0.309937 0.933146 0.738600 -0.137505
C12   C     C_R   0.340431 0.500388 0.500468 0.809014
C13   C     C_R   0.369836 0.869051 0.662928 -0.161828
C14   C     C_R   0.432103 0.932952 0.583052 0.096299
C15   C     C_R   0.432537 0.063615 0.579234 0.073991
C16   C     C_R   0.493398 0.127642 0.495267 -0.135654
C17   C     C_R   0.547661 0.061170 0.405779 0.079029
C18   C     C_R   0.546503 0.933455 0.412876 -0.234212
C19   C     C_R   0.491611 0.869897 0.501760 -0.120081
C20   C     C_R   0.611413 0.663427 0.144509 -0.139346
C21   C     C_R   0.664969 0.744445 0.072857 -0.227313
C22   C     C_R   0.664454 0.745172 0.929522 -0.208740
C23   C     C_R   0.496379 0.736758 0.500802 0.776849
C24   C     C_R   0.610462 0.664773 0.856982 -0.129542
C25   C     C_R   0.554328 0.580874 0.925619 0.205722
C26   C     C_R   0.554561 0.580503 0.075119 0.210501
C27   C     C_R   0.448309 0.423143 0.073463 -0.067283
C28   C     C_R   0.448326 0.423169 0.925642 -0.056206
C29   C     C_R   0.659720 0.501701 0.499712 0.800624
C30   C     C_3   0.047470 0.491048 0.657914 -0.093673
C31   C     C_3   0.047130 0.394774 0.415370 -0.380683
C32   C     C_3   0.949908 0.396381 0.413005 -0.401660
C33   C     C_1   0.749517 0.503411 0.499594 -0.181325
C34   C     C_3   0.083197 0.503537 0.505633 0.280511
Cu1   Cu    Cu3+1 0.499990 0.499990 0.640660 0.922309
Cu2   Cu    Cu3+1 0.500010 0.500010 0.359340 0.930812
H1    H     H_    0.921141 0.403200 0.697101 0.172050
H2    H     H_    0.069632 0.574877 0.717180 0.130785
H3    H     H_    0.926204 0.567196 0.720422 0.144266
H4    H     H_    0.930616 0.640553 0.336127 0.168762
H5    H     H_    0.363022 0.225011 0.648691 0.138991
H6    H     H_    0.261658 0.110711 0.790234 0.127545
H7    H     H_    0.262611 0.882955 0.798968 0.130160
H8    H     H_    0.365114 0.769349 0.665406 0.154362
H9    H     H_    0.590076 0.882166 0.349075 0.137623
H10   H     H_    0.405926 0.360062 0.128222 0.138446
H11   H     H_    0.617686 0.670267 0.254041 0.191698
H12   H     H_    0.707347 0.807015 0.129324 0.139341
H13   H     H_    0.706462 0.808271 0.873751 0.142848
H14   H     H_    0.615880 0.672714 0.747415 0.196258
H15   H     H_    0.405889 0.360165 0.870240 0.133531
H16   H     H_    0.072241 0.400138 0.307370 0.172188
H17   H     H_    0.067530 0.304948 0.456280 0.154277
H18   H     H_    0.923746 0.306963 0.453196 0.162383
H19   H     H_    0.928579 0.405507 0.303537 0.165453
H20   H     H_    0.074551 0.704178 0.517638 0.127764
H21   H     H_    0.931837 0.706788 0.507211 0.144145
N1    N     N_R   0.500800 0.501210 0.147910 -0.199850
N2    N     N_R   0.500820 0.501290 0.852040 -0.198848
O1    O     O_R   0.499990 0.319640 0.618810 -0.579822
O2    O     O_R   0.500000 0.319660 0.381240 -0.582351
O3    O     O_R   0.379430 0.499990 0.618840 -0.591558
O4    O     O_R   0.379440 0.500020 0.381260 -0.562080
O5    O     O_R   0.500000 0.680340 0.618760 -0.606121
O6    O     O_R   0.500010 0.680360 0.381190 -0.589185
O7    O     O_R   0.620560 0.499980 0.618740 -0.590233
O8    O     O_R   0.620570 0.500010 0.381160 -0.591748
C35   C     C_3   0.607334 0.120587 0.299866 -0.377816
C36   C     C_3   0.685555 0.179595 0.368688 -0.333593
C37   C     C_3   0.741256 0.244961 0.260619 -0.844331
H22   H     H_    0.761395 0.178525 0.179048 0.242506
H23   H     H_    0.706928 0.320705 0.211311 0.271778
H24   H     H_    0.798016 0.285072 0.311990 0.236386
H25   H     H_    0.667479 0.247221 0.449995 0.218170
H26   H     H_    0.722020 0.106695 0.419330 0.204513
H27   H     H_    0.629048 0.050003 0.223794 0.182442
H28   H     H_    0.574364 0.187554 0.234924 0.226682
C38   C     C_3   0.079423 0.377172 0.736985 -0.391146
C39   C     C_3   0.062370 0.386460 0.894370 -0.359479
C40   C     C_3   0.095524 0.274846 0.970039 -0.863610
H29   H     H_    0.064755 0.188223 0.929633 0.249293
H30   H     H_    0.164785 0.270092 0.955801 0.249240
H31   H     H_    0.081489 0.283066 0.082998 0.237482
H32   H     H_    0.093869 0.471632 0.937416 0.215923
H33   H     H_    0.993691 0.391431 0.914896 0.217033
H34   H     H_    0.048757 0.290859 0.695342 0.202402
H35   H     H_    0.148413 0.369659 0.721915 0.202886
N3    N     N_3   0.088466 0.654019 0.307977 -0.586054
H36   H     H_    0.075645 0.745204 0.282562 0.211750
H37   H     H_    0.059017 0.597462 0.232697 0.222078

loop_
_geom_bond_atom_site_label_1
_geom_bond_atom_site_label_2
_ccdc_geom_bond_type
C38   H35   S    
C10   H6    S    
C5    H20   S    
Cu1   Cu2   S    
C31   H16   S    
C3    C6    S    
Cu2   O8    S    
C7    C8    T    
Cu2   N1    S    
C39   H32   S    
C28   H15   S    
C15   C16   A    
C29   C33   S    
C30   H2    S    
Cu1   N2    S    
C18   C19   A    
C29   O8    A    
C5    N3    S    
C2    H3    S    
C4    H4    S    
C35   C36   S    
C4    H21   S    
C11   H7    S    
C37   H22   S    
Cu2   O4    S    
C9    C10   A    
C32   H19   S    
C21   H12   S    
N3    H36   S    
C38   H34   S    
C21   C22   A    
C3    C32   S    
C40   H31   S    
C32   H18   S    
C24   H14   S    
C30   C34   S    
C24   C25   A    
C40   H30   S    
C1    O1    A    
C12   O4    A    
C38   C39   S    
C16   C17   A    
Cu1   O7    S    
C25   C26   A    
C39   C40   S    
Cu1   O1    S    
C19   C23   S    
C12   O3    A    
C31   C32   S    
C8    C12   S    
C5    C34   S    
C37   H24   S    
C17   C18   A    
C31   C34   S    
C36   H25   S    
C1    C16   S    
C31   H17   S    
C26   N1    A    
Cu1   O5    S    
C22   H13   S    
C27   H10   S    
C23   O5    A    
N3    H37   S    
C7    C34   S    
C22   C24   A    
Cu2   O2    S    
C18   H9    S    
C39   H33   S    
C28   N2    A    
C35   H28   S    
C17   C35   S    
Cu2   O6    S    
C14   C19   A    
C40   H29   S    
C27   N1    A    
C1    O2    A    
C35   H27   S    
C9    H5    S    
C6    C33   T    
C2    C30   S    
C23   O6    A    
C2    C3    S    
C9    C15   A    
C11   C13   A    
C2    H1    S    
C20   C26   A    
C36   H26   S    
Cu1   O3    S    
C36   C37   S    
C20   H11   S    
C10   C11   A    
C29   O7    A    
C30   C38   S    
C4    C5    S    
C20   C21   A    
C27   C28   A    
C14   C15   A    
C37   H23   S    
C25   N2    A    
C13   C14   A    
C13   H8    S    
C3    C4    S    
