data_mof_unit_11556.cif
_audit_creation_date              2012-12-11T16:58:21-0500
_audit_creation_method            fapswitch 2.2
_symmetry_space_group_name_H-M    P1
_symmetry_Int_Tables_number       1
_space_group_crystal_system       triclinic
_cell_length_a                    16.894122
_cell_length_b                    7.242766
_cell_length_c                    16.871861
_cell_angle_alpha                 89.999903
_cell_angle_beta                  100.33991
_cell_angle_gamma                 90.00012
_cell_volume                      2030.91777489

loop_
_atom_site_label
_atom_site_type_symbol
_atom_type_description
_atom_site_fract_x
_atom_site_fract_y
_atom_site_fract_z
_atom_type_partial_charge
O1    O     O_R   0.413450 0.494370 0.415710 -0.525827
O2    O     O_R   0.586550 0.994370 0.584290 -0.525830
O3    O     O_R   0.578420 0.819350 0.429360 -0.530375
O4    O     O_R   0.421580 0.319350 0.570640 -0.530373
C1    C     C_R   0.604777 0.653963 0.413675 0.717048
C2    C     C_R   0.395223 0.153962 0.586325 0.717059
O5    O     O_R   0.413570 0.823780 0.406240 -0.544689
O6    O     O_R   0.586430 0.323780 0.593760 -0.544690
O7    O     O_R   0.420530 0.998740 0.561000 -0.548495
O8    O     O_R   0.579470 0.498740 0.439000 -0.548494
C3    C     C_R   0.387203 0.655211 0.382465 0.704021
C4    C     C_R   0.612797 0.155211 0.617535 0.704018
O9    O     O_3   0.502480 0.662320 0.550800 -0.380422
O10   O     O_3   0.497520 0.162320 0.449200 -0.380420
V1    V     V_3+5 0.499540 0.935370 0.490580 1.437481
V2    V     V_3+5 0.500460 0.435370 0.509420 1.437483
C5    C     C_R   0.738901 0.005292 0.690396 0.058270
C6    C     C_R   0.261098 0.505292 0.309604 0.058266
C7    C     C_R   0.681381 0.146701 0.686671 -0.225227
C8    C     C_R   0.318619 0.646701 0.313329 -0.225226
C9    C     C_R   0.695847 0.285867 0.747527 0.310861
C10   C     C_R   0.304153 0.785868 0.252473 0.310863
C11   C     C_R   0.764880 0.276477 0.808464 -0.205732
C12   C     C_R   0.235120 0.776478 0.191536 -0.205731
H1    H     H_    0.773512 0.382835 0.854365 0.150650
H2    H     H_    0.226487 0.882836 0.145635 0.150649
C13   C     C_R   0.817653 0.124090 0.815292 -0.223623
C14   C     C_R   0.182347 0.624090 0.184708 -0.223621
C15   C     C_R   0.804228 0.992770 0.753636 0.139590
C16   C     C_R   0.195771 0.492771 0.246365 0.139587
C17   C     C_3   0.799351 0.787383 0.757539 0.135445
C18   C     C_3   0.200648 0.287383 0.242462 0.135435
C19   C     C_3   0.727729 0.799703 0.687684 -0.236054
C20   C     C_3   0.272270 0.299703 0.312317 -0.236051
H3    H     H_    0.784147 0.736132 0.815247 0.088905
H4    H     H_    0.215851 0.236132 0.184754 0.088907
H5    H     H_    0.669791 0.757910 0.704777 0.131389
H6    H     H_    0.330207 0.257909 0.295223 0.131392
C21   C     C_R   0.332583 0.132920 0.637573 -0.036011
C22   C     C_R   0.667417 0.632923 0.362428 -0.036012
C23   C     C_R   0.166821 0.136583 0.862448 -0.063370
C24   C     C_R   0.833178 0.636580 0.137552 -0.063369
C25   C     C_R   0.271261 0.329955 0.821298 -0.183496
C26   C     C_R   0.728732 0.829941 0.178696 -0.183492
C27   C     C_R   0.218065 0.291912 0.873763 -0.152877
C28   C     C_R   0.781930 0.791900 0.126231 -0.152879
C29   C     C_R   0.171434 0.016915 0.797848 -0.219658
C30   C     C_R   0.828569 0.516921 0.202155 -0.219656
C31   C     C_R   0.224597 0.055615 0.744151 0.145050
C32   C     C_R   0.775405 0.555620 0.255851 0.145047
C33   C     C_R   0.274658 0.214020 0.755687 0.155384
C34   C     C_R   0.725339 0.714015 0.244311 0.155384
C35   C     C_R   0.327834 0.252739 0.702039 -0.230308
C36   C     C_R   0.672163 0.752733 0.297958 -0.230311
C37   C     C_R   0.281413 0.977544 0.626185 -0.127674
C38   C     C_R   0.718592 0.477555 0.373820 -0.127665
C39   C     C_R   0.228071 0.939614 0.678545 -0.175931
C40   C     C_R   0.771935 0.439627 0.321461 -0.175926
H7    H     H_    0.367321 0.371676 0.712126 0.118293
H8    H     H_    0.632672 0.871663 0.287867 0.118291
H9    H     H_    0.283355 0.882924 0.576833 0.135549
H10   H     H_    0.716653 0.382942 0.423175 0.135545
H11   H     H_    0.309194 0.451375 0.831679 0.119923
H12   H     H_    0.690796 0.951353 0.168310 0.119924
H13   H     H_    0.190157 0.818172 0.668144 0.136822
H14   H     H_    0.809853 0.318193 0.331866 0.136823
H15   H     H_    0.216318 0.386543 0.923147 0.124735
H16   H     H_    0.783674 0.886524 0.076845 0.124732
H17   H     H_    0.131926 0.898026 0.787739 0.137639
H18   H     H_    0.868081 0.398039 0.212268 0.137639
O11   O     O_R   0.920630 0.775410 0.061150 -0.538176
O12   O     O_R   0.079370 0.275410 0.938850 -0.538177
O13   O     O_R   0.086500 0.441450 0.093690 -0.530429
O14   O     O_R   0.913500 0.941450 0.906310 -0.530428
C41   C     C_R   0.114141 0.610230 0.115974 0.722896
C42   C     C_R   0.885859 0.110230 0.884026 0.722898
O15   O     O_R   0.921670 0.445960 0.070740 -0.538683
O16   O     O_R   0.078330 0.945960 0.929260 -0.538684
O17   O     O_R   0.913380 0.271130 0.915780 -0.540947
O18   O     O_R   0.086620 0.771130 0.084220 -0.540948
C43   C     C_R   0.895758 0.615618 0.086118 0.688119
C44   C     C_R   0.104242 0.115619 0.913882 0.688119
O19   O     O_3   0.997500 0.603030 0.949220 -0.371877
O20   O     O_3   0.002500 0.103030 0.050780 -0.371878
V3    V     V_3+5 0.000470 0.329940 0.009420 1.443130
V4    V     V_3+5 0.999530 0.829940 0.990580 1.443130
O21   O     O_3   0.641850 0.425491 0.753688 -0.660067
H19   H     H_    0.586882 0.379454 0.732892 0.284907
O22   O     O_3   0.358150 0.925492 0.246312 -0.660067
H20   H     H_    0.413118 0.879456 0.267108 0.284907
O23   O     O_3   0.868217 0.705804 0.737034 -0.616882
H21   H     H_    0.862044 0.571050 0.744484 0.295454
O24   O     O_3   0.131782 0.205804 0.262968 -0.616890
H22   H     H_    0.137952 0.071054 0.255514 0.295459
C45   C     C_2   0.741280 0.711538 0.610153 0.529488
H23   H     H_    0.741575 0.562140 0.605472 0.026270
O25   O     O_2   0.751580 0.804869 0.552563 -0.530496
C46   C     C_2   0.258719 0.211541 0.389848 0.529490
H24   H     H_    0.258415 0.062143 0.394526 0.026276
O26   O     O_2   0.248428 0.304870 0.447441 -0.530501

loop_
_geom_bond_atom_site_label_1
_geom_bond_atom_site_label_2
_ccdc_geom_bond_type
O21   H19   S    
C9    O21   S    
O24   H22   S    
C13   C15   A    
C5    C15   A    
C45   H23   S    
O1    C3    A    
C42   O17   A    
O2    C4    A    
C2    O7    A    
O12   V3    S    
C35   H7    S    
C25   H11   S    
C29   C31   A    
C36   H8    S    
C26   H12   S    
O5    C3    A    
O14   C42   A    
C18   H4    S    
C10   C12   A    
C7    C9    A    
C12   H2    S    
C31   C39   A    
C4    C7    S    
C24   C28   A    
C29   H17   S    
O18   V4    S    
C20   C46   S    
C40   H14   S    
C21   C37   A    
C34   C36   A    
C14   C16   A    
C31   C33   A    
C27   H15   S    
C32   C34   A    
C17   C19   S    
C6    C16   A    
C11   C13   A    
C41   O18   A    
C26   C34   A    
C30   C32   A    
C18   O24   S    
O15   V3    S    
O6    V2    S    
O13   C41   A    
C24   C43   S    
C5    C19   S    
C19   C45   S    
C26   C28   A    
C3    C8    S    
C32   C40   A    
O20   V3    S    
O4    C2    A    
C30   H18   S    
O23   H21   S    
C22   C38   A    
C19   H5    S    
C33   C35   A    
C18   C20   S    
O4    V2    S    
C28   H16   S    
O11   V4    S    
C6    C20   S    
O16   C44   A    
O15   C43   A    
O6    C4    A    
C23   C29   A    
O1    V2    S    
C24   C30   A    
O14   V4    S    
O2    V1    S    
C25   C27   A    
O13   V3    S    
C8    C10   A    
C22   C36   A    
C37   C39   A    
C38   H10   S    
O9    V2    S    
C13   C42   S    
O17   V3    S    
O3    V1    S    
C2    C21   S    
C20   H6    S    
C12   C14   A    
C39   H13   S    
O3    C1    A    
C45   O25   D    
C17   O23   S    
C9    C11   A    
O7    V1    S    
C1    O8    A    
C15   C17   S    
O8    V2    S    
C16   C18   S    
O16   V4    S    
C21   C35   A    
C25   C33   A    
C23   C44   S    
C37   H9    S    
C17   H3    S    
O5    V1    S    
C5    C7    A    
C10   O22   S    
C38   C40   A    
C6    C8    A    
C11   H1    S    
C46   O26   D    
O19   V4    S    
C46   H24   S    
C1    C22   S    
C23   C27   A    
O10   V1    S    
O22   H20   S    
C14   C41   S    
O12   C44   A    
O11   C43   A    
