data_mof_unit_26157.cif
_audit_creation_date              2013-03-05T15:56:44-0500
_audit_creation_method            fapswitch 2.2
_symmetry_space_group_name_H-M    P1
_symmetry_Int_Tables_number       1
_space_group_crystal_system       triclinic
_cell_length_a                    20.862849
_cell_length_b                    21.520956
_cell_length_c                    13.908689
_cell_angle_alpha                 90.006176
_cell_angle_beta                  89.976109
_cell_angle_gamma                 90.090836
_cell_volume                      6244.83236346

loop_
_atom_site_label
_atom_site_type_symbol
_atom_site_description
_atom_site_fract_x
_atom_site_fract_y
_atom_site_fract_z
_atom_type_partial_charge
O1    O     O_R   0.064880 0.435140 0.582280 -0.569124
O2    O     O_R   0.935120 0.564860 0.417720 -0.574808
O3    O     O_R   0.935120 0.564860 0.582280 -0.569272
O4    O     O_R   0.064880 0.435140 0.417720 -0.574779
O5    O     O_R   0.935120 0.435140 0.417720 -0.562414
O6    O     O_R   0.064880 0.564860 0.582280 -0.557927
O7    O     O_R   0.064880 0.564860 0.417720 -0.562294
O8    O     O_R   0.935120 0.435140 0.582280 -0.557764
O9    O     O_R   0.564880 0.935140 0.582280 -0.575063
O10   O     O_R   0.435120 0.064860 0.417720 -0.569075
O11   O     O_R   0.435120 0.064860 0.582280 -0.574760
O12   O     O_R   0.564880 0.935140 0.417720 -0.569393
O13   O     O_R   0.435120 0.935140 0.417720 -0.557626
O14   O     O_R   0.564880 0.064860 0.582280 -0.562339
O15   O     O_R   0.564880 0.064860 0.417720 -0.557734
O16   O     O_R   0.435120 0.935140 0.582280 -0.562583
C1    C     C_R   0.085866 0.414976 0.499809 0.788272
C2    C     C_R   0.914123 0.585016 0.499834 0.788662
C3    C     C_R   0.914642 0.414575 0.499886 0.800199
C4    C     C_R   0.085413 0.585367 0.499870 0.800722
C5    C     C_R   0.585896 0.914998 0.500186 0.788702
C6    C     C_R   0.414122 0.085011 0.500191 0.788412
C7    C     C_R   0.414533 0.914688 0.500112 0.801157
C8    C     C_R   0.585384 0.085399 0.500114 0.800348
Cu1   Cu    Cu3+1 0.000000 0.500000 0.597420 1.002242
Cu2   Cu    Cu3+1 0.000000 0.500000 0.402580 0.991894
Cu3   Cu    Cu3+1 0.500000 0.000000 0.597420 0.991633
Cu4   Cu    Cu3+1 0.500000 1.000000 0.402580 1.002040
C9    C     C_R   0.115937 0.694268 0.475346 -0.244134
C10   C     C_R   0.883937 0.305771 0.474504 -0.243403
C11   C     C_R   0.876052 0.686903 0.444952 -0.221767
C12   C     C_R   0.123686 0.312810 0.445731 -0.221770
C13   C     C_R   0.616123 0.194171 0.525550 -0.243423
C14   C     C_R   0.383976 0.805770 0.523976 -0.240343
C15   C     C_R   0.376275 0.187151 0.554296 -0.221772
C16   C     C_R   0.624386 0.813474 0.556012 -0.219812
C17   C     C_R   0.133419 0.633718 0.499193 0.011792
C18   C     C_R   0.866637 0.366209 0.499281 0.014719
C19   C     C_R   0.865728 0.633139 0.498818 -0.037578
C20   C     C_R   0.134283 0.366877 0.498741 -0.036340
C21   C     C_R   0.633408 0.133742 0.500729 0.014686
C22   C     C_R   0.366490 0.866377 0.500626 0.002833
C23   C     C_R   0.365689 0.133091 0.501269 -0.036341
C24   C     C_R   0.634400 0.866970 0.501368 -0.039129
C25   C     C_R   0.196580 0.618874 0.520877 -0.158788
C26   C     C_R   0.803644 0.380928 0.522196 -0.160780
C27   C     C_R   0.809179 0.624859 0.550329 -0.182624
C28   C     C_R   0.191162 0.375528 0.549219 -0.181963
C29   C     C_R   0.696404 0.119010 0.477843 -0.160731
C30   C     C_R   0.303369 0.881225 0.478569 -0.159542
C31   C     C_R   0.308799 0.124421 0.450824 -0.182051
C32   C     C_R   0.690948 0.875277 0.449857 -0.182421
C33   C     C_R   0.243237 0.665141 0.521332 0.085387
C34   C     C_R   0.756943 0.334664 0.523046 0.065396
C35   C     C_R   0.763300 0.671672 0.552223 0.081514
C36   C     C_R   0.237192 0.328838 0.550780 0.081557
C37   C     C_R   0.743119 0.165264 0.477045 0.065398
C38   C     C_R   0.256673 0.834928 0.477481 0.064614
C39   C     C_R   0.262754 0.171100 0.449294 0.081499
C40   C     C_R   0.737037 0.828645 0.448488 0.081127
C41   C     C_R   0.226237 0.726932 0.498735 0.032022
C42   C     C_R   0.773763 0.273043 0.499443 0.033687
C43   C     C_R   0.773505 0.726720 0.499244 0.017360
C44   C     C_R   0.226649 0.273419 0.498869 0.017218
C45   C     C_R   0.726305 0.226884 0.500661 0.033690
C46   C     C_R   0.273695 0.773177 0.499744 0.019427
C47   C     C_R   0.273295 0.226520 0.501206 0.017230
C48   C     C_R   0.726907 0.773655 0.501644 0.017012
C49   C     C_R   0.161835 0.742178 0.475041 0.057224
C50   C     C_R   0.838010 0.257888 0.474474 0.057572
C51   C     C_R   0.830222 0.734579 0.443855 0.089786
C52   C     C_R   0.169562 0.265169 0.444555 0.090195
C53   C     C_R   0.662060 0.242040 0.525638 0.057504
C54   C     C_R   0.338132 0.757926 0.523296 0.097716
C55   C     C_R   0.330384 0.234773 0.555513 0.090192
C56   C     C_R   0.670346 0.765926 0.557427 0.090542
C57   C     C_R   0.306531 0.650036 0.544150 -0.237848
C58   C     C_R   0.693874 0.349747 0.547477 -0.191770
C59   C     C_R   0.707828 0.664068 0.607344 -0.227452
C60   C     C_R   0.293261 0.337020 0.604248 -0.226561
C61   C     C_R   0.806196 0.150174 0.452668 -0.191607
C62   C     C_R   0.193429 0.850068 0.454177 -0.189747
C63   C     C_R   0.206674 0.162907 0.395856 -0.226531
C64   C     C_R   0.792794 0.836495 0.394097 -0.226519
C65   C     C_R   0.854604 0.195695 0.450643 0.155145
C66   C     C_R   0.145065 0.804473 0.452139 0.155938
C67   C     C_R   0.159904 0.209406 0.391922 0.152748
C68   C     C_R   0.839601 0.790025 0.390323 0.152464
C69   C     C_R   0.354523 0.695542 0.545458 0.165280
C70   C     C_R   0.645475 0.304220 0.549541 0.155129
C71   C     C_R   0.661316 0.710785 0.611840 0.150895
C72   C     C_R   0.340032 0.290523 0.608180 0.152860
H1    H     H_    0.066187 0.703039 0.458077 0.115299
H2    H     H_    0.933561 0.297057 0.456315 0.114966
H3    H     H_    0.920574 0.690900 0.405620 0.149838
H4    H     H_    0.078914 0.308549 0.407164 0.148718
H5    H     H_    0.566496 0.202890 0.543722 0.114951
H6    H     H_    0.433622 0.796981 0.541573 0.132656
H7    H     H_    0.421055 0.191421 0.592843 0.148742
H8    H     H_    0.579988 0.809571 0.595675 0.152431
H9    H     H_    0.209327 0.571088 0.536277 0.114809
H10   H     H_    0.791052 0.428663 0.538228 0.114394
H11   H     H_    0.800562 0.581512 0.587695 0.157270
H12   H     H_    0.199918 0.419080 0.585977 0.156377
H13   H     H_    0.708989 0.071275 0.461799 0.114453
H14   H     H_    0.290691 0.929057 0.463393 0.114146
H15   H     H_    0.300048 0.080869 0.414065 0.156329
H16   H     H_    0.699458 0.918556 0.412255 0.157540
H17   H     H_    0.318653 0.602226 0.560768 0.138138
H18   H     H_    0.683329 0.397574 0.565157 0.152166
H19   H     H_    0.701301 0.621731 0.648553 0.147426
H20   H     H_    0.300200 0.379759 0.644303 0.146275
H21   H     H_    0.816741 0.102345 0.434997 0.152209
H22   H     H_    0.182709 0.897987 0.437380 0.151673
H23   H     H_    0.199729 0.120161 0.355820 0.146498
H24   H     H_    0.799475 0.878959 0.353257 0.146790
C73   C     C_R   0.056799 0.495510 0.794765 0.127703
C74   C     C_R   0.942963 0.503404 0.205906 0.112348
C75   C     C_R   0.943221 0.504492 0.794868 0.127976
C76   C     C_R   0.057041 0.496559 0.205842 0.112341
C77   C     C_R   0.557035 0.996570 0.794095 0.112172
C78   C     C_R   0.443202 0.004499 0.205234 0.127605
C79   C     C_R   0.442960 0.003460 0.794157 0.112208
C80   C     C_R   0.556778 0.995488 0.205132 0.127824
N1    N     N_R   0.000000 0.500000 0.743810 -0.269529
N2    N     N_R   1.000000 0.500000 0.256190 -0.270385
N3    N     N_R   0.500000 1.000000 0.743810 -0.270361
N4    N     N_R   0.500000 0.000000 0.256190 -0.269586
C81   C     C_R   0.942224 0.503713 0.897537 -0.058073
C82   C     C_R   0.057942 0.496414 0.103321 -0.058887
C83   C     C_R   0.057800 0.496173 0.897447 -0.058131
C84   C     C_R   0.942072 0.503483 0.103391 -0.058949
C85   C     C_R   0.442059 0.003602 0.896678 -0.059048
C86   C     C_R   0.557775 0.996263 0.102463 -0.058139
C87   C     C_R   0.557927 0.996490 0.896609 -0.059063
C88   C     C_R   0.442201 0.003838 0.102552 -0.058204
C89   C     C_R   0.000011 0.499925 0.948892 0.085091
C90   C     C_R   0.000009 0.499935 0.051985 0.091126
C91   C     C_R   0.499992 0.000061 0.948015 0.091086
C92   C     C_R   0.499989 0.000069 0.051108 0.085015
C93   C     C_R   0.884507 0.506827 0.950401 -0.153960
C94   C     C_R   0.115570 0.493121 0.050572 -0.162183
C95   C     C_R   0.115512 0.493032 0.950242 -0.154190
C96   C     C_R   0.884445 0.506744 0.050720 -0.162301
C97   C     C_R   0.384433 0.006912 0.949426 -0.162296
C98   C     C_R   0.615491 0.993128 0.049599 -0.153990
C99   C     C_R   0.615553 0.993208 0.949280 -0.162494
C100  C     C_R   0.384489 0.006997 0.049756 -0.154076
H25   H     H_    0.838416 0.509130 0.914974 0.160374
H26   H     H_    0.161611 0.490675 0.086141 0.160609
H27   H     H_    0.161601 0.490709 0.914754 0.160386
H28   H     H_    0.838401 0.509186 0.086339 0.160636
H29   H     H_    0.338392 0.009373 0.913858 0.160756
H30   H     H_    0.661582 0.990809 0.085026 0.160504
H31   H     H_    0.661596 0.990749 0.913661 0.160764
H32   H     H_    0.338401 0.009335 0.085243 0.160576
C101  C     C_3   0.923449 0.179206 0.423345 -0.401387
C102  C     C_3   0.936508 0.110959 0.399433 -0.853287
H33   H     H_    0.925596 0.080918 0.462297 0.254017
H34   H     H_    0.907842 0.096144 0.336153 0.254605
H35   H     H_    0.987980 0.105056 0.381423 0.239916
H36   H     H_    0.937272 0.207152 0.359392 0.207457
H37   H     H_    0.955522 0.192136 0.483954 0.202072
C103  C     C_3   0.076073 0.820967 0.425751 -0.401699
C104  C     C_3   0.062816 0.889249 0.402418 -0.853616
H38   H     H_    0.073846 0.919135 0.465409 0.254108
H39   H     H_    0.091281 0.904295 0.339032 0.254523
H40   H     H_    0.011272 0.895082 0.384834 0.240101
H41   H     H_    0.062020 0.793184 0.361751 0.206894
H42   H     H_    0.044263 0.807821 0.486596 0.202698
C105  C     C_3   0.100999 0.197668 0.330739 -0.435046
C106  C     C_3   0.104675 0.232882 0.235552 -0.766410
H43   H     H_    0.108477 0.283734 0.247444 0.270785
H44   H     H_    0.146986 0.217123 0.193669 0.258813
H45   H     H_    0.060767 0.223498 0.192830 0.239857
H46   H     H_    0.096203 0.147356 0.313951 0.201817
H47   H     H_    0.056919 0.210303 0.370644 0.192858
C107  C     C_3   0.898257 0.801464 0.328380 -0.434922
C108  C     C_3   0.894127 0.765852 0.233582 -0.765988
H48   H     H_    0.890306 0.715057 0.246021 0.271226
H49   H     H_    0.851657 0.781486 0.192005 0.258553
H50   H     H_    0.937861 0.774996 0.190287 0.239936
H51   H     H_    0.903026 0.851706 0.311074 0.201976
H52   H     H_    0.942521 0.788981 0.367906 0.192726
C109  C     C_3   0.422084 0.675441 0.570638 -0.421326
C110  C     C_3   0.463584 0.669196 0.480594 -0.821867
H53   H     H_    0.442197 0.634493 0.430839 0.262116
H54   H     H_    0.468168 0.714302 0.442526 0.255943
H55   H     H_    0.512242 0.653093 0.500997 0.236325
H56   H     H_    0.443973 0.708259 0.622698 0.194495
H57   H     H_    0.421481 0.629593 0.607578 0.201964
C111  C     C_3   0.576645 0.320684 0.576960 -0.400728
C112  C     C_3   0.563623 0.388891 0.601143 -0.854831
H58   H     H_    0.592372 0.403612 0.664391 0.254643
H59   H     H_    0.574458 0.419019 0.538349 0.253857
H60   H     H_    0.512175 0.394765 0.619321 0.239366
H61   H     H_    0.544541 0.307849 0.516339 0.201959
H62   H     H_    0.562840 0.292651 0.640832 0.207462
C113  C     C_3   0.603706 0.700212 0.676313 -0.440815
C114  C     C_3   0.609782 0.736699 0.770072 -0.765385
H63   H     H_    0.653052 0.721413 0.810080 0.259094
H64   H     H_    0.613391 0.787361 0.756205 0.273049
H65   H     H_    0.566926 0.728061 0.815533 0.238399
H66   H     H_    0.558835 0.712701 0.638534 0.197199
H67   H     H_    0.598878 0.650153 0.694818 0.203456
C115  C     C_3   0.398925 0.302244 0.669400 -0.435205
C116  C     C_3   0.395246 0.266975 0.764538 -0.766535
H68   H     H_    0.352925 0.282701 0.806430 0.258768
H69   H     H_    0.391458 0.216128 0.752579 0.270927
H70   H     H_    0.439147 0.276344 0.807286 0.239731
H71   H     H_    0.443019 0.289649 0.629495 0.192915
H72   H     H_    0.403699 0.352546 0.686263 0.201312
C117  C     C_2   0.118240 0.487253 0.744747 0.871987
O17   O     O_2   0.141633 0.435316 0.740297 -0.622068
O18   O     O_R   0.153646 0.539084 0.716002 -0.762611
H73   H     H_    0.197667 0.527355 0.691168 0.300627
C118  C     C_2   0.881271 0.507827 0.257339 0.884289
O19   O     O_2   0.852615 0.460552 0.280366 -0.599673
O20   O     O_R   0.852475 0.565946 0.269148 -0.771304
H74   H     H_    0.809420 0.563160 0.302721 0.324209
C119  C     C_2   0.881834 0.513216 0.745029 0.871782
O21   O     O_2   0.858703 0.565283 0.741186 -0.622544
O22   O     O_R   0.846150 0.461672 0.715868 -0.762745
H75   H     H_    0.802106 0.473710 0.691541 0.300040
C120  C     C_2   0.118728 0.492185 0.257218 0.884107
O23   O     O_2   0.147361 0.539484 0.280176 -0.599693
O24   O     O_R   0.147543 0.434084 0.269066 -0.770718
H76   H     H_    0.190590 0.436905 0.302603 0.324263
C121  C     C_2   0.618726 0.992114 0.742664 0.884498
O25   O     O_2   0.647390 0.039373 0.719581 -0.599436
O26   O     O_R   0.647511 0.933985 0.730922 -0.772470
H77   H     H_    0.690568 0.936745 0.697348 0.324434
C122  C     C_2   0.381756 0.012750 0.255244 0.871963
O27   O     O_2   0.358378 0.064693 0.259751 -0.621998
O28   O     O_R   0.346315 0.960909 0.283861 -0.762115
H78   H     H_    0.302257 0.972634 0.308561 0.300730
C123  C     C_2   0.381275 0.007857 0.742782 0.884221
O29   O     O_2   0.352634 0.960569 0.719792 -0.600182
O30   O     O_R   0.352470 0.065967 0.730966 -0.770690
H79   H     H_    0.309423 0.063161 0.697424 0.324294
C124  C     C_2   0.618162 0.986738 0.254971 0.871815
O31   O     O_2   0.641275 0.934662 0.258796 -0.622564
O32   O     O_R   0.653859 0.038267 0.284164 -0.762694
H80   H     H_    0.697898 0.026212 0.308493 0.300081

loop_
_geom_bond_atom_site_label_1
_geom_bond_atom_site_label_2
_geom_bond_distance
_ccdc_geom_bond_type
C84   C96   1.409976 A    
O1    Cu1   1.957195 S    
C105  C106  1.527388 S    
C104  H38   1.110758 S    
C8    C21   1.443280 S    
O5    Cu2   1.954165 S    
O2    C2    1.297891 A    
C40   C64   1.397367 A    
C103  H42   1.111595 S    
O30   H79   1.013904 S    
C14   C22   1.393365 A    
C75   C119  1.468859 S    
C88   C92   1.404161 A    
C23   C31   1.391320 A    
C97   C100  1.395457 A    
C107  C108  1.527403 S    
C109  C110  1.528265 S    
C93   H25   1.081878 S    
C109  H56   1.109420 S    
C12   C52   1.403770 A    
C70   C111  1.527786 S    
C117  O17   1.221903 D    
O10   C6    1.302235 A    
C87   C91   1.406287 A    
C26   H10   1.083906 S    
C10   C18   1.393581 A    
C101  C102  1.530718 S    
C7    C22   1.443020 S    
C65   C101  1.527815 S    
O12   Cu4   1.957348 S    
C76   C82   1.426053 A    
C13   C53   1.405932 A    
C54   C69   1.419883 A    
C27   C35   1.391000 A    
C103  C104  1.530599 S    
C39   C63   1.397291 A    
C53   C70   1.422050 A    
C77   N3    1.382567 A    
C120  O24   1.398057 S    
C38   C62   1.397819 A    
C86   C92   1.404061 A    
C76   N2    1.382615 A    
O6    Cu1   1.954162 S    
C81   C93   1.412289 A    
C84   C90   1.406290 A    
O32   H80   1.013422 S    
C46   C54   1.422698 A    
C113  H67   1.112082 S    
C29   C37   1.392038 A    
C116  H69   1.109522 S    
O13   C7    1.300214 A    
O3    C2    1.302359 A    
C20   C28   1.391302 A    
C124  O31   1.221938 D    
Cu2   N2    2.036093 S    
O14   C8    1.297498 A    
C14   C54   1.404257 A    
Cu1   N1    2.036093 S    
C16   C56   1.403577 A    
C102  H35   1.110059 S    
C14   H6    1.081353 S    
Cu3   N3    2.036093 S    
C41   C46   1.402809 A    
C38   C46   1.410587 A    
O22   H75   1.013412 S    
C100  H32   1.081874 S    
C114  H63   1.110953 S    
C112  H59   1.110758 S    
C35   C43   1.411050 A    
C116  H70   1.110349 S    
O28   H78   1.013419 S    
C36   C44   1.411116 A    
O13   Cu4   1.954165 S    
C111  H62   1.111513 S    
O14   Cu3   1.954162 S    
C15   C23   1.394789 A    
C122  O27   1.221942 D    
C101  H37   1.111591 S    
C59   C71   1.399768 A    
C107  H51   1.112034 S    
C106  H45   1.110331 S    
C80   N4    1.384391 A    
C108  H50   1.110327 S    
C71   C113  1.516168 S    
C24   C32   1.391294 A    
O16   Cu3   1.954254 S    
C95   H27   1.081870 S    
C25   C33   1.391371 A    
C113  C114  1.527367 S    
C64   H24   1.084852 S    
C123  O29   1.221929 D    
C110  H54   1.109766 S    
C102  H34   1.110750 S    
O8    Cu1   1.954254 S    
C42   C50   1.422865 A    
C26   C34   1.391989 A    
C103  H41   1.111474 S    
C104  H39   1.110755 S    
C33   C41   1.412321 A    
C15   H7    1.081117 S    
C115  H71   1.108212 S    
C21   C29   1.389292 A    
C79   C123  1.475440 S    
C10   C50   1.406008 A    
C106  H44   1.110891 S    
C109  H57   1.112551 S    
C9    C49   1.406020 A    
C117  O18   1.395331 S    
C86   C98   1.412291 A    
O8    C3    1.300534 A    
C27   H11   1.082657 S    
C116  H68   1.110902 S    
C30   C38   1.392483 A    
C44   C47   1.403570 A    
C63   H23   1.084845 S    
O3    Cu1   1.957348 S    
C77   C121  1.475455 S    
C62   H22   1.081179 S    
C58   H18   1.081165 S    
C5    C24   1.447743 S    
C45   C53   1.422852 A    
O20   H74   1.013894 S    
C115  C116  1.527396 S    
C10   H2    1.082328 S    
C29   H13   1.083905 S    
C34   C42   1.410977 A    
C118  O19   1.221927 D    
C62   C66   1.406625 A    
C66   C103  1.527929 S    
O12   C5    1.302642 A    
O7    C4    1.297498 A    
C58   C70   1.406144 A    
C108  H48   1.109518 S    
C9    C17   1.393821 A    
C124  O32   1.395270 S    
C1    C20   1.447535 S    
C64   C68   1.399849 A    
C60   C72   1.399859 A    
C33   C57   1.397074 A    
C2    C19   1.447600 S    
C121  O25   1.221923 D    
C83   C89   1.404161 A    
C3    C18   1.443343 S    
C119  O21   1.221916 D    
C35   C59   1.397340 A    
C85   C97   1.410060 A    
C79   N3    1.382616 A    
O24   H76   1.013895 S    
C98   H30   1.081882 S    
O11   Cu3   1.957348 S    
C112  H60   1.110044 S    
C67   C105  1.515952 S    
C60   H20   1.084833 S    
C74   C118  1.475454 S    
C120  O23   1.221924 D    
C81   C89   1.404056 A    
C16   H8    1.081065 S    
C74   C84   1.425971 A    
C111  H61   1.111592 S    
C77   C87   1.425967 A    
C57   H17   1.084892 S    
C122  O28   1.395372 S    
C78   C88   1.428397 A    
C88   C100  1.412283 A    
C25   H9    1.084065 S    
C55   C72   1.419772 A    
C22   C30   1.390002 A    
O4    C1    1.297973 A    
C75   N1    1.384382 A    
C114  H64   1.109664 S    
C31   H15   1.082896 S    
O15   C8    1.300521 A    
C12   H4    1.081110 S    
C43   C51   1.421577 A    
C85   C91   1.406227 A    
C104  H40   1.110235 S    
C87   C99   1.409984 A    
C12   C20   1.394835 A    
C123  O30   1.398068 S    
C113  H66   1.107210 S    
C121  O26   1.398061 S    
C37   C61   1.397561 A    
C93   C96   1.395306 A    
C47   C55   1.421520 A    
C17   C25   1.389634 A    
C82   C90   1.406221 A    
Cu3   Cu4   2.709968 S    
C52   C67   1.419805 A    
C83   C95   1.412272 A    
C106  H43   1.109508 S    
O9    Cu3   1.957195 S    
C19   C27   1.391256 A    
C98   C99   1.395303 A    
C89   C90   1.433887 A    
O10   Cu4   1.957195 S    
C97   H29   1.082002 S    
C28   C36   1.391202 A    
C43   C48   1.403407 A    
C42   C45   1.401540 A    
C57   C69   1.399569 A    
C69   C109  1.516206 S    
C16   C24   1.395009 A    
C15   C55   1.403713 A    
C37   C45   1.410971 A    
C63   C67   1.399871 A    
O4    Cu2   1.957348 S    
C91   C92   1.433884 A    
C80   C124  1.468867 S    
C68   C107  1.516111 S    
O5    C3    1.297519 A    
C80   C86   1.428229 A    
C99   H31   1.082002 S    
O16   C7    1.297695 A    
O6    C4    1.300461 A    
C105  H46   1.111985 S    
O11   C6    1.297954 A    
O1    C1    1.302245 A    
C36   C60   1.397294 A    
C59   H19   1.084841 S    
C119  O22   1.395254 S    
C40   C48   1.411051 A    
C41   C49   1.422433 A    
C111  C112  1.530599 S    
C94   H26   1.082000 S    
C110  H55   1.110202 S    
O2    Cu2   1.957195 S    
Cu1   Cu2   2.709968 S    
C13   C21   1.393482 A    
C96   H28   1.082001 S    
C9    H1    1.082340 S    
C4    C17   1.443139 S    
C48   C56   1.421535 A    
O9    C5    1.297675 A    
O15   Cu4   1.954251 S    
C102  H33   1.110764 S    
C73   C83   1.428400 A    
O7    Cu2   1.954251 S    
C114  H65   1.110313 S    
C11   H3    1.081100 S    
C101  H36   1.111500 S    
C11   C51   1.403666 A    
C75   C81   1.428227 A    
C11   C19   1.394887 A    
C13   H5    1.082330 S    
C39   C47   1.411124 A    
C44   C52   1.421521 A    
O18   H73   1.013388 S    
C78   N4    1.384528 A    
C118  O20   1.398060 S    
C82   C94   1.410061 A    
C107  H52   1.108363 S    
C18   C26   1.389256 A    
C72   C115  1.515980 S    
C56   C71   1.419805 A    
C51   C68   1.419812 A    
C115  H72   1.111966 S    
C73   C117  1.469216 S    
C78   C122  1.469237 S    
C31   C39   1.391222 A    
C79   C85   1.426048 A    
C32   C40   1.391095 A    
C112  H58   1.110755 S    
C61   H21   1.081166 S    
O26   H77   1.013895 S    
C30   H14   1.084033 S    
C94   C95   1.395465 A    
C105  H47   1.108179 S    
C32   H16   1.082625 S    
C74   N2    1.382558 A    
C34   C58   1.397554 A    
C110  H53   1.111235 S    
C50   C65   1.422130 A    
C73   N1    1.384517 A    
C76   C120  1.475431 S    
C6    C23   1.447483 S    
C61   C65   1.406170 A    
C49   C66   1.422296 A    
Cu4   N4    2.036093 S    
C108  H49   1.110901 S    
C28   H12   1.082882 S    
