data_mof_unit_60329.cif
_audit_creation_date              2012-10-26T20:53:09-0400
_audit_creation_method            fapswitch 2.2
_symmetry_space_group_name_H-M    P1
_symmetry_Int_Tables_number       1
_space_group_crystal_system       triclinic
_cell_length_a                    14.766618
_cell_length_b                    15.99588
_cell_length_c                    17.066602
_cell_angle_alpha                 89.620731
_cell_angle_beta                  94.586393
_cell_angle_gamma                 90.070373
_cell_volume                      4018.22017106

loop_
_atom_site_label
_atom_site_type_symbol
_atom_type_description
_atom_site_fract_x
_atom_site_fract_y
_atom_site_fract_z
_atom_type_partial_charge
C1    C     C_R   0.499938 0.340841 0.499993 0.553328
C2    C     C_1   0.500134 0.748279 0.499988 0.001288
C3    C     C_R   0.948188 0.566350 0.466983 -0.112923
C4    C     C_R   0.051812 0.433655 0.533026 -0.112919
C5    C     C_R   0.902868 0.499146 0.500471 -0.017409
C6    C     C_R   0.097132 0.500858 0.499537 -0.017421
C7    C     C_R   0.956025 0.432359 0.533710 0.001503
C8    C     C_R   0.043975 0.567647 0.466301 0.001473
C9    C     C_1   0.802637 0.499742 0.500175 0.161015
C10   C     C_1   0.197363 0.500260 0.499828 0.160967
C11   C     C_R   0.511884 0.498446 0.651541 0.549191
C12   C     C_R   0.500061 0.659159 0.500006 0.553302
C13   C     C_R   0.488115 0.501591 0.348465 0.549169
C14   C     C_R   0.520135 0.501370 0.738076 -0.090030
C15   C     C_R   0.479829 0.498806 0.261934 -0.089968
C16   C     C_R   0.449681 0.538556 0.775607 -0.133555
C17   C     C_R   0.550044 0.461340 0.224318 -0.133508
C18   C     C_R   0.454400 0.545375 0.856960 0.229840
C19   C     C_R   0.545214 0.454635 0.142950 0.229924
C20   C     C_R   0.529791 0.512398 0.903028 0.237357
C21   C     C_R   0.469975 0.488008 0.096973 0.237330
C22   C     C_R   0.602719 0.478214 0.865902 0.217646
C23   C     C_R   0.500066 0.912784 0.499977 0.039803
C24   C     C_R   0.397288 0.522516 0.134185 0.217607
C25   C     C_R   0.597784 0.471305 0.783613 -0.054527
C26   C     C_R   0.402333 0.529306 0.216483 -0.054543
C27   C     C_R   0.582469 0.956469 0.507569 -0.090264
C28   C     C_R   0.417529 0.043531 0.492423 -0.090258
C29   C     C_1   0.671445 0.431048 0.747279 0.313032
C30   C     C_1   0.328965 0.569904 0.252926 0.312832
C31   C     C_1   0.086378 0.638409 0.431123 0.227158
C32   C     C_1   0.913621 0.361599 0.568893 0.227205
C33   C     C_R   0.499933 0.087215 0.500015 0.039804
C34   C     C_R   0.417596 0.956282 0.492404 -0.086799
C35   C     C_R   0.582403 0.043717 0.507588 -0.086814
C36   C     C_1   0.500126 0.823329 0.499977 -0.033996
C37   C     C_1   0.499873 0.176671 0.500017 -0.034015
C38   C     C_1   0.499865 0.251720 0.500009 0.001257
Cl1   Cl    Cl    0.631687 0.398209 0.101795 -0.434135
Cl2   Cl    Cl    0.367558 0.601467 0.897942 -0.433895
Cl3   Cl    Cl    0.700459 0.443134 0.923172 -0.412637
Cl4   Cl    Cl    0.299723 0.558156 0.077027 -0.412456
Cu1   Cu    Cu3+1 0.589220 0.500000 0.499980 1.040458
Cu2   Cu    Cu3+1 0.410780 0.500000 0.500020 1.040444
H1    H     H_    0.608239 0.434983 0.258546 0.182998
H2    H     H_    0.391356 0.564606 0.741322 0.183129
H3    H     H_    0.646404 0.077189 0.513483 0.136462
H4    H     H_    0.353595 0.922811 0.486509 0.136485
H5    H     H_    0.646521 0.923143 0.513452 0.130253
H6    H     H_    0.353477 0.076857 0.486540 0.130254
H7    H     H_    0.908703 0.618169 0.441195 0.131556
H8    H     H_    0.091297 0.381835 0.558814 0.131553
N1    N     N_2   0.534807 0.514109 0.986283 -0.108727
N2    N     N_2   0.464891 0.486344 0.013720 -0.108571
N3    N     N_1   0.276710 0.499980 0.499980 -0.179709
N4    N     N_1   0.723290 0.500020 0.500020 -0.179691
N5    N     N_1   0.730352 0.398837 0.718307 -0.208271
N6    N     N_1   0.270296 0.602389 0.281987 -0.208233
N7    N     N_1   0.120406 0.695148 0.402944 -0.234256
N8    N     N_1   0.879591 0.304864 0.597078 -0.234401
O1    O     O_R   0.575320 0.380310 0.499960 -0.483038
O2    O     O_R   0.424680 0.619690 0.500040 -0.483014
O3    O     O_R   0.424640 0.380310 0.500000 -0.491607
O4    O     O_R   0.575360 0.619690 0.500000 -0.491639
O5    O     O_R   0.583590 0.499240 0.613900 -0.486333
O6    O     O_R   0.416410 0.500760 0.386100 -0.486334
O7    O     O_R   0.432900 0.499240 0.613940 -0.494901
O8    O     O_R   0.567100 0.500760 0.386060 -0.494829

loop_
_geom_bond_atom_site_label_1
_geom_bond_atom_site_label_2
_ccdc_geom_bond_type
C6    C10   S    
C6    C8    A    
Cu1   Cu2   S    
C5    C7    A    
C5    C9    S    
C37   C38   T    
C23   C27   A    
C12   O2    A    
Cu1   O8    S    
Cu2   O6    S    
Cu1   O5    S    
C23   C34   A    
C2    C12   S    
C27   C35   A    
C2    C36   T    
C15   C26   A    
C28   C34   A    
Cu2   O3    S    
C9    N4    T    
N1    N2    D    
C10   N3    T    
Cu2   N3    S    
C19   Cl1   S    
C1    C38   S    
C4    H8    S    
C4    C7    A    
C28   H6    S    
C30   N6    T    
C4    C6    A    
C33   C35   A    
C11   O7    A    
Cu1   O4    S    
C26   C30   S    
C18   C20   A    
C13   O6    A    
C13   C15   S    
C14   C25   A    
C25   C29   S    
C21   N2    S    
C12   O4    A    
C11   C14   S    
C14   C16   A    
C3    C8    A    
C22   Cl3   S    
C34   H4    S    
C28   C33   A    
C29   N5    T    
C16   H2    S    
C1    O3    A    
Cu1   N4    S    
C24   Cl4   S    
C27   H5    S    
Cu1   O1    S    
C24   C26   A    
C16   C18   A    
C23   C36   S    
C21   C24   A    
C31   N7    T    
C32   N8    T    
C15   C17   A    
C3    H7    S    
C17   C19   A    
Cu2   O7    S    
C18   Cl2   S    
C7    C32   S    
Cu2   O2    S    
C35   H3    S    
C19   C21   A    
C8    C31   S    
C11   O5    A    
C22   C25   A    
C33   C37   S    
C17   H1    S    
C20   C22   A    
C20   N1    S    
C3    C5    A    
C13   O8    A    
C1    O1    A    
