data_mof_unit_20509.cif
_audit_creation_date              2012-12-10T18:30:31-0500
_audit_creation_method            fapswitch 2.2
_symmetry_space_group_name_H-M    P1
_symmetry_Int_Tables_number       1
_space_group_crystal_system       triclinic
_cell_length_a                    14.97219
_cell_length_b                    14.139952
_cell_length_c                    15.435597
_cell_angle_alpha                 90.109096
_cell_angle_beta                  81.37879
_cell_angle_gamma                 102.693872
_cell_volume                      3150.28490065

loop_
_atom_site_label
_atom_site_type_symbol
_atom_type_description
_atom_site_fract_x
_atom_site_fract_y
_atom_site_fract_z
_atom_type_partial_charge
C1    C     C_R   0.558487 0.514058 0.338088 0.926284
C2    C     C_R   0.391091 0.462551 0.080662 -0.109216
C3    C     C_R   0.655414 0.630430 0.982425 -0.173437
C4    C     C_R   0.328012 0.425349 0.025425 -0.195651
C5    C     C_R   0.170120 0.359812 0.352832 0.283768
C6    C     C_R   0.807573 0.557974 0.678867 0.283582
C7    C     C_R   0.256152 0.388201 0.380168 -0.060640
C8    C     C_R   0.734138 0.570608 0.638517 -0.046584
C9    C     C_R   0.196803 0.482548 0.493458 0.139934
C10   C     C_R   0.805655 0.528225 0.500347 0.153735
C11   C     C_R   0.105314 0.442157 0.477617 -0.068479
C12   C     C_R   0.441342 0.488100 0.661853 0.928160
C13   C     C_R   0.874547 0.497893 0.541122 -0.061188
C14   C     C_R   0.093555 0.388165 0.401056 0.045629
C15   C     C_R   0.876829 0.517862 0.631347 0.048570
C16   C     C_R   0.499533 0.329570 0.499802 0.898967
C17   C     C_R   0.500656 0.670461 0.499857 0.898858
C18   C     C_R   0.025648 0.458017 0.531917 0.106208
C19   C     C_R   0.943717 0.453468 0.496084 0.100800
C20   C     C_R   0.932490 0.399809 0.420140 -0.219662
C21   C     C_R   0.022347 0.468423 0.622586 -0.268868
C22   C     C_R   0.005652 0.364647 0.374878 -0.153858
C23   C     C_R   0.551762 0.534851 0.101457 -0.004058
C24   C     C_R   0.948534 0.497520 0.671968 -0.127880
C25   C     C_1   0.498793 0.227762 0.499196 -0.170039
C26   C     C_1   0.502147 0.772398 0.499383 -0.174288
C27   C     C_1   0.499162 0.142478 0.498865 0.011551
C28   C     C_1   0.502335 0.857802 0.498984 -0.000949
C29   C     C_1   0.500284 0.042700 0.498695 0.025654
C30   C     C_1   0.501388 0.957601 0.498732 0.023023
C31   C     C_R   0.594177 0.536680 0.245830 -0.154744
C32   C     C_R   0.403605 0.479427 0.754651 -0.150978
C33   C     C_R   0.691108 0.650438 0.133144 0.124245
C34   C     C_R   0.436315 0.507951 0.901354 0.009041
C35   C     C_R   0.291889 0.395065 0.875976 0.118526
C36   C     C_R   0.667439 0.616620 0.221068 -0.282610
C37   C     C_R   0.323312 0.409872 0.785509 -0.267424
C38   C     C_R   0.542996 0.489847 0.184045 0.299409
C39   C     C_R   0.451126 0.537962 0.812736 0.284062
C40   C     C_3   0.772342 0.736031 0.104359 -0.408967
C41   C     C_3   0.813986 0.794820 0.178391 -0.379228
C42   C     C_3   0.889833 0.882148 0.141579 -0.814441
C43   C     C_3   0.199271 0.326814 0.910848 -0.402493
C44   C     C_3   0.139694 0.282681 0.841592 -0.370294
C45   C     C_R   0.633287 0.606649 0.072234 0.047906
C46   C     C_3   0.046576 0.221343 0.884626 -0.814580
C47   C     C_3   0.817760 0.553453 0.402925 -0.362462
C48   C     C_3   0.913381 0.617144 0.364552 -0.395021
C49   C     C_3   0.940619 0.596040 0.268283 -0.846687
C50   C     C_3   0.219635 0.577703 0.540088 -0.381771
C51   C     C_3   0.235192 0.663480 0.474606 -0.339699
C52   C     C_3   0.252049 0.760130 0.520445 -0.839335
C53   C     C_R   0.351406 0.441836 0.934502 0.058600
C54   C     C_R   0.482487 0.510261 0.046866 0.079528
C55   C     C_R   0.503949 0.538798 0.957162 0.064025
C56   C     C_R   0.594572 0.591221 0.925441 -0.084018
Cl1   Cl    Cl    0.506459 0.658691 0.776418 -0.647923
Cl2   Cl    Cl    0.484389 0.366654 0.206067 -0.617365
Cl3   Cl    Cl    0.161961 0.288400 0.259397 -0.643452
Cl4   Cl    Cl    0.807435 0.588694 0.789555 -0.687994
H1    H     H_    0.721340 0.676163 0.954690 0.189842
H2    H     H_    0.950056 0.507030 0.741325 0.205341
H3    H     H_    0.677159 0.594272 0.676907 0.210638
H4    H     H_    0.314838 0.363420 0.346020 0.221325
H5    H     H_    0.946511 0.857930 0.098685 0.265102
H6    H     H_    0.861091 0.931616 0.103279 0.264408
H7    H     H_    0.919006 0.922698 0.196352 0.257754
H8    H     H_    0.758851 0.821254 0.221650 0.232093
H9    H     H_    0.845043 0.749044 0.218022 0.229569
H10   H     H_    0.827738 0.708580 0.062502 0.216156
H11   H     H_    0.747888 0.787369 0.063950 0.211880
H12   H     H_    0.261253 0.383061 0.055235 0.183986
H13   H     H_    0.057173 0.161043 0.925123 0.266660
H14   H     H_    0.007010 0.266693 0.926713 0.266139
H15   H     H_    0.005368 0.190041 0.833168 0.253791
H16   H     H_    0.126497 0.341499 0.800887 0.226678
H17   H     H_    0.176263 0.235389 0.798704 0.228648
H18   H     H_    0.212872 0.266472 0.949314 0.219781
H19   H     H_    0.157870 0.368269 0.955702 0.210453
H20   H     H_    0.955363 0.522505 0.262477 0.273148
H21   H     H_    0.883993 0.599683 0.230384 0.262474
H22   H     H_    0.003908 0.649985 0.239686 0.256650
H23   H     H_    0.866015 0.379073 0.398453 0.156613
H24   H     H_    0.910555 0.694967 0.369650 0.216144
H25   H     H_    0.969630 0.607627 0.400456 0.238806
H26   H     H_    0.797620 0.487686 0.365001 0.205143
H27   H     H_    0.768959 0.599371 0.393439 0.217384
H28   H     H_    0.188517 0.766915 0.565213 0.263921
H29   H     H_    0.309641 0.765548 0.559116 0.271302
H30   H     H_    0.270192 0.820799 0.470866 0.255624
H31   H     H_    0.295145 0.662252 0.423003 0.246756
H32   H     H_    0.172952 0.657701 0.441882 0.216474
H33   H     H_    0.165752 0.588139 0.593508 0.192907
H34   H     H_    0.077105 0.453797 0.655601 0.147504
H35   H     H_    0.280627 0.580808 0.572904 0.248538
H36   H     H_    0.286108 0.368382 0.738074 0.163805
H37   H     H_    0.704361 0.652352 0.271261 0.156904
H38   H     H_    0.620381 0.602656 0.856566 0.225535
H39   H     H_    0.367361 0.452807 0.150391 0.200889
H40   H     H_    0.993440 0.322031 0.317806 0.201197
N1    N     N_R   0.268300 0.449640 0.447270 -0.137181
N2    N     N_R   0.731700 0.550360 0.552730 -0.145563
O1    O     O_R   0.616880 0.525390 0.394380 -0.642811
O2    O     O_R   0.383120 0.474610 0.605620 -0.633167
O3    O     O_R   0.468100 0.493070 0.360490 -0.584676
O4    O     O_R   0.531900 0.506930 0.639510 -0.589427
O5    O     O_R   0.574410 0.389880 0.516950 -0.590545
O6    O     O_R   0.425590 0.610120 0.483050 -0.617508
O7    O     O_R   0.425630 0.357560 0.483060 -0.584142
O8    O     O_R   0.574370 0.642440 0.516940 -0.577902
Zn1   Zn    Zn3+2 0.599340 0.521580 0.522630 0.950607
Zn2   Zn    Zn3+2 0.400660 0.478420 0.477370 0.940568

loop_
_geom_bond_atom_site_label_1
_geom_bond_atom_site_label_2
_ccdc_geom_bond_type
C55   C56   A    
C11   C18   A    
C23   C45   A    
C40   H11   S    
C4    C53   A    
C35   C53   A    
C18   C21   A    
C33   C45   A    
C41   C42   S    
C52   H30   S    
C19   C20   A    
C56   H38   S    
C17   O8    A    
C52   H29   S    
N1    Zn2   S    
C40   H10   S    
C17   C26   S    
C41   H9    S    
C44   H17   S    
C35   C37   A    
C12   O2    A    
C11   C14   A    
C50   H35   S    
C27   C29   S    
C21   H34   S    
C43   H19   S    
C39   Cl1   S    
C1    C31   S    
C33   C36   A    
O1    Zn1   S    
C18   C19   A    
C32   C39   A    
C49   H21   S    
C44   H16   S    
O8    Zn1   S    
C16   O5    A    
C51   H31   S    
C6    C15   A    
C38   Cl2   S    
C42   H5    S    
C36   H37   S    
C35   C43   S    
C1    O1    A    
O6    Zn2   S    
C34   C55   A    
C12   C32   S    
N2    Zn1   S    
C46   H15   S    
C44   C46   S    
C16   O7    A    
C41   H8    S    
O4    Zn1   S    
C3    H1    S    
C33   C40   S    
C22   H40   S    
C13   C19   A    
C51   C52   S    
C47   H26   S    
C6    Cl4   S    
C52   H28   S    
C2    C54   A    
O7    Zn2   S    
C5    C7    A    
C5    Cl3   S    
C6    C8    A    
C3    C45   A    
C34   C39   A    
C37   H36   S    
C43   H18   S    
C47   H27   S    
C49   H22   S    
C2    C4    A    
C43   C44   S    
C29   C30   T    
C51   H32   S    
C3    C56   A    
C47   C48   S    
C10   N2    A    
C4    H12   S    
C50   C51   S    
C32   C37   A    
C9    C11   A    
C5    C14   A    
C40   C41   S    
O3    Zn2   S    
C20   C22   A    
C2    H39   S    
C13   C15   A    
C42   H7    S    
C17   O6    A    
C46   H14   S    
C23   C54   A    
O2    Zn2   S    
C16   C25   S    
C54   C55   A    
C15   C24   A    
C24   H2    S    
C48   H25   S    
O5    Zn1   S    
C9    C50   S    
C10   C13   A    
C20   H23   S    
C31   C38   A    
C50   H33   S    
C25   C27   T    
C23   C38   A    
C26   C28   T    
C49   H20   S    
C14   C22   A    
C28   C30   S    
C12   O4    A    
C48   C49   S    
C7    H4    S    
C8    H3    S    
C48   H24   S    
C34   C53   A    
C9    N1    A    
C7    N1    A    
C21   C24   A    
C10   C47   S    
C42   H6    S    
C31   C36   A    
C8    N2    A    
C46   H13   S    
C1    O3    A    
