data_mof_unit_26963.cif
_audit_creation_date              2012-12-10T17:13:38-0500
_audit_creation_method            fapswitch 2.2
_symmetry_space_group_name_H-M    P1
_symmetry_Int_Tables_number       1
_space_group_crystal_system       triclinic
_cell_length_a                    10.948656
_cell_length_b                    13.030217
_cell_length_c                    11.779079
_cell_angle_alpha                 100.21415
_cell_angle_beta                  93.864748
_cell_angle_gamma                 91.874178
_cell_volume                      1648.3428883

loop_
_atom_site_label
_atom_site_type_symbol
_atom_type_description
_atom_site_fract_x
_atom_site_fract_y
_atom_site_fract_z
_atom_type_partial_charge
C1    C     C_R   0.499224 0.298464 0.477126 0.790111
C2    C     C_R   0.538869 0.030446 0.545828 0.140102
C3    C     C_R   0.508627 0.965360 0.437719 0.064050
C4    C     C_R   0.259710 0.502455 0.500944 0.802307
C5    C     C_R   0.499926 0.857587 0.432335 -0.255408
C6    C     C_R   0.543116 0.879876 0.639690 -0.198586
C7    C     C_R   0.557525 0.987248 0.646015 -0.187735
C8    C     C_R   0.379490 0.409205 0.022320 -0.428109
C9    C     C_R   0.389017 0.413608 0.143830 0.681090
C10   C     C_R   0.552213 0.542080 0.158167 -0.059950
C11   C     C_R   0.544979 0.535482 0.035804 -0.026806
C12   C     C_3   0.877314 0.490005 0.499749 -0.106902
C13   C     C_R   0.461368 0.464345 0.967000 0.009812
C14   C     C_R   0.456971 0.451622 0.843801 0.397004
C15   C     C_R   0.605839 0.590888 0.858095 0.406044
C16   C     C_R   0.504693 0.700857 0.521606 0.797092
C17   C     C_R   0.617091 0.599224 0.980691 -0.359258
C18   C     C_R   0.739538 0.494849 0.499500 0.799463
C19   C     C_3   0.078224 0.430624 0.597481 0.561401
C20   C     C_3   0.933121 0.438859 0.602486 0.282108
C21   C     C_3   0.073714 0.608876 0.538720 -0.420646
C22   C     C_3   0.059910 0.445331 0.380765 0.054823
C23   C     C_3   0.931521 0.606383 0.522820 -0.001072
C24   C     C_3   0.120739 0.497774 0.503409 -0.102439
C25   C     C_3   0.108936 0.436801 0.803993 0.066716
C26   C     C_3   0.130826 0.521181 0.911113 -0.843858
C27   C     C_3   0.891436 0.777765 0.470492 -0.724009
C28   C     C_3   0.328507 0.912597 0.201446 -0.716498
C29   C     C_3   0.546913 0.147227 0.158586 -0.653559
C30   C     C_3   0.412879 0.261213 0.788808 -0.756054
C31   C     C_3   0.079063 0.230135 0.600669 -0.579675
C32   C     C_3   0.806247 0.673973 0.844533 -0.759187
C33   C     C_3   0.237299 0.276331 0.122121 0.023948
C34   C     C_3   0.918825 0.427172 0.382732 0.023321
C35   C     C_3   0.160491 0.209446 0.186970 -0.871772
C36   C     C_3   0.798275 0.340100 0.699157 0.084049
C37   C     C_3   0.813551 0.241283 0.750226 -0.899757
C38   C     C_3   0.054531 0.585847 0.251087 -0.616827
C39   C     C_3   0.766031 0.276178 0.355135 -0.570588
C40   C     C_R   0.515110 0.814450 0.532555 -0.055381
C41   C     C_R   0.509773 0.183681 0.458796 -0.145588
C42   C     C_R   0.485028 0.009614 0.338068 0.178104
C43   C     C_R   0.487914 0.118862 0.348083 0.209910
C44   C     C_R   0.544867 0.138067 0.553724 -0.354346
Cu1   Cu    Cu3+1 0.509350 0.507730 0.615930 0.948554
Cu2   Cu    Cu3+1 0.490650 0.492270 0.384070 0.976722
H1    H     H_    0.871605 0.454823 0.308224 0.154804
H2    H     H_    0.919201 0.497038 0.681121 0.055653
H3    H     H_    0.102540 0.639510 0.631198 0.183369
H4    H     H_    0.898240 0.645497 0.605925 0.149186
H5    H     H_    0.101035 0.367952 0.367890 0.144876
H6    H     H_    0.166741 0.370999 0.814337 0.176619
H7    H     H_    0.013595 0.407762 0.801174 0.142281
H8    H     H_    0.067097 0.585004 0.906126 0.238897
H9    H     H_    0.114905 0.487306 0.989160 0.197302
H10   H     H_    0.226292 0.554236 0.918199 0.270344
H11   H     H_    0.813414 0.637151 0.382535 0.262275
H12   H     H_    0.118297 0.665631 0.493721 0.186200
H13   H     H_    0.874109 0.815183 0.393629 0.226411
H14   H     H_    0.981526 0.808485 0.514424 0.234562
H15   H     H_    0.818085 0.798478 0.530208 0.231048
H16   H     H_    0.516045 0.887735 0.204447 0.244220
H17   H     H_    0.301327 0.856297 0.256736 0.224912
H18   H     H_    0.313549 0.873960 0.109421 0.230042
H19   H     H_    0.268947 0.980241 0.215932 0.225101
H20   H     H_    0.373350 0.139179 0.212676 0.278118
H21   H     H_    0.573557 0.223992 0.137160 0.219692
H22   H     H_    0.503965 0.097502 0.078362 0.213371
H23   H     H_    0.478872 0.806252 0.350268 0.168940
H24   H     H_    0.630109 0.108750 0.185831 0.213179
H25   H     H_    0.343031 0.374803 0.699301 0.321541
H26   H     H_    0.511602 0.256637 0.815071 0.225868
H27   H     H_    0.357322 0.232156 0.852480 0.214259
H28   H     H_    0.387117 0.207765 0.705973 0.236722
H29   H     H_    0.209944 0.319225 0.537854 0.210317
H30   H     H_    0.151903 0.172374 0.592977 0.178630
H31   H     H_    0.998667 0.193061 0.544192 0.275770
H32   H     H_    0.057891 0.245488 0.691742 0.219840
H33   H     H_    0.637338 0.730139 0.807438 0.237647
H34   H     H_    0.553603 0.848724 0.718444 0.139553
H35   H     H_    0.819285 0.722542 0.932287 0.211008
H36   H     H_    0.854850 0.716163 0.785980 0.223588
H37   H     H_    0.847425 0.597452 0.845143 0.227244
H38   H     H_    0.295964 0.224107 0.065844 0.145611
H39   H     H_    0.170927 0.312624 0.067246 0.119929
H40   H     H_    0.063976 0.230818 0.179190 0.206873
H41   H     H_    0.162255 0.125897 0.146273 0.206872
H42   H     H_    0.194044 0.218588 0.279476 0.266483
H43   H     H_    0.702754 0.338376 0.664811 0.212208
H44   H     H_    0.811151 0.408421 0.770768 0.122636
H45   H     H_    0.579407 0.036721 0.729603 0.132513
H46   H     H_    0.900438 0.246411 0.805309 0.225175
H47   H     H_    0.737494 0.231726 0.805769 0.204481
H48   H     H_    0.811977 0.171747 0.680190 0.270392
H49   H     H_    0.088389 0.431919 0.206498 0.257783
H50   H     H_    0.095229 0.598526 0.170668 0.197749
H51   H     H_    0.087718 0.653700 0.316281 0.252248
H52   H     H_    0.953858 0.583288 0.232956 0.207908
H53   H     H_    0.940467 0.269643 0.309889 0.236792
H54   H     H_    0.762681 0.189710 0.333353 0.195990
H55   H     H_    0.715694 0.308386 0.285500 0.225564
H56   H     H_    0.573794 0.186559 0.635522 0.183897
H57   H     H_    0.723770 0.295646 0.437507 0.250831
H58   H     H_    0.305111 0.366433 0.969585 0.158173
H59   H     H_    0.679739 0.657166 0.033515 0.154193
H60   H     H_    0.618156 0.596485 0.212072 0.132666
N1    N     N_R   0.523430 0.519360 0.790130 -0.240291
N2    N     N_2   0.891644 0.314510 0.369814 -0.411604
N3    N     N_R   0.476570 0.480640 0.209880 -0.211994
N4    N     N_2   0.890978 0.665593 0.434074 -0.409557
N5    N     N_2   0.456326 0.946210 0.227010 -0.429902
N6    N     N_2   0.460108 0.162232 0.247305 -0.361046
N7    N     N_2   0.383275 0.366846 0.777493 -0.416862
N8    N     N_2   0.121224 0.323793 0.561789 -0.439737
N9    N     N_2   0.677439 0.659749 0.805559 -0.365934
N10   N     N_2   0.095795 0.488470 0.279941 -0.373652
O1    O     O_R   0.506640 0.354460 0.582000 -0.619608
O2    O     O_3   0.310862 0.354235 0.199539 -0.541447
O3    O     O_3   0.874364 0.340277 0.605827 -0.573648
O4    O     O_R   0.490840 0.341410 0.386200 -0.519973
O5    O     O_R   0.325590 0.506510 0.597900 -0.567941
O6    O     O_R   0.309790 0.493450 0.402100 -0.512803
O7    O     O_R   0.509160 0.658590 0.613800 -0.577196
O8    O     O_R   0.493360 0.645540 0.418000 -0.598101
O9    O     O_R   0.690210 0.506550 0.597900 -0.579822
O10   O     O_R   0.674410 0.493490 0.402100 -0.616833
O11   O     O_3   0.139137 0.479078 0.706209 -0.595128

loop_
_geom_bond_atom_site_label_1
_geom_bond_atom_site_label_2
_ccdc_geom_bond_type
C36   H43   S    
C3    C42   A    
C8    C13   A    
H33   N9    S    
C29   N6    S    
C2    C7    A    
C38   H52   S    
C26   H9    S    
C21   H3    S    
C31   H30   S    
Cu1   Cu2   S    
Cu1   O7    S    
C32   H35   S    
C12   C23   S    
Cu2   O4    S    
C36   C37   S    
C16   O7    A    
C25   H7    S    
C27   H14   S    
C18   O9    A    
C30   H28   S    
C35   H40   S    
C36   H44   S    
C15   N9    S    
H25   N7    S    
C10   N3    A    
C15   N1    A    
C23   N4    S    
C36   O3    S    
C33   H39   S    
C5    H23   S    
C27   H15   S    
C29   H21   S    
C35   H41   S    
H16   N5    S    
C19   C20   S    
C27   N4    S    
C2    C44   A    
C8    C9    A    
C4    O5    A    
C39   H55   S    
C31   N8    S    
C22   N10   S    
C33   O2    S    
C13   C14   A    
C9    O2    S    
C41   C43   A    
Cu2   O8    S    
C38   H51   S    
C26   H8    S    
C31   H31   S    
C28   N5    S    
C9    N3    A    
C39   N2    S    
C22   C34   S    
C4    O6    A    
Cu1   O9    S    
C30   H27   S    
C44   H56   S    
C23   H4    S    
C19   N8    S    
Cu1   O5    S    
C25   C26   S    
C28   H19   S    
C1    O4    A    
C42   N5    S    
H53   N2    S    
C17   H59   S    
C29   H22   S    
C38   N10   S    
C35   H42   S    
C6    H34   S    
H11   N4    S    
H49   N10   S    
C7    H45   S    
C12   C20   S    
C12   C18   S    
C37   H47   S    
H29   N8    S    
C1    O1    A    
C8    H58   S    
C20   H2    S    
C16   C40   S    
C28   H18   S    
C1    C41   S    
C14   N1    A    
C21   C23   S    
C41   C44   A    
C22   C24   S    
C10   H60   S    
C42   C43   A    
C21   C24   S    
C12   C34   S    
C31   H32   S    
C29   H24   S    
Cu1   O1    S    
C15   C17   A    
C32   H37   S    
C11   C17   A    
C37   H46   S    
Cu2   O10   S    
C3    C5    A    
C26   H10   S    
C30   H26   S    
C39   H57   S    
C6    C7    A    
C14   N7    S    
C32   H36   S    
C34   N2    S    
C19   C24   S    
C25   O11   S    
C25   H6    S    
C21   H12   S    
C27   H13   S    
C18   O10   A    
C11   C13   A    
C39   H54   S    
C4    C24   S    
C19   O11   S    
C33   C35   S    
C37   H48   S    
C2    C3    A    
C6    C40   A    
C32   N9    S    
C16   O8    A    
C33   H38   S    
C10   C11   A    
C28   H17   S    
C43   N6    S    
Cu2   N3    S    
C38   H50   S    
Cu2   O6    S    
C34   H1    S    
H20   N6    S    
C5    C40   A    
C20   O3    S    
Cu1   N1    S    
C22   H5    S    
C30   N7    S    
