data_mof_unit_52230.cif
_audit_creation_date              2012-12-10T16:43:27-0500
_audit_creation_method            fapswitch 2.2
_symmetry_space_group_name_H-M    P1
_symmetry_Int_Tables_number       1
_space_group_crystal_system       triclinic
_cell_length_a                    10.79506
_cell_length_b                    8.679668
_cell_length_c                    7.476369
_cell_angle_alpha                 102.773307
_cell_angle_beta                  96.04352
_cell_angle_gamma                 92.614498
_cell_volume                      677.667991098

loop_
_atom_site_label
_atom_site_type_symbol
_atom_type_description
_atom_site_fract_x
_atom_site_fract_y
_atom_site_fract_z
_atom_type_partial_charge
C1    C     C_R   0.495915 0.199753 0.453328 0.895469
C2    C     C_R   0.078530 0.586598 0.663887 -0.010450
C3    C     C_R   0.129160 0.517463 0.501089 -0.088842
C4    C     C_R   0.051279 0.432163 0.345719 -0.199528
C5    C     C_R   0.923761 0.417814 0.350291 -0.253835
C6    C     C_R   0.873201 0.477866 0.512928 -0.082167
C7    C     C_2   0.493866 0.031878 0.427013 -0.367280
C8    C     C_2   0.505005 0.968028 0.572921 -0.371162
C9    C     C_R   0.263007 0.509360 0.500807 0.789607
C10   C     C_R   0.503595 0.800210 0.546654 0.871446
C11   C     C_R   0.737754 0.489978 0.501642 0.809331
C12   C     C_R   0.149310 0.693261 0.814253 -0.169306
C13   C     C_R   0.106390 0.729256 0.987327 0.197951
C14   C     C_R   0.994977 0.652402 0.011856 -0.246477
C15   C     C_R   0.921444 0.552770 0.860763 0.151985
C16   C     C_R   0.954532 0.540840 0.679503 0.098236
Cu1   Cu    Cu3+1 0.513920 0.517380 0.684380 0.954122
Cu2   Cu    Cu3+1 0.486080 0.482620 0.315620 0.940486
H1    H     H_    0.088870 0.376018 0.220560 0.171703
H2    H     H_    0.595797 0.626212 0.052838 0.220116
H3    H     H_    0.238373 0.748405 0.798951 0.163275
H4    H     H_    0.967442 0.665087 0.149166 0.152451
H5    H     H_    0.864068 0.354801 0.229022 0.157911
H6    H     H_    0.483420 0.960501 0.286334 0.178568
H7    H     H_    0.515423 0.039414 0.713594 0.181739
H8    H     H_    0.403175 0.374981 0.947341 0.229076
N1    N     N_2   0.465100 0.456430 0.038520 -0.219915
N2    N     N_2   0.534900 0.543570 0.961480 -0.221844
O1    O     O_R   0.509050 0.286130 0.619770 -0.577250
O2    O     O_R   0.485540 0.256780 0.308360 -0.583883
O3    O     O_R   0.331410 0.514680 0.655740 -0.591509
O4    O     O_R   0.307900 0.485330 0.344330 -0.587807
O5    O     O_R   0.514460 0.743220 0.691640 -0.591302
O6    O     O_R   0.490950 0.713870 0.380230 -0.590898
O7    O     O_R   0.692100 0.514670 0.655670 -0.549743
O8    O     O_R   0.668590 0.485320 0.344260 -0.601495
N3    N     N_3   0.181674 0.834157 0.139200 -0.591990
H9    H     H_    0.263381 0.778988 0.166652 0.236546
H10   H     H_    0.136433 0.849568 0.258290 0.213998
N4    N     N_3   0.835110 0.435896 0.895832 -0.547948
H11   H     H_    0.886713 0.346257 0.932199 0.203670
H12   H     H_    0.787579 0.487439 0.006206 0.226945

loop_
_geom_bond_atom_site_label_1
_geom_bond_atom_site_label_2
_ccdc_geom_bond_type
N3    H9    S    
C3    C9    S    
C7    H6    S    
C4    H1    S    
Cu1   O1    S    
C13   N3    S    
C5    H5    S    
C2    C12   A    
C14   H4    S    
C11   O7    A    
C2    C3    A    
C7    C8    D    
N3    H10   S    
C13   C14   A    
C8    H7    S    
Cu2   O6    S    
H8    N1    S    
Cu1   O5    S    
Cu2   O2    S    
N4    H12   S    
N4    H11   S    
Cu1   Cu2   S    
C10   O5    A    
C5    C6    A    
Cu1   O3    S    
C15   N4    S    
Cu2   O4    S    
C1    O1    A    
C6    C16   A    
C15   C16   A    
N1    N2    D    
C2    C16   A    
C12   C13   A    
C10   O6    A    
C6    C11   S    
C9    O3    A    
C14   C15   A    
C1    O2    A    
Cu1   O7    S    
H2    N2    S    
C9    O4    A    
C1    C7    S    
Cu1   N2    S    
Cu2   O8    S    
C12   H3    S    
C8    C10   S    
Cu2   N1    S    
C3    C4    A    
C4    C5    A    
C11   O8    A    
