data_mof_unit_62850.cif
_audit_creation_date              2012-12-10T21:09:17-0500
_audit_creation_method            fapswitch 2.2
_symmetry_space_group_name_H-M    P1
_symmetry_Int_Tables_number       1
_space_group_crystal_system       triclinic
_cell_length_a                    10.893644
_cell_length_b                    17.552206
_cell_length_c                    16.752693
_cell_angle_alpha                 89.818164
_cell_angle_beta                  104.03524
_cell_angle_gamma                 90.321672
_cell_volume                      3107.55873539

loop_
_atom_site_label
_atom_site_type_symbol
_atom_type_description
_atom_site_fract_x
_atom_site_fract_y
_atom_site_fract_z
_atom_type_partial_charge
C1    C     C_R   0.498443 0.353111 0.499890 0.867869
C2    C     C_R   0.576995 0.549755 0.264352 0.684969
C3    C     C_R   0.574189 0.550693 0.759524 -0.108228
C4    C     C_R   0.425252 0.449604 0.240385 -0.108106
C5    C     C_R   0.575252 0.552094 0.843808 -0.270672
C6    C     C_R   0.424148 0.448230 0.156087 -0.270612
C7    C     C_R   0.500298 0.500569 0.875599 0.103940
C8    C     C_R   0.499650 0.499475 0.124385 0.103745
C9    C     C_1   0.500290 0.500302 0.963472 -0.025487
C10   C     C_1   0.499652 0.499760 0.036512 -0.025434
C11   C     C_R   0.258958 0.500107 0.465914 0.959351
C12   C     C_R   0.499039 0.646892 0.499712 0.869666
C13   C     C_R   0.741010 0.499538 0.534092 0.960336
C14   C     C_2   0.123239 0.498157 0.446207 -0.385055
C15   C     C_2   0.876706 0.500037 0.553872 -0.386100
C16   C     C_2   0.067059 0.501104 0.508115 -0.154643
C17   C     C_2   0.932960 0.494588 0.492186 -0.156976
C18   C     C_R   0.463523 0.847052 0.566306 -0.165173
C19   C     C_R   0.467421 0.152598 0.422445 -0.165439
C20   C     C_R   0.478771 0.768677 0.568926 -0.207321
C21   C     C_R   0.482741 0.231056 0.424864 -0.207951
C22   C     C_R   0.489197 0.729414 0.498005 -0.039989
C23   C     C_R   0.458637 0.885999 0.493001 0.166936
C24   C     C_R   0.487512 0.270575 0.498285 -0.039779
C25   C     C_R   0.484682 0.769329 0.424619 -0.186145
C26   C     C_R   0.476388 0.230887 0.569092 -0.183298
C27   C     C_R   0.469465 0.847746 0.422249 -0.174414
C28   C     C_R   0.461067 0.152385 0.566430 -0.175316
C29   C     C_3   0.231438 0.385985 0.693230 -0.372255
C30   C     C_3   0.770864 0.611211 0.307876 -0.364276
C31   C     C_R   0.456641 0.113828 0.493159 0.167109
C32   C     C_1   0.451050 0.966064 0.491936 -0.070123
C33   C     C_1   0.450388 0.033680 0.492056 -0.070044
C34   C     C_R   0.425193 0.448742 0.821087 -0.383670
C35   C     C_R   0.575332 0.550988 0.179000 -0.383115
C36   C     C_R   0.423520 0.449930 0.735705 0.686166
H1    H     H_    0.879808 0.486405 0.428852 0.191476
H2    H     H_    0.490665 0.260609 0.369458 0.156150
H3    H     H_    0.492448 0.740100 0.369217 0.180622
H4    H     H_    0.479202 0.260336 0.626234 0.185101
H5    H     H_    0.467112 0.878547 0.365721 0.134848
H6    H     H_    0.453989 0.121745 0.621425 0.134924
H7    H     H_    0.369473 0.407465 0.845311 0.150713
H8    H     H_    0.631559 0.592080 0.154937 0.150937
H9    H     H_    0.633025 0.590378 0.735827 0.151001
H10   H     H_    0.366006 0.410139 0.264017 0.150668
H11   H     H_    0.187824 0.439532 0.708654 0.146140
H12   H     H_    0.120196 0.508238 0.571608 0.192713
H13   H     H_    0.234558 0.342065 0.741524 0.168219
H14   H     H_    0.169161 0.363685 0.635470 0.208134
H15   H     H_    0.770593 0.654585 0.259441 0.167331
H16   H     H_    0.812710 0.556773 0.293185 0.144092
H17   H     H_    0.833066 0.633105 0.365867 0.207573
H18   H     H_    0.634793 0.592958 0.883908 0.152023
H19   H     H_    0.364159 0.407606 0.115913 0.151907
H20   H     H_    0.930080 0.506785 0.617353 0.144696
H21   H     H_    0.069848 0.492534 0.382593 0.144466
H22   H     H_    0.456531 0.877287 0.621336 0.132668
H23   H     H_    0.465308 0.122140 0.365938 0.132523
H24   H     H_    0.481749 0.738955 0.626125 0.156766
N1    N     N_R   0.500030 0.500030 0.707240 -0.126093
N2    N     N_R   0.499970 0.499970 0.292760 -0.126299
O1    O     O_R   0.500000 0.389130 0.566570 -0.574913
O2    O     O_3   0.647841 0.601365 0.319844 -0.586994
O3    O     O_R   0.500000 0.610870 0.433430 -0.574428
O4    O     O_R   0.499990 0.389100 0.433480 -0.639385
O5    O     O_R   0.500010 0.610900 0.566520 -0.639745
O6    O     O_R   0.317810 0.500010 0.541690 -0.583834
O7    O     O_R   0.682190 0.499990 0.458310 -0.583045
O8    O     O_R   0.317800 0.499990 0.408610 -0.630281
O9    O     O_R   0.682200 0.500010 0.591390 -0.629666
O10   O     O_3   0.353325 0.398067 0.680179 -0.588739
Zn1   Zn    Zn3+2 0.500010 0.500020 0.588860 0.978552
Zn2   Zn    Zn3+2 0.499990 0.499980 0.411140 0.978715

loop_
_geom_bond_atom_site_label_1
_geom_bond_atom_site_label_2
_ccdc_geom_bond_type
C2    C35   A    
O8    Zn2   S    
C6    C8    A    
C30   H15   S    
C31   C33   S    
C7    C9    S    
O5    Zn1   S    
C23   C27   A    
C25   C27   A    
C5    C7    A    
C9    C10   T    
C27   H5    S    
C2    O2    S    
C26   C28   A    
C1    C24   S    
C6    H19   S    
C29   O10   S    
C19   C31   A    
C32   C33   T    
C16   H12   S    
C3    N1    A    
C1    O4    A    
C11   O8    A    
O7    Zn2   S    
C29   H13   S    
C12   O5    A    
C15   H20   S    
C35   H8    S    
C26   H4    S    
O9    Zn1   S    
C16   C17   S    
C13   O7    A    
C29   H11   S    
C1    O1    A    
C8    C10   S    
C19   C21   A    
C34   C36   A    
C24   C26   A    
C30   O2    S    
C29   H14   S    
C13   C15   S    
N1    Zn1   S    
C4    H10   S    
C30   H17   S    
C14   C16   D    
C20   H24   S    
C21   H2    S    
C36   O10   S    
C18   C23   A    
O4    Zn2   S    
C4    N2    A    
C5    H18   S    
C2    N2    A    
C12   C22   S    
C7    C34   A    
C22   C25   A    
C18   C20   A    
C4    C6    A    
C12   O3    A    
C21   C24   A    
C28   H6    S    
C11   C14   S    
C15   C17   D    
C14   H21   S    
C30   H16   S    
C11   O6    A    
N2    Zn2   S    
C17   H1    S    
C13   O9    A    
C19   H23   S    
O6    Zn1   S    
C34   H7    S    
O1    Zn1   S    
C3    H9    S    
C28   C31   A    
C25   H3    S    
O3    Zn2   S    
C36   N1    A    
C23   C32   S    
C20   C22   A    
C18   H22   S    
C3    C5    A    
C8    C35   A    
