data_mof_unit_29141.cif
_audit_creation_date              2012-12-10T17:17:25-0500
_audit_creation_method            fapswitch 2.2
_symmetry_space_group_name_H-M    P1
_symmetry_Int_Tables_number       1
_space_group_crystal_system       triclinic
_cell_length_a                    10.281192
_cell_length_b                    10.672598
_cell_length_c                    12.275625
_cell_angle_alpha                 90.87922
_cell_angle_beta                  109.535096
_cell_angle_gamma                 95.982223
_cell_volume                      1260.70755841

loop_
_atom_site_label
_atom_site_type_symbol
_atom_type_description
_atom_site_fract_x
_atom_site_fract_y
_atom_site_fract_z
_atom_type_partial_charge
C1    C     C_R   0.048759 0.733094 0.487353 0.880249
C2    C     C_R   0.416199 0.478608 0.993997 0.077214
C3    C     C_R   0.325816 0.442809 0.881242 0.083291
C4    C     C_R   0.554762 0.450368 0.025072 0.096216
C5    C     C_R   0.594222 0.368077 0.952776 0.167173
C6    C     C_R   0.495972 0.316842 0.849364 -0.238367
C7    C     C_R   0.363156 0.353557 0.813884 -0.185237
C8    C     C_R   0.656062 0.504553 0.125212 -0.228291
C9    C     C_R   0.826673 0.382436 0.093223 -0.185273
C10   C     C_R   0.201351 0.498852 0.838629 -0.139665
C11   C     C_2   0.064637 0.864575 0.457825 -0.195305
C12   C     C_R   0.132198 0.504608 0.714053 0.876265
C13   C     C_2   0.952984 0.928261 0.436399 -0.225511
C14   C     C_2   0.904590 0.131946 0.487863 -0.371766
C15   C     C_2   0.963672 0.063618 0.429576 -0.126302
C16   C     C_2   0.429935 0.515755 0.508375 -0.074709
C17   C     C_2   0.564153 0.493730 0.487912 -0.051786
C18   C     C_R   0.945411 0.266690 0.502431 0.923010
C19   C     C_R   0.865778 0.487779 0.285945 0.874179
C20   C     C_R   0.730903 0.336623 0.986389 -0.183639
C21   C     C_R   0.786919 0.463777 0.163826 -0.051890
C22   C     C_R   0.152112 0.562187 0.915327 -0.225206
C23   C     C_R   0.231064 0.578070 0.032419 0.052421
C24   C     C_R   0.364191 0.540367 0.071224 -0.226885
H1    H     H_    0.928521 0.350010 0.122676 0.163236
H2    H     H_    0.854988 0.883150 0.440500 0.194445
H3    H     H_    0.832754 0.088520 0.527990 0.165415
H4    H     H_    0.313715 0.372275 0.400448 0.169629
H5    H     H_    0.522405 0.250207 0.794843 0.161370
H6    H     H_    0.761768 0.272931 0.932369 0.145969
H7    H     H_    0.633739 0.575895 0.177584 0.151093
H8    H     H_    0.054039 0.601603 0.883788 0.175853
H9    H     H_    0.423125 0.556423 0.162366 0.138513
H10   H     H_    0.289492 0.309717 0.733989 0.177040
H11   H     H_    0.033158 0.108932 0.388421 0.222948
N1    N     N_2   0.313640 0.446500 0.454900 -0.217601
N2    N     N_2   0.686360 0.553430 0.545150 -0.160953
O1    O     O_R   0.936910 0.692950 0.509080 -0.614009
O2    O     O_R   0.138320 0.658600 0.480130 -0.581673
O3    O     O_R   0.002900 0.525670 0.675280 -0.609290
O4    O     O_R   0.204310 0.491320 0.646330 -0.610065
O5    O     O_R   0.861680 0.341400 0.519870 -0.601982
O6    O     O_R   0.063090 0.307050 0.490920 -0.615943
O7    O     O_R   0.795690 0.508680 0.353670 -0.610698
O8    O     O_R   0.997100 0.474330 0.324720 -0.607852
Zn1   Zn    Zn3+2 0.865520 0.522940 0.519330 0.959866
Zn2   Zn    Zn3+2 0.134480 0.477060 0.480670 0.960032
C25   C     C_2   0.199441 0.921655 0.450594 0.932848
O9    O     O_2   0.307365 0.910091 0.529040 -0.626782
O10   O     O_R   0.203243 0.985718 0.353012 -0.807847
H12   H     H_    0.301151 0.019667 0.358341 0.343340
C26   C     C_1   0.554946 0.404798 0.394933 0.238507
N3    N     N_1   0.546406 0.332894 0.320595 -0.211676
C27   C     C_1   0.426637 0.618391 0.584995 0.338306
N4    N     N_1   0.425058 0.699879 0.647695 -0.142474
C28   C     C_1   0.712787 0.605461 0.656180 0.292142
N5    N     N_1   0.736308 0.648443 0.748876 -0.231555
C29   C     C_1   0.178197 0.638528 0.112084 0.165662
N6    N     N_1   0.135755 0.686912 0.176153 -0.166000

loop_
_geom_bond_atom_site_label_1
_geom_bond_atom_site_label_2
_ccdc_geom_bond_type
C12   O3    A    
C23   C29   S    
C2    C4    A    
C23   C24   A    
C19   O8    A    
C6    C7    A    
C14   H3    S    
C14   C18   S    
C9    C20   A    
C24   H9    S    
C1    C11   S    
C4    C8    A    
C13   C15   S    
C2    C3    A    
O4    Zn2   S    
C9    H1    S    
C3    C10   A    
C17   N2    D    
C18   O6    A    
C16   N1    D    
O3    Zn1   S    
C11   C13   D    
C9    C21   A    
C11   C25   S    
C12   O4    A    
C22   H8    S    
C1    O1    A    
C10   C12   S    
C17   C26   S    
C25   O10   S    
C25   O9    D    
C19   C21   S    
O7    Zn1   S    
C8    C21   A    
C3    C7    A    
O8    Zn2   S    
C2    C24   A    
C5    C6    A    
C7    H10   S    
C16   C27   S    
C13   H2    S    
O1    Zn1   S    
N2    Zn1   S    
C28   N5    T    
C1    O2    A    
C6    H5    S    
C19   O7    A    
H4    N1    S    
N1    Zn2   S    
O2    Zn2   S    
O5    Zn1   S    
C15   H11   S    
C5    C20   A    
C14   C15   D    
C4    C5    A    
C20   H6    S    
C18   O5    A    
O10   H12   S    
C29   N6    T    
C27   N4    T    
N2    C28   S    
O6    Zn2   S    
C22   C23   A    
C10   C22   A    
C8    H7    S    
C26   N3    T    
C16   C17   S    
