data_mof_unit_8717.cif
_audit_creation_date              2012-12-10T17:39:04-0500
_audit_creation_method            fapswitch 2.2
_symmetry_space_group_name_H-M    P1
_symmetry_Int_Tables_number       1
_space_group_crystal_system       triclinic
_cell_length_a                    12.197303
_cell_length_b                    12.787886
_cell_length_c                    23.064846
_cell_angle_alpha                 92.942329
_cell_angle_beta                  86.080334
_cell_angle_gamma                 94.347552
_cell_volume                      3575.00612693

loop_
_atom_site_label
_atom_site_type_symbol
_atom_type_description
_atom_site_fract_x
_atom_site_fract_y
_atom_site_fract_z
_atom_type_partial_charge
C1    C     C_R   0.522572 0.699270 0.495417 0.864039
C2    C     C_R   0.477384 0.300463 0.503110 0.879273
C3    C     C_R   0.491600 0.459461 0.769580 0.052064
C4    C     C_R   0.485712 0.646107 0.256088 0.046736
C5    C     C_R   0.490157 0.440631 0.709672 -0.317416
C6    C     C_R   0.480121 0.619248 0.313684 -0.310391
C7    C     C_R   0.503054 0.524369 0.672685 -0.043154
C8    C     C_R   0.502399 0.518490 0.328085 -0.040426
C9    C     C_R   0.518018 0.629209 0.695265 0.125445
C10   C     C_R   0.528787 0.441260 0.284512 0.115535
C11   C     C_R   0.518579 0.647851 0.755788 0.028495
C12   C     C_R   0.533067 0.468347 0.225888 0.026958
C13   C     C_R   0.505663 0.563087 0.792621 0.191861
C14   C     C_R   0.511665 0.570750 0.212007 0.192712
C15   C     C_R   0.462561 0.189224 0.508889 -0.093438
C16   C     C_R   0.537138 0.810548 0.489048 -0.091460
C17   C     C_R   0.606887 0.966242 0.438895 0.214952
C18   C     C_R   0.391561 0.033353 0.558272 0.213114
C19   C     C_R   0.604672 0.856513 0.443605 0.160067
C20   C     C_R   0.395789 0.143238 0.554531 0.169621
C21   C     C_R   0.471532 0.869495 0.527363 -0.304635
C22   C     C_R   0.526549 0.130281 0.469734 -0.308269
C23   C     C_R   0.500083 0.501724 0.610552 0.870447
C24   C     C_R   0.500041 0.499762 0.389509 0.866159
C25   C     C_R   0.464874 0.975452 0.520800 0.076858
C26   C     C_R   0.533248 0.024155 0.476195 0.078429
C27   C     C_R   0.955775 0.446885 0.428248 -0.084599
C28   C     C_R   0.044350 0.553772 0.571742 -0.085280
C29   C     C_R   0.840711 0.434759 0.439915 0.253704
C30   C     C_R   0.159487 0.565538 0.560076 0.244391
C31   C     C_R   0.857623 0.529014 0.530852 0.238861
C32   C     C_R   0.142312 0.471191 0.469163 0.241542
C33   C     C_R   0.974887 0.520347 0.526391 -0.056811
C34   C     C_R   0.025133 0.480065 0.473643 -0.057411
C35   C     C_R   0.413655 0.598310 0.127926 0.530562
C36   C     C_R   0.605954 0.596469 0.878489 0.531964
C37   C     C_R   0.610062 0.616435 0.121735 0.524958
C38   C     C_R   0.409649 0.592677 0.885756 0.525844
C39   C     C_R   0.613278 0.628579 0.061045 -0.091091
C40   C     C_R   0.407827 0.611461 0.946653 -0.090479
C41   C     C_R   0.511445 0.624188 0.034338 -0.059141
C42   C     C_R   0.510096 0.620298 0.973194 -0.059139
C43   C     C_R   0.410604 0.619190 0.068779 -0.025618
C44   C     C_R   0.610856 0.621045 0.938602 -0.025685
C45   C     C_R   0.713596 0.643745 0.026343 -0.018481
C46   C     C_R   0.308379 0.622367 0.981662 -0.020183
C47   C     C_R   0.712259 0.644544 0.965193 0.117735
C48   C     C_R   0.310432 0.631251 0.042769 0.118364
H1    H     H_    0.479091 0.360743 0.691706 0.150622
H2    H     H_    0.459920 0.677696 0.347779 0.163222
H3    H     H_    0.573856 0.170200 0.434931 0.166800
H4    H     H_    0.423349 0.829875 0.561935 0.172727
N1    N     N_R   0.511906 0.596976 0.152384 -0.348782
N2    N     N_R   0.507026 0.583234 0.854183 -0.349076
N3    N     N_R   0.207800 0.519350 0.510590 -0.105150
N4    N     N_R   0.792200 0.480650 0.489410 -0.104986
O1    O     O_R   0.421690 0.658830 0.502820 -0.621454
O2    O     O_R   0.578310 0.341170 0.497180 -0.620385
O3    O     O_R   0.609320 0.646410 0.496030 -0.627348
O4    O     O_R   0.390680 0.353590 0.503970 -0.625748
O5    O     O_R   0.406170 0.506240 0.587240 -0.617930
O6    O     O_R   0.593830 0.493760 0.412760 -0.618152
O7    O     O_R   0.593790 0.493820 0.580450 -0.607663
O8    O     O_R   0.406210 0.506180 0.419550 -0.612458
O9    O     O_2   0.320020 0.573951 0.160551 -0.552947
O10   O     O_2   0.698203 0.581812 0.844296 -0.555089
O11   O     O_2   0.703287 0.620602 0.150279 -0.549434
O12   O     O_2   0.315676 0.581774 0.857714 -0.548570
Zn1   Zn    Zn3+2 0.374720 0.508290 0.504530 0.933056
Zn2   Zn    Zn3+2 0.625280 0.491710 0.495470 0.933917
C49   C     C_1   0.819312 0.655330 0.052305 0.300423
N5    N     N_1   0.903827 0.664557 0.072717 -0.173160
C50   C     C_1   0.202815 0.622966 0.956099 0.300516
N6    N     N_1   0.118411 0.623518 0.936040 -0.169772
C51   C     C_3   0.193226 0.399432 0.422653 -0.778103
H5    H     H_    0.266504 0.366291 0.436424 0.274137
H6    H     H_    0.136861 0.329041 0.413716 0.204866
H7    H     H_    0.215526 0.442210 0.382383 0.247944
C52   C     C_3   0.806594 0.600837 0.577316 -0.774949
H8    H     H_    0.733183 0.633715 0.563580 0.276680
H9    H     H_    0.784503 0.558264 0.617674 0.249008
H10   H     H_    0.862749 0.671438 0.586105 0.204570
C53   C     C_3   0.226809 0.627833 0.604311 -0.783220
H11   H     H_    0.183754 0.697894 0.620982 0.201827
H12   H     H_    0.238019 0.579043 0.641626 0.248968
H13   H     H_    0.306597 0.659988 0.585850 0.270317
C54   C     C_3   0.773626 0.372602 0.395654 -0.805403
H14   H     H_    0.817013 0.302957 0.378625 0.203126
H15   H     H_    0.694239 0.339906 0.414322 0.268726
H16   H     H_    0.761950 0.421840 0.358604 0.251672
C55   C     C_1   0.997969 0.435943 0.367950 0.181395
N7    N     N_1   0.030542 0.427422 0.319729 -0.167488
C56   C     C_1   0.002171 0.565588 0.632001 0.179214
N8    N     N_1   0.969602 0.574832 0.680192 -0.160735
C57   C     C_3   0.818101 0.674450 0.929029 -0.736825
H17   H     H_    0.881325 0.719213 0.954511 0.210382
H18   H     H_    0.854463 0.602818 0.909407 0.278553
H19   H     H_    0.801395 0.727827 0.894694 0.259851
C58   C     C_3   0.207140 0.658338 0.079532 -0.736853
H20   H     H_    0.151204 0.702025 0.055377 0.212979
H21   H     H_    0.161235 0.585570 0.094876 0.274612
H22   H     H_    0.228716 0.712096 0.117043 0.260624
C59   C     C_1   0.478690 0.371982 0.807141 0.222518
N9    N     N_1   0.468334 0.301887 0.837328 -0.176594
C60   C     C_1   0.465113 0.751579 0.242664 0.209521
N10   N     N_1   0.448633 0.836140 0.231874 -0.191519
C61   C     C_3   0.533488 0.721594 0.656290 -0.914288
H23   H     H_    0.534582 0.698093 0.609682 0.230006
H24   H     H_    0.465358 0.773934 0.666125 0.240112
H25   H     H_    0.613220 0.766425 0.663821 0.253839
C62   C     C_3   0.548970 0.330563 0.299316 -0.911561
H26   H     H_    0.537973 0.317386 0.346532 0.222980
H27   H     H_    0.490016 0.273824 0.277365 0.254868
H28   H     H_    0.634264 0.313111 0.284100 0.254949
C63   C     C_1   0.532152 0.753958 0.780818 0.204917
N11   N     N_1   0.542986 0.838637 0.800870 -0.185589
C64   C     C_1   0.557413 0.391259 0.179513 0.219020
N12   N     N_1   0.576873 0.329754 0.142398 -0.176952
C65   C     C_3   0.336156 0.209911 0.601171 -0.872948
H29   H     H_    0.350954 0.183697 0.644949 0.239667
H30   H     H_    0.365563 0.293803 0.601897 0.244619
H31   H     H_    0.246426 0.203359 0.594905 0.250712
C66   C     C_3   0.668048 0.790123 0.398351 -0.870735
H32   H     H_    0.651004 0.811860 0.354006 0.244104
H33   H     H_    0.757702 0.802432 0.404362 0.251173
H34   H     H_    0.644560 0.705166 0.399504 0.253239
C67   C     C_3   0.685879 0.021952 0.394535 -0.909999
H35   H     H_    0.734940 0.086969 0.416710 0.239752
H36   H     H_    0.746862 0.971597 0.372033 0.258051
H37   H     H_    0.638670 0.053937 0.360821 0.244377
C68   C     C_3   0.311058 0.977744 0.601956 -0.915234
H38   H     H_    0.262583 0.912821 0.579361 0.240471
H39   H     H_    0.356885 0.945714 0.636217 0.241669
H40   H     H_    0.249443 0.028452 0.623605 0.258220

loop_
_geom_bond_atom_site_label_1
_geom_bond_atom_site_label_2
_ccdc_geom_bond_type
C54   H14   S    
C56   N8    T    
C35   N1    A    
C61   H24   S    
C50   N6    T    
C30   N3    A    
C57   H17   S    
C68   H40   S    
C32   C51   S    
C57   H19   S    
C66   H32   S    
C39   C41   A    
C40   C46   A    
C19   C66   S    
C16   C21   A    
C53   H11   S    
C17   C26   A    
C1    O3    A    
C36   O10   S    
C66   H33   S    
C45   C49   S    
C35   O9    S    
C3    C59   S    
C63   N11   T    
C27   C29   A    
O6    Zn2   S    
C41   C42   A    
C30   C53   S    
C8    C24   S    
C15   C22   A    
C62   H26   S    
C61   H23   S    
C31   C33   A    
C27   C55   S    
C31   N4    A    
C11   C63   S    
C43   C48   A    
C32   N3    A    
C18   C20   A    
C3    C13   A    
C44   C47   A    
C39   C45   A    
C37   N1    A    
C45   C47   A    
C24   O8    A    
C41   C43   A    
C5    H1    S    
C18   C68   S    
C18   C25   A    
C42   C44   A    
C65   H30   S    
C27   C34   A    
C15   C20   A    
C46   C48   A    
C4    C6    A    
C55   N7    T    
C52   H9    S    
C17   C67   S    
C66   H34   S    
C6    C8    A    
C68   H39   S    
C25   C26   A    
C12   C64   S    
C28   C56   S    
C32   C34   A    
C51   H5    S    
C67   H36   S    
C20   C65   S    
C1    O1    A    
C51   H6    S    
C58   H20   S    
C38   N2    A    
O7    Zn2   S    
C14   N1    S    
C2    O2    A    
C33   C34   A    
C10   C62   S    
C62   H27   S    
C1    C16   S    
O8    Zn1   S    
C6    H2    S    
C2    C15   S    
C9    C11   A    
N3    Zn1   S    
C10   C12   A    
C53   H12   S    
C38   O12   S    
C28   C33   A    
N4    Zn2   S    
C54   H15   S    
C61   H25   S    
C36   C44   A    
C67   H35   S    
C35   C43   A    
C5    C7    A    
C13   N2    S    
C4    C60   S    
C65   H31   S    
O5    Zn1   S    
C7    C9    A    
C48   C58   S    
C21   C25   A    
C24   O6    A    
C58   H21   S    
O2    Zn2   S    
C12   C14   A    
C40   C42   A    
C3    C5    A    
C52   H10   S    
C65   H29   S    
C57   H18   S    
C31   C52   S    
C29   N4    A    
C9    C61   S    
C60   N10   T    
C53   H13   S    
C28   C30   A    
C67   H37   S    
C49   N5    T    
C37   C39   A    
C64   N12   T    
C38   C40   A    
C11   C13   A    
O4    Zn1   S    
C16   C19   A    
C7    C23   S    
C37   O11   S    
C23   O7    A    
C17   C19   A    
C62   H28   S    
C2    O4    A    
C46   C50   S    
C4    C14   A    
C51   H7    S    
C29   C54   S    
C36   N2    A    
O3    Zn2   S    
C52   H8    S    
C23   O5    A    
C58   H22   S    
C8    C10   A    
C22   C26   A    
C54   H16   S    
C59   N9    T    
C47   C57   S    
O1    Zn1   S    
C21   H4    S    
C68   H38   S    
C22   H3    S    
