data_mof_unit_39755.cif
_audit_creation_date              2012-12-10T18:22:33-0500
_audit_creation_method            fapswitch 2.2
_symmetry_space_group_name_H-M    P1
_symmetry_Int_Tables_number       1
_space_group_crystal_system       triclinic
_cell_length_a                    23.597099
_cell_length_b                    10.632193
_cell_length_c                    9.511475
_cell_angle_alpha                 89.879889
_cell_angle_beta                  89.592297
_cell_angle_gamma                 91.134024
_cell_volume                      2385.78983211

loop_
_atom_site_label
_atom_site_type_symbol
_atom_type_description
_atom_site_fract_x
_atom_site_fract_y
_atom_site_fract_z
_atom_type_partial_charge
C1    C     C_R   0.502508 0.259883 0.499935 0.812649
C2    C     C_R   0.703896 0.560115 0.402642 0.142794
C3    C     C_R   0.238861 0.388110 0.487729 -0.148197
C4    C     C_R   0.762346 0.548570 0.399537 -0.148589
C5    C     C_R   0.209121 0.498166 0.516129 0.162006
C6    C     C_R   0.790898 0.490398 0.510020 0.154000
C7    C     C_3   0.510754 0.042183 0.632744 -0.123900
C8    C     C_3   0.504111 0.958392 0.367446 -0.122954
C9    C     C_3   0.555628 0.961120 0.558310 -0.117396
C10   C     C_3   0.459089 0.038122 0.441542 -0.104530
C11   C     C_3   0.507357 0.877528 0.500530 -0.011947
C12   C     C_R   0.503237 0.740211 0.499994 0.828673
C13   C     C_3   0.506460 0.122890 0.499561 -0.012086
C14   C     C_3   0.462889 0.956473 0.575314 -0.139433
C15   C     C_3   0.551843 0.045077 0.425331 -0.156653
C16   C     C_R   0.391283 0.499753 0.500594 0.879756
C17   C     C_R   0.608744 0.497354 0.499923 0.859657
C18   C     C_3   0.498343 0.613274 0.050985 -0.229994
C19   C     C_3   0.501693 0.386798 0.949133 -0.230515
C20   C     C_3   0.455119 0.551885 0.950421 0.160104
C21   C     C_3   0.545181 0.448693 0.049851 0.169698
C22   C     C_3   0.543244 0.561528 0.950292 0.487271
C23   C     C_R   0.240414 0.610341 0.545836 0.359848
C24   C     C_3   0.456941 0.439329 0.049008 0.485946
C25   C     C_R   0.882338 0.599703 0.477793 0.592419
C26   C     C_R   0.117611 0.398023 0.576648 0.588928
C27   C     C_R   0.880339 0.379569 0.527452 0.648256
C28   C     C_R   0.119714 0.585091 0.437569 0.642055
C29   C     C_R   0.939461 0.380447 0.541185 -0.019513
C30   C     C_R   0.060578 0.592273 0.446017 -0.018922
C31   C     C_R   0.970197 0.489872 0.503314 -0.013669
C32   C     C_R   0.029815 0.490413 0.504458 -0.014091
C33   C     C_R   0.941512 0.598557 0.463398 -0.025369
C34   C     C_R   0.758668 0.434739 0.621481 0.344488
C35   C     C_R   0.058486 0.388707 0.563141 -0.029498
C36   C     C_R   0.968512 0.275425 0.591201 -0.111471
C37   C     C_R   0.031561 0.697825 0.397398 -0.106334
C38   C     C_R   0.027362 0.281463 0.607567 -0.130829
C39   C     C_R   0.972646 0.703022 0.411460 -0.132372
C40   C     C_R   0.299449 0.613275 0.519837 0.013255
C41   C     C_R   0.699231 0.421806 0.606401 0.054604
C42   C     C_R   0.328777 0.500124 0.502903 -0.132214
C43   C     C_R   0.671246 0.491735 0.501600 -0.181397
C44   C     C_R   0.297598 0.386771 0.495443 0.148177
Cu1   Cu    Cu3+1 0.500010 0.499990 0.643150 1.066787
Cu2   Cu    Cu3+1 0.499990 0.500010 0.356850 1.064060
H1    H     H_    0.945703 0.190431 0.622676 0.204770
H2    H     H_    0.420428 0.065119 0.385474 0.217615
H3    H     H_    0.513520 0.078451 0.741913 0.173981
H4    H     H_    0.501415 0.922361 0.258163 0.178454
H5    H     H_    0.427833 0.921444 0.643821 0.198767
H6    H     H_    0.588263 0.084413 0.363921 0.179151
H7    H     H_    0.632407 0.846250 0.965059 0.389880
H8    H     H_    0.334407 0.233313 0.990916 0.396343
H9    H     H_    0.220315 0.861599 0.457639 0.373302
H10   H     H_    0.775849 0.199920 0.750859 0.366658
H11   H     H_    0.054415 0.778243 0.353498 0.203136
H12   H     H_    0.496523 0.709060 0.096797 0.199540
H13   H     H_    0.502705 0.290748 0.903776 0.191728
H14   H     H_    0.048484 0.200877 0.651183 0.204021
H15   H     H_    0.951509 0.787346 0.377933 0.197901
H16   H     H_    0.216194 0.300840 0.466430 0.209721
H17   H     H_    0.786078 0.592974 0.314552 0.215826
H18   H     H_    0.595478 0.927724 0.605520 0.197297
I1    I     I_    0.383075 0.655278 0.884656 -0.117126
I2    I     I_    0.614993 0.340509 0.121352 -0.163300
I3    I     I_    0.342479 0.787196 0.483676 -0.271301
I4    I     I_    0.653370 0.281636 0.725984 -0.253536
I5    I     I_    0.334547 0.209209 0.509680 -0.203672
I6    I     I_    0.670365 0.697962 0.268122 -0.148729
N1    N     N_R   0.852317 0.490221 0.507194 -0.437082
N2    N     N_R   0.147692 0.494613 0.511967 -0.440915
N3    N     N_3   0.500040 0.499970 0.858290 -0.260099
N4    N     N_3   0.499960 0.500030 0.141710 -0.262751
O1    O     O_R   0.500030 0.316850 0.620870 -0.585686
O2    O     O_2   0.144441 0.311859 0.654822 -0.494246
O3    O     O_2   0.851323 0.269167 0.532826 -0.502258
O4    O     O_2   0.148801 0.666736 0.354326 -0.493444
O5    O     O_2   0.655980 0.596241 0.910868 -0.205112
O6    O     O_2   0.595516 0.710829 0.749485 -0.305955
O7    O     O_3   0.601807 0.790452 0.002931 -0.541196
O8    O     O_2   0.411630 0.251926 0.207700 -0.297957
O9    O     O_2   0.351333 0.433361 0.160761 -0.258214
O10   O     O_3   0.369741 0.276247 0.958123 -0.511521
O11   O     O_2   0.157244 0.690874 0.717488 -0.233442
O12   O     O_R   0.499970 0.683150 0.379130 -0.589523
O13   O     O_2   0.250044 0.792936 0.740619 -0.204194
O14   O     O_3   0.188834 0.851680 0.526227 -0.445455
O15   O     O_2   0.843402 0.478069 0.805767 -0.244259
O16   O     O_2   0.750233 0.428230 0.904680 -0.181243
O17   O     O_3   0.807314 0.246560 0.796757 -0.443931
O18   O     O_R   0.500000 0.316860 0.379090 -0.540526
O19   O     O_R   0.500000 0.683140 0.620910 -0.537377
O20   O     O_R   0.417890 0.499960 0.620920 -0.553059
O21   O     O_R   0.582110 0.500040 0.379080 -0.560372
O22   O     O_R   0.417870 0.499970 0.379140 -0.511243
O23   O     O_R   0.582130 0.500030 0.620860 -0.513547
O24   O     O_2   0.855313 0.709598 0.463504 -0.504063
S1    S     S_3+6 0.601101 0.664043 0.897142 0.057673
S2    S     S_3+6 0.395803 0.349017 0.101222 0.053489
S3    S     S_3+6 0.208635 0.737564 0.637382 0.101055
S4    S     S_3+6 0.790443 0.399325 0.786480 0.102472

loop_
_geom_bond_atom_site_label_1
_geom_bond_atom_site_label_2
_ccdc_geom_bond_type
C8    C10   S    
C16   C42   S    
O15   S4    D    
C27   C29   A    
C9    H18   S    
C26   N2    A    
Cu1   O19   S    
H8    O10   S    
O14   S3    S    
C27   N1    A    
Cu1   Cu2   S    
C29   C36   A    
C34   S4    S    
H7    O7    S    
C19   C21   S    
C5    N2    S    
C21   I2    S    
C11   C14   S    
Cu2   O18   S    
C23   C40   A    
C36   H1    S    
Cu1   N3    S    
H9    O14   S    
O16   S4    D    
O13   S3    D    
C18   H12   S    
H10   O17   S    
Cu2   O21   S    
C20   C24   S    
C40   I3    S    
C26   O2    S    
C31   C33   A    
C25   N1    A    
C28   O4    S    
C3    C5    A    
C40   C42   A    
C18   N4    S    
C24   S2    S    
C21   C22   S    
C41   C43   A    
C28   N2    A    
C34   C41   A    
C42   C44   A    
Cu1   O20   S    
C41   I4    S    
C7    C14   S    
C6    N1    S    
C39   H15   S    
C3    C44   A    
C16   O22   A    
O10   S2    S    
C32   C35   A    
C20   I1    S    
C19   N3    S    
C35   C38   A    
C7    H3    S    
C4    C6    A    
C10   C14   S    
O7    S1    S    
C19   H13   S    
C21   N4    S    
C6    C34   A    
C30   C37   A    
C1    O1    A    
C2    C4    A    
C17   C43   S    
C26   C35   A    
C14   H5    S    
C5    C23   A    
C2    C43   A    
C44   I5    S    
C33   C39   A    
C15   H6    S    
C9    C11   S    
C17   O21   A    
C4    H17   S    
C1    O18   A    
O9    S2    D    
C13   C15   S    
O6    S1    D    
C10   H2    S    
C38   H14   S    
C12   O19   A    
C1    C13   S    
O17   S4    S    
C8    H4    S    
Cu2   N4    S    
O11   S3    D    
C3    H16   S    
O5    S1    D    
C7    C9    S    
C22   S1    S    
C18   C22   S    
O8    S2    D    
C31   C32   A    
C27   O3    S    
C10   C13   S    
C11   C12   S    
C8    C15   S    
C16   O20   A    
C12   O12   A    
Cu1   O1    S    
C28   C30   A    
C19   C24   S    
C9    C15   S    
C29   C31   A    
Cu1   O23   S    
C30   C32   A    
C24   N4    S    
C23   S3    S    
C8    C11   S    
C36   C38   A    
C20   N3    S    
C18   C20   S    
C25   O24   S    
C7    C13   S    
Cu2   O22   S    
C37   C39   A    
C22   N3    S    
C2    I6    S    
C17   O23   A    
C37   H11   S    
C25   C33   A    
Cu2   O12   S    
