data_mof_unit_37758.cif
_audit_creation_date              2012-12-10T20:49:42-0500
_audit_creation_method            fapswitch 2.2
_symmetry_space_group_name_H-M    P1
_symmetry_Int_Tables_number       1
_space_group_crystal_system       triclinic
_cell_length_a                    8.169384
_cell_length_b                    8.92144
_cell_length_c                    16.654887
_cell_angle_alpha                 90.000523
_cell_angle_beta                  86.404937
_cell_angle_gamma                 89.999911
_cell_volume                      1211.46392176

loop_
_atom_site_label
_atom_site_type_symbol
_atom_type_description
_atom_site_fract_x
_atom_site_fract_y
_atom_site_fract_z
_atom_type_partial_charge
C1    C     C_R   0.500000 0.781740 0.500000 0.925129
C2    C     C_R   0.500000 0.218253 0.500000 0.924673
C3    C     C_1   0.500000 0.934730 0.500000 -0.170982
C4    C     C_1   0.500000 0.065274 0.500000 -0.163842
C5    C     C_R   0.479632 0.493676 0.653871 0.935326
C6    C     C_R   0.520368 0.493675 0.346129 0.935332
C7    C     C_R   0.471868 0.445607 0.738116 -0.265246
C8    C     C_R   0.528138 0.445597 0.261885 -0.265245
C9    C     C_R   0.601273 0.361296 0.767413 0.414821
C10   C     C_R   0.398740 0.361276 0.232587 0.414826
C11   C     C_R   0.578849 0.287275 0.840776 -0.262549
C12   C     C_R   0.421173 0.287255 0.159224 -0.262558
C13   C     C_R   0.441116 0.319189 0.892345 -0.037207
C14   C     C_R   0.558904 0.319177 0.107656 -0.037201
C15   C     C_R   0.317346 0.412138 0.865055 -0.200184
C16   C     C_R   0.682667 0.412133 0.134947 -0.200187
C17   C     C_R   0.332418 0.473543 0.788287 0.499078
C18   C     C_R   0.667589 0.473538 0.211715 0.499069
C19   C     C_2   0.432345 0.278846 0.978344 0.481695
C20   C     C_2   0.567675 0.278842 0.021656 0.481695
H1    H     H_    0.211684 0.442693 0.904191 0.219549
H2    H     H_    0.788328 0.442692 0.095813 0.219547
H3    H     H_    0.325986 0.211816 0.142175 0.227806
H4    H     H_    0.674041 0.211841 0.857822 0.227812
N1    N     N_1   0.926360 0.500000 0.499990 -0.017477
N2    N     N_1   0.073640 0.500000 0.500010 -0.017479
O1    O     O_R   0.363150 0.714660 0.500000 -0.617134
O2    O     O_R   0.636850 0.285340 0.500000 -0.609350
O3    O     O_R   0.636850 0.714660 0.500000 -0.617131
O4    O     O_R   0.363150 0.285340 0.500000 -0.609350
O5    O     O_R   0.346950 0.500000 0.615800 -0.579158
O6    O     O_R   0.653050 0.500000 0.384200 -0.579151
O7    O     O_R   0.620700 0.500000 0.615800 -0.592522
O8    O     O_R   0.379300 0.500000 0.384200 -0.592524
Zn1   Zn    Zn3+2 0.317220 0.500000 0.500010 1.028713
Zn2   Zn    Zn3+2 0.682780 0.500000 0.499990 1.028717
O9    O     O_3   0.753969 0.361260 0.726800 -0.626393
C21   C     C_3   0.859695 0.463123 0.764123 0.164128
H5    H     H_    0.972974 0.468878 0.724218 0.234529
H6    H     H_    0.894034 0.417965 0.823062 0.173933
C22   C     C_3   0.790449 0.624708 0.774698 -0.444293
H7    H     H_    0.749654 0.667176 0.716641 0.240372
H8    H     H_    0.683760 0.624501 0.819485 0.217216
C23   C     C_3   0.915280 0.734903 0.804854 -0.754067
H9    H     H_    0.973877 0.688698 0.857950 0.282401
H10   H     H_    0.852458 0.841212 0.822890 0.244611
H11   H     H_    0.009461 0.761494 0.756049 0.306901
O10   O     O_3   0.246039 0.361245 0.273195 -0.626388
C24   C     C_3   0.140317 0.463099 0.235865 0.164104
H12   H     H_    0.027023 0.468842 0.275759 0.234533
H13   H     H_    0.106010 0.417946 0.176921 0.173930
C25   C     C_3   0.209550 0.624691 0.225302 -0.444269
H14   H     H_    0.250306 0.667164 0.283365 0.240380
H15   H     H_    0.316262 0.624495 0.180529 0.217211
C26   C     C_3   0.084730 0.734873 0.195127 -0.754081
H16   H     H_    0.026138 0.688648 0.142034 0.282388
H17   H     H_    0.147562 0.841173 0.177082 0.244612
H18   H     H_    0.990541 0.761485 0.243926 0.306915
F1    F     F_    0.781082 0.571598 0.234648 -0.713663
F2    F     F_    0.218917 0.571597 0.765356 -0.713669
F3    F     F_    0.720538 0.281636 0.984226 -0.709327
F4    F     F_    0.279480 0.281628 0.015773 -0.709327

loop_
_geom_bond_atom_site_label_1
_geom_bond_atom_site_label_2
_ccdc_geom_bond_type
C2    C4    S    
C26   H16   S    
C25   C26   S    
C15   C17   A    
O9    C21   S    
C14   C16   A    
C11   C13   A    
C22   H7    S    
C11   H4    S    
C6    O6    A    
C19   C20   D    
C12   H3    S    
C23   H11   S    
C2    O4    A    
C24   C25   S    
C1    O1    A    
O1    Zn1   S    
C25   H15   S    
C9    O9    S    
C16   C18   A    
C19   F4    S    
C25   H14   S    
C21   H6    S    
C20   F3    S    
C9    C11   A    
O3    Zn2   S    
C23   H10   S    
C10   C12   A    
O4    Zn1   S    
O6    Zn2   S    
C1    O3    A    
O10   C24   S    
C12   C14   A    
C24   H12   S    
C1    C3    S    
C26   H17   S    
C13   C15   A    
C10   O10   S    
C21   H5    S    
C22   C23   S    
O5    Zn1   S    
C5    O5    A    
C2    O2    A    
C13   C19   S    
C17   F2    S    
C3    C4    T    
C14   C20   S    
C18   F1    S    
C15   H1    S    
O7    Zn2   S    
C23   H9    S    
O2    Zn2   S    
C21   C22   S    
C7    C9    A    
O8    Zn1   S    
C26   H18   S    
N2    Zn1   S    
C5    C7    S    
C6    C8    S    
N1    Zn2   S    
C7    C17   A    
N1    N2    T    
C8    C10   A    
C8    C18   A    
C22   H8    S    
C6    O8    A    
C16   H2    S    
C24   H13   S    
C5    O7    A    
