data_mof_unit_58507.cif
_audit_creation_date              2012-12-10T16:51:31-0500
_audit_creation_method            fapswitch 2.2
_symmetry_space_group_name_H-M    P1
_symmetry_Int_Tables_number       1
_space_group_crystal_system       triclinic
_cell_length_a                    7.796027
_cell_length_b                    8.584044
_cell_length_c                    12.536401
_cell_angle_alpha                 92.411688
_cell_angle_beta                  103.0182
_cell_angle_gamma                 93.786083
_cell_volume                      814.206916956

loop_
_atom_site_label
_atom_site_type_symbol
_atom_type_description
_atom_site_fract_x
_atom_site_fract_y
_atom_site_fract_z
_atom_type_partial_charge
Br1   Br    Br    0.671023 0.967248 0.431897 -0.548977
C1    C     C_R   0.040814 0.793948 0.492280 0.998765
C2    C     C_R   0.194555 0.569625 0.825237 -0.134504
C3    C     C_2   0.060237 0.957365 0.490134 -0.450555
C4    C     C_R   0.115457 0.526956 0.708463 0.856026
C5    C     C_2   0.918801 0.042178 0.480334 0.089496
C6    C     C_R   0.952947 0.205294 0.497780 0.902330
C7    C     C_R   0.886729 0.469682 0.293223 0.869802
C8    C     C_R   0.869019 0.379132 0.998587 -0.188276
C9    C     C_R   0.818428 0.421948 0.178851 -0.099166
C10   C     C_R   0.094938 0.635448 0.893093 -0.222675
C11   C     C_R   0.164483 0.655841 0.005890 -0.132193
C12   C     C_R   0.425170 0.526868 0.984831 0.059926
C13   C     C_R   0.325251 0.596446 0.052276 -0.192346
C14   C     C_3   0.509086 0.328355 0.192230 -0.393788
C15   C     C_3   0.389612 0.199583 0.116454 -0.365857
C16   C     C_3   0.288850 0.093547 0.180198 -0.836501
C17   C     C_R   0.372523 0.541445 0.871373 0.097073
C18   C     C_R   0.584827 0.457562 0.026017 0.052813
C19   C     C_R   0.701812 0.429503 0.956236 0.133972
C20   C     C_R   0.658291 0.467135 0.848157 -0.266490
C21   C     C_R   0.501742 0.532319 0.808973 -0.168186
C22   C     C_R   0.636257 0.416302 0.134630 0.048378
C23   C     C_R   0.933101 0.389579 0.111027 -0.231997
H1    H     H_    0.072102 0.379274 0.144267 0.180676
H2    H     H_    0.195384 0.009518 0.507759 0.181165
H3    H     H_    0.381616 0.023934 0.235732 0.296519
H4    H     H_    0.216442 0.163420 0.229595 0.261197
H5    H     H_    0.192337 0.011636 0.121977 0.246168
H6    H     H_    0.292353 0.252957 0.052397 0.223773
H7    H     H_    0.470984 0.126646 0.075078 0.241149
H8    H     H_    0.586476 0.269272 0.262555 0.228588
H9    H     H_    0.427927 0.408409 0.227232 0.192899
H10   H     H_    0.471480 0.366164 0.426592 0.197192
H11   H     H_    0.528438 0.637864 0.569298 0.196057
H12   H     H_    0.749408 0.454470 0.795562 0.185452
H13   H     H_    0.957247 0.352731 0.945879 0.158160
H14   H     H_    0.964784 0.672218 0.859057 0.163978
H15   H     H_    0.374664 0.614529 0.139729 0.158211
H16   H     H_    0.089779 0.710936 0.058028 0.156828
H17   H     H_    0.490661 0.585895 0.732424 0.169796
N1    N     N_2   0.434800 0.456690 0.470850 -0.170133
N2    N     N_2   0.565200 0.543310 0.529150 -0.162255
O1    O     O_R   0.893060 0.738880 0.507150 -0.557591
O2    O     O_R   0.172250 0.711130 0.488470 -0.621438
O3    O     O_R   0.944700 0.520730 0.667600 -0.629871
O4    O     O_R   0.223890 0.492980 0.648920 -0.624769
O5    O     O_R   0.827750 0.288870 0.511530 -0.597593
O6    O     O_R   0.106940 0.261120 0.492850 -0.631223
O7    O     O_R   0.776110 0.507020 0.351080 -0.615615
O8    O     O_R   0.055300 0.479270 0.332400 -0.627206
Zn1   Zn    Zn3+2 0.813580 0.518530 0.512470 0.974590
Zn2   Zn    Zn3+2 0.186420 0.481470 0.487530 0.948227

loop_
_geom_bond_atom_site_label_1
_geom_bond_atom_site_label_2
_ccdc_geom_bond_type
C11   H16   S    
C10   H14   S    
O7    Zn1   S    
C10   C11   A    
C8    C23   A    
C5    C6    S    
O3    Zn1   S    
C9    C22   A    
H11   N2    S    
C4    O3    A    
C8    C19   A    
C18   C22   A    
C18   C19   A    
H10   N1    S    
O4    Zn2   S    
C6    O5    A    
O1    Zn1   S    
C14   C22   S    
O2    Zn2   S    
C14   H8    S    
C1    O2    A    
C20   H12   S    
C20   C21   A    
C19   C20   A    
C15   H7    S    
C4    O4    A    
C7    O8    A    
C12   C17   A    
O6    Zn2   S    
C1    C3    S    
C7    C9    S    
C11   C13   A    
N1    Zn2   S    
N2    Zn1   S    
C3    H2    S    
C21   H17   S    
C2    C10   A    
N1    N2    D    
C12   C18   A    
O8    Zn2   S    
C15   H6    S    
C14   C15   S    
C16   H3    S    
C7    O7    A    
O5    Zn1   S    
C16   H5    S    
C23   H1    S    
C6    O6    A    
C2    C17   A    
C3    C5    D    
C8    H13   S    
C12   C13   A    
C9    C23   A    
C13   H15   S    
C17   C21   A    
C16   H4    S    
C14   H9    S    
Br1   C5    S    
C1    O1    A    
C15   C16   S    
C2    C4    S    
