data_mof_unit_57039.cif
_audit_creation_date              2013-03-05T16:00:57-0500
_audit_creation_method            fapswitch 2.2
_symmetry_space_group_name_H-M    P1
_symmetry_Int_Tables_number       1
_space_group_crystal_system       triclinic
_cell_length_a                    10.620797
_cell_length_b                    14.759394
_cell_length_c                    14.703812
_cell_angle_alpha                 65.043216
_cell_angle_beta                  103.740669
_cell_angle_gamma                 103.194138
_cell_volume                      2008.32933738

loop_
_atom_site_label
_atom_site_type_symbol
_atom_site_description
_atom_site_fract_x
_atom_site_fract_y
_atom_site_fract_z
_atom_type_partial_charge
O1    O     O_R   0.454850 0.022100 0.338110 -0.546288
O2    O     O_R   0.545150 0.977900 0.661890 -0.546215
O3    O     O_R   0.512700 0.160150 0.379180 -0.606437
O4    O     O_R   0.487300 0.839850 0.620820 -0.606473
C1    C     C_R   0.479362 0.119524 0.312212 0.826517
C2    C     C_R   0.520635 0.880476 0.687788 0.826528
O5    O     O_R   0.287930 0.931000 0.479440 -0.545190
O6    O     O_R   0.712070 0.069000 0.520560 -0.545355
O7    O     O_R   0.345780 0.069050 0.520520 -0.595958
O8    O     O_R   0.654220 0.930950 0.479480 -0.595912
C3    C     C_R   0.259448 0.999721 0.500424 0.802375
C4    C     C_R   0.740551 0.000283 0.499569 0.802275
Cu1   Cu    Cu3+1 0.465750 0.918270 0.475680 0.997027
Cu2   Cu    Cu3+1 0.534250 0.081730 0.524320 0.997030
C5    C     C_3   0.010533 0.916139 0.489387 -0.093443
C6    C     C_3   0.989465 0.083870 0.510591 -0.093424
C7    C     C_3   0.929144 0.999116 0.411415 -0.127591
C8    C     C_3   0.070853 0.000892 0.588565 -0.127599
H1    H     H_    0.868161 0.998399 0.338981 0.168853
H2    H     H_    0.131836 0.001610 0.660999 0.168901
H3    H     H_    0.021064 0.846717 0.481686 0.182609
H4    H     H_    0.978945 0.153303 0.518273 0.182796
C9    C     C_3   0.877624 0.000734 0.499465 -0.003521
C10   C     C_3   0.122374 0.999275 0.500517 -0.003488
C11   C     C_3   0.956793 0.917904 0.577392 -0.189714
C12   C     C_3   0.043205 0.082103 0.422588 -0.189710
H5    H     H_    0.918199 0.850755 0.640625 0.146817
H6    H     H_    0.081800 0.149252 0.359355 0.146821
C13   C     C_R   0.475140 0.186982 0.204567 -0.118052
C14   C     C_R   0.524849 0.813018 0.795433 -0.117987
C15   C     C_R   0.483819 0.218041 0.030175 0.324624
C16   C     C_R   0.516157 0.781958 0.969822 0.324562
C17   C     C_R   0.478733 0.151376 0.131167 -0.174431
C18   C     C_R   0.521254 0.848624 0.868832 -0.174384
C19   C     C_R   0.476859 0.289829 0.177162 -0.247681
C20   C     C_R   0.523119 0.710169 0.822837 -0.247722
C21   C     C_R   0.488459 0.360174 0.077942 0.052955
C22   C     C_R   0.511512 0.639824 0.922054 0.052961
C23   C     C_R   0.486188 0.322836 0.002687 0.026360
C24   C     C_R   0.513784 0.677162 0.997308 0.026379
C25   C     C_R   0.500101 0.466274 0.051623 0.099538
C26   C     C_R   0.499864 0.533724 0.948371 0.099541
C27   C     C_R   0.485186 0.492733 0.874437 -0.235546
C28   C     C_R   0.514779 0.507264 0.125556 -0.235552
C29   C     C_R   0.480825 0.390242 0.901280 -0.155930
C30   C     C_R   0.519149 0.609756 0.098715 -0.155945
H7    H     H_    0.469168 0.364284 0.840676 0.198602
H8    H     H_    0.530823 0.635715 0.159321 0.198582
H9    H     H_    0.533189 0.687299 0.764830 0.152951
H10   H     H_    0.466791 0.312699 0.235170 0.152963
H11   H     H_    0.518188 0.927987 0.847208 0.225891
H12   H     H_    0.481808 0.072014 0.152792 0.225911
N1    N     N_R   0.585750 0.204560 0.560800 -0.241441
N2    N     N_R   0.414250 0.795440 0.439200 -0.241366
C31   C     C_R   0.706951 0.281960 0.675764 -0.275462
C32   C     C_R   0.293157 0.718063 0.324186 -0.275521
C33   C     C_R   0.679083 0.202285 0.643619 0.533597
C34   C     C_R   0.321031 0.797757 0.356301 0.533395
C35   C     C_R   0.520799 0.286340 0.507016 -0.061384
C36   C     C_R   0.479111 0.713614 0.493053 -0.061400
C37   C     C_R   0.547705 0.371161 0.535402 -0.016762
C38   C     C_R   0.452228 0.628794 0.464666 -0.016763
C39   C     C_R   0.641622 0.365802 0.622891 0.091476
C40   C     C_R   0.358379 0.634175 0.377137 0.091453
C41   C     C_R   0.484550 0.459844 0.481751 0.099294
C42   C     C_R   0.515363 0.540099 0.518334 0.099273
C43   C     C_R   0.607509 0.528638 0.607548 -0.240316
C44   C     C_R   0.392426 0.471310 0.392526 -0.240269
C45   C     C_R   0.669729 0.443587 0.658065 -0.144531
C46   C     C_R   0.330258 0.556382 0.341976 -0.144584
H13   H     H_    0.740515 0.438428 0.726090 0.159290
H14   H     H_    0.259515 0.561557 0.273926 0.159291
H15   H     H_    0.553068 0.717427 0.556068 0.141646
H16   H     H_    0.446766 0.282491 0.444054 0.141666
H17   H     H_    0.779923 0.277903 0.742472 0.189628
H18   H     H_    0.220278 0.722153 0.257422 0.189735
H19   H     H_    0.633752 0.584223 0.640825 0.128372
H20   H     H_    0.366191 0.415729 0.359246 0.128367
N3    N     N_R   0.251633 0.882024 0.299492 0.137773
O9    O     O_R   0.142851 0.881464 0.325810 -0.377475
O10   O     O_R   0.270008 0.937204 0.206293 -0.323525
N4    N     N_R   0.748710 0.118130 0.700233 0.137884
O11   O     O_R   0.857795 0.119186 0.674042 -0.377748
O12   O     O_R   0.730105 0.062531 0.793293 -0.323652
N5    N     N_R   0.491208 0.178316 0.957875 0.123525
O13   O     O_R   0.421704 0.092465 0.960920 -0.270352
O14   O     O_R   0.583394 0.217688 0.901876 -0.361780
N6    N     N_R   0.508751 0.821683 0.042118 0.123543
O15   O     O_R   0.578219 0.907547 0.039060 -0.270452
O16   O     O_R   0.416580 0.782291 0.098127 -0.361721
H21   H     H_    0.474350 0.537366 0.794006 0.143233
H22   H     H_    0.525612 0.462631 0.205986 0.143239

loop_
_geom_bond_atom_site_label_1
_geom_bond_atom_site_label_2
_geom_bond_distance
_ccdc_geom_bond_type
C32   H18   1.084818 S    
C25   C26   1.421234 A    
C3    C10   1.454663 S    
C43   H19   1.076900 S    
N1    C35   1.368801 A    
N2    C36   1.368855 A    
N5    O13   1.301270 A    
C17   H12   1.082789 S    
C24   C30   1.396420 A    
C4    C9    1.454675 S    
C18   H11   1.082793 S    
C7    C9    1.531250 S    
C15   N5    1.437614 S    
C7    C12   1.546826 S    
C19   C21   1.403687 A    
C10   C12   1.530991 S    
C22   C26   1.428376 A    
C5    C11   1.544992 S    
C16   N6    1.437609 S    
C13   C17   1.396340 A    
C36   H15   1.075522 S    
C36   C38   1.429747 A    
O4    Cu1   1.936729 S    
C45   H13   1.084480 S    
C38   C40   1.413034 A    
C39   C45   1.394950 A    
C15   C23   1.419798 A    
C31   C39   1.393195 A    
O6    Cu2   1.955885 S    
C32   C40   1.393142 A    
C8    C10   1.531238 S    
C40   C46   1.394928 A    
C28   H22   1.076258 S    
C23   C29   1.396427 A    
C31   H17   1.084809 S    
C29   H7    1.081768 S    
C42   C43   1.409127 A    
Cu1   Cu2   2.696091 S    
C6    C12   1.544983 S    
O2    C2    1.301742 A    
C8    C11   1.546828 S    
C28   C30   1.385314 A    
C1    C13   1.468116 S    
N5    O14   1.301445 A    
C44   H20   1.076896 S    
C30   H8    1.081774 S    
C35   C37   1.429716 A    
C38   C42   1.436535 A    
O4    C2    1.300080 A    
N3    O10   1.300761 A    
C14   C18   1.396340 A    
C27   H21   1.076272 S    
C43   C45   1.386680 A    
C16   C18   1.398930 A    
O5    C3    1.289952 A    
O7    Cu2   1.956945 S    
O7    C3    1.293532 A    
O5    Cu1   1.955884 S    
O6    C4    1.289958 A    
C41   C44   1.409114 A    
Cu2   N1    2.025352 S    
C19   H10   1.075010 S    
C15   C17   1.398936 A    
C27   C29   1.385313 A    
C35   H16   1.075520 S    
O3    Cu2   1.936730 S    
O8    C4    1.293531 A    
C34   N3    1.427294 S    
C44   C46   1.386632 A    
C5    C10   1.534632 S    
C2    C14   1.468120 S    
N6    O16   1.301411 A    
C41   C42   1.441050 A    
C6    C9    1.534627 S    
N4    O12   1.300626 A    
C31   C33   1.391963 A    
C25   C28   1.415463 A    
O1    C1    1.301743 A    
O1    Cu1   1.951267 S    
C26   C27   1.415476 A    
Cu1   N2    2.025352 S    
N2    C34   1.369002 A    
C5    C7    1.545684 S    
C6    H4    1.109675 S    
C37   C39   1.413033 A    
O3    C1    1.300078 A    
O8    Cu1   1.956946 S    
N1    C33   1.368916 A    
C11   H5    1.110282 S    
C13   C19   1.393412 A    
C12   H6    1.110281 S    
C14   C20   1.393416 A    
C20   C22   1.403672 A    
C21   C23   1.422855 A    
C22   C24   1.422849 A    
C7    H1    1.110240 S    
C32   C34   1.391934 A    
C8    H2    1.110241 S    
C16   C24   1.419807 A    
C21   C25   1.428369 A    
O2    Cu2   1.951267 S    
N3    O9    1.300003 A    
C37   C41   1.436500 A    
C5    H3    1.109693 S    
C9    C11   1.530998 S    
N6    O15   1.301253 A    
C6    C8    1.545681 S    
N4    O11   1.299807 A    
C33   N4    1.427203 S    
C46   H14   1.084482 S    
C20   H9    1.074999 S    
