data_mof_unit_51550.cif
_audit_creation_date              2012-12-11T14:34:05-0500
_audit_creation_method            fapswitch 2.2
_symmetry_space_group_name_H-M    P1
_symmetry_Int_Tables_number       1
_space_group_crystal_system       triclinic
_cell_length_a                    14.004022
_cell_length_b                    14.019982
_cell_length_c                    27.233458
_cell_angle_alpha                 89.908639
_cell_angle_beta                  90.425938
_cell_angle_gamma                 119.702215
_cell_volume                      4644.25201819

loop_
_atom_site_label
_atom_site_type_symbol
_atom_type_description
_atom_site_fract_x
_atom_site_fract_y
_atom_site_fract_z
_atom_type_partial_charge
C1    C     C_R   0.233390 0.788469 0.568186 0.569885
C2    C     C_1   0.722947 0.864167 0.857125 -0.076634
C3    C     C_1   0.130658 0.852055 0.857591 -0.076200
C4    C     C_1   0.104599 0.217133 0.850631 -0.078236
C5    C     C_1   0.654919 0.823001 0.654152 -0.026572
C6    C     C_1   0.174989 0.825367 0.654843 -0.027058
C7    C     C_1   0.169373 0.343422 0.653540 -0.019955
C8    C     C_1   0.617281 0.803049 0.613075 0.027562
C9    C     C_1   0.197005 0.811194 0.613669 0.025507
C10   C     C_1   0.188516 0.384532 0.613298 0.030135
C11   C     C_R   0.107490 0.223865 0.087214 0.570812
C12   C     C_R   0.212085 0.445313 0.568343 0.561828
C13   C     C_R   0.777380 0.884805 0.087387 0.560280
C14   C     C_R   0.115635 0.894467 0.088501 0.562045
C15   C     C_R   0.067816 0.158260 0.943668 0.566058
C16   C     C_R   0.780865 0.887255 0.950267 0.542756
C17   C     C_R   0.112339 0.893728 0.950263 0.543632
C18   C     C_R   0.635024 0.895133 0.360870 -0.147668
C19   C     C_R   0.143935 0.691718 0.350965 -0.128508
C20   C     C_R   0.267488 0.370033 0.361332 -0.138348
C21   C     C_R   0.655940 0.911600 0.310524 0.008833
C22   C     C_R   0.125556 0.699626 0.301089 0.013772
C23   C     C_R   0.556087 0.766932 0.567955 0.563828
C24   C     C_R   0.259927 0.347634 0.311009 0.012140
C25   C     C_R   0.699752 0.941976 0.209633 0.011900
C26   C     C_R   0.083624 0.733259 0.203496 0.015628
C27   C     C_R   0.247205 0.311643 0.209178 0.014969
C28   C     C_R   0.263214 0.763471 0.425787 0.557735
C29   C     C_R   0.212119 0.446269 0.431193 0.534233
C30   C     C_R   0.550423 0.764019 0.430360 0.533320
C31   C     C_R   0.724015 0.032179 0.239943 -0.135682
C32   C     C_R   0.000170 0.650595 0.231653 -0.129412
C33   C     C_R   0.329553 0.307405 0.237145 -0.134663
C34   C     C_3   0.737223 0.768749 0.782743 -0.213710
C35   C     C_R   0.701912 0.016998 0.290150 -0.142863
C36   C     C_R   0.021097 0.633746 0.280164 -0.129040
C37   C     C_R   0.336583 0.326480 0.287751 -0.140602
C38   C     C_R   0.731347 0.957009 0.160580 -0.136355
C39   C     C_R   0.060288 0.760331 0.157182 -0.138329
C40   C     C_R   0.233736 0.284852 0.159272 -0.137934
C41   C     C_R   0.716171 0.866810 0.132312 -0.005686
C42   C     C_R   0.142742 0.849120 0.131297 -0.008867
C43   C     C_R   0.146886 0.284212 0.133000 -0.006953
C44   C     C_R   0.568845 0.699988 0.349664 -0.124893
C45   C     C_3   0.237169 0.952727 0.784548 -0.212151
C46   C     C_R   0.333454 0.838240 0.343153 -0.132133
C47   C     C_R   0.100787 0.383092 0.356137 -0.129511
C48   C     C_R   0.585492 0.714293 0.299715 0.007383
C49   C     C_R   0.316832 0.846115 0.293090 0.013296
C50   C     C_R   0.095992 0.367675 0.305949 0.011089
C51   C     C_R   0.629657 0.820388 0.279873 0.064706
C52   C     C_R   0.211627 0.778789 0.272260 0.063634
C53   C     C_R   0.176129 0.350589 0.283060 0.064921
C54   C     C_R   0.557807 0.623531 0.269407 -0.129806
C55   C     C_R   0.402064 0.924037 0.264066 -0.126875
C56   C     C_3   0.018777 0.250211 0.776994 -0.211506
C57   C     C_R   0.014786 0.373942 0.278185 -0.130076
C58   C     C_R   0.577250 0.638076 0.219334 -0.128152
C59   C     C_R   0.381760 0.939733 0.215384 -0.130455
C60   C     C_R   0.013018 0.363705 0.227506 -0.129785
C61   C     C_R   0.625637 0.743712 0.199417 0.014976
C62   C     C_R   0.275694 0.878204 0.195402 0.012810
C63   C     C_R   0.090172 0.343370 0.204513 0.014073
C64   C     C_3   0.568019 0.796713 0.734262 0.171198
C65   C     C_3   0.182358 0.749542 0.735402 0.168994
C66   C     C_3   0.231198 0.403405 0.738942 0.164539
C67   C     C_3   0.730088 0.765382 0.725647 -0.199849
C68   C     C_R   0.650027 0.835245 0.229500 0.064854
C69   C     C_R   0.190854 0.795111 0.223355 0.063794
C70   C     C_R   0.171972 0.336277 0.232186 0.064631
C71   C     C_R   0.657582 0.760212 0.150690 -0.135444
C72   C     C_R   0.251229 0.903576 0.149245 -0.133543
C73   C     C_R   0.081648 0.322137 0.154685 -0.131935
C74   C     C_R   0.591549 0.789268 0.380386 0.002907
C75   C     C_R   0.246157 0.764655 0.372622 -0.004080
C76   C     C_R   0.190066 0.391761 0.383524 0.000778
C77   C     C_3   0.758077 0.955954 0.721878 -0.269051
C78   C     C_3   0.241224 0.951463 0.727632 -0.199182
C79   C     C_3   0.042519 0.809400 0.720704 -0.268103
C80   C     C_3   0.169182 0.208346 0.713645 -0.268111
C81   C     C_3   0.778850 0.964583 0.778236 -0.235864
C82   C     C_3   0.033219 0.821426 0.777063 -0.233938
C83   C     C_3   0.145584 0.170799 0.768060 -0.234687
C84   C     C_1   0.743324 0.874609 0.900455 -0.019893
C85   C     C_1   0.123281 0.866061 0.900756 -0.019043
C86   C     C_1   0.089564 0.190944 0.893252 -0.017810
C87   C     C_3   0.678669 0.835102 0.707350 0.056410
C88   C     C_3   0.160269 0.834465 0.708007 0.060300
C89   C     C_3   0.030414 0.270106 0.720758 -0.196361
C90   C     C_3   0.150156 0.306854 0.705142 0.062360
C91   C     C_3   0.585016 0.813032 0.790525 -0.166500
C92   C     C_3   0.163347 0.750012 0.791455 -0.165751
C93   C     C_3   0.220666 0.366319 0.793282 -0.174059
C94   C     C_3   0.706099 0.852746 0.803605 0.026901
C95   C     C_3   0.140532 0.843874 0.804118 0.028953
C96   C     C_3   0.121421 0.249620 0.798605 0.033137
Cl1   Cl    Cl    0.472618 0.655717 0.720376 -0.571706
Cl2   Cl    Cl    0.319640 0.778310 0.724504 -0.586800
Cl3   Cl    Cl    0.205183 0.515769 0.734581 -0.574112
Cr1   Cr    Cr6+3 0.164410 0.584450 0.499910 1.026101
Cr2   Cr    Cr6+3 0.415550 0.579960 0.499910 1.028726
Cr3   Cr    Cr6+3 0.420040 0.835590 0.499910 1.025281
Cr4   Cr    Cr6+3 0.155170 0.075460 0.019960 1.020435
Cr5   Cr    Cr6+3 0.924540 0.079710 0.019960 1.012513
Cr6   Cr    Cr6+3 0.920290 0.844830 0.019960 1.016706
H1    H     H_    0.562258 0.874788 0.802851 0.106672
H2    H     H_    0.776148 0.039499 0.145789 0.123622
H3    H     H_    0.976864 0.717530 0.142876 0.119501
H4    H     H_    0.284930 0.256774 0.141986 0.117307
H5    H     H_    0.650685 0.963524 0.384563 0.115651
H6    H     H_    0.076927 0.631988 0.373146 0.130653
H7    H     H_    0.336081 0.375936 0.382509 0.119862
H8    H     H_    0.762342 0.114576 0.225041 0.108024
H9    H     H_    0.917810 0.601827 0.216783 0.104165
H10   H     H_    0.387914 0.288716 0.219958 0.104681
H11   H     H_    0.722100 0.087663 0.313103 0.107208
H12   H     H_    0.092035 0.669883 0.802373 0.104621
H13   H     H_    0.954491 0.572181 0.301891 0.099051
H14   H     H_    0.401418 0.324075 0.308713 0.103918
H15   H     H_    0.644909 0.691058 0.128156 0.118018
H16   H     H_    0.315368 0.970795 0.128639 0.121625
H17   H     H_    0.016059 0.323691 0.133848 0.122353
H18   H     H_    0.557962 0.567396 0.196524 0.107967
H19   H     H_    0.447761 0.003213 0.194067 0.106937
H20   H     H_    0.949455 0.368396 0.206477 0.101118
H21   H     H_    0.523044 0.541713 0.284598 0.112403
H22   H     H_    0.483130 0.975816 0.279569 0.118975
H23   H     H_    0.297357 0.367075 0.805043 0.096535
H24   H     H_    0.953404 0.387796 0.295627 0.097340
H25   H     H_    0.532636 0.847317 0.720705 0.188776
H26   H     H_    0.125694 0.665995 0.720707 0.177338
H27   H     H_    0.316836 0.432481 0.726802 0.182657
H28   H     H_    0.532339 0.617188 0.364102 0.135576
H29   H     H_    0.413485 0.891569 0.359496 0.127955
H30   H     H_    0.039669 0.398462 0.372898 0.131120
H31   H     H_    0.837495 0.987115 0.702311 0.115670
H32   H     H_    0.022569 0.866724 0.700742 0.114717
H33   H     H_    0.114600 0.138746 0.689095 0.116110
H34   H     H_    0.530659 0.735465 0.810401 0.176020
H35   H     H_    0.722548 0.008479 0.710948 0.113093
H36   H     H_    0.981662 0.724536 0.708856 0.111247
H37   H     H_    0.255550 0.232183 0.704603 0.111617
H38   H     H_    0.761689 0.027880 0.793777 0.116702
H39   H     H_    0.962544 0.744839 0.791457 0.115968
H40   H     H_    0.219112 0.171331 0.783760 0.114128
H41   H     H_    0.866533 0.990092 0.785559 0.121144
H42   H     H_    0.016968 0.890157 0.784201 0.116725
H43   H     H_    0.074937 0.085678 0.769979 0.115987
H44   H     H_    0.681066 0.678868 0.712888 0.168230
H45   H     H_    0.235636 0.759459 0.812805 0.175409
H46   H     H_    0.326734 0.979117 0.715628 0.165302
H47   H     H_    0.006768 0.332517 0.710623 0.166423
H48   H     H_    0.813843 0.798486 0.710117 0.099918
H49   H     H_    0.218440 0.011243 0.712392 0.102683
H50   H     H_    0.972256 0.193182 0.701106 0.099691
H51   H     H_    0.680980 0.685560 0.797660 0.139946
H52   H     H_    0.316268 0.964836 0.799973 0.140022
H53   H     H_    0.008929 0.316082 0.794930 0.146311
H54   H     H_    0.211304 0.424229 0.818038 0.172237
H55   H     H_    0.821657 0.791402 0.794661 0.107036
H56   H     H_    0.228368 0.022847 0.797124 0.106913
H57   H     H_    0.943432 0.172348 0.784821 0.103144
O1    O     O_R   0.137150 0.468200 0.553200 -0.502910
O2    O     O_R   0.140110 0.470540 0.446010 -0.535942
O3    O     O_R   0.529460 0.669570 0.446010 -0.526027
O4    O     O_R   0.330430 0.859890 0.446010 -0.513168
O5    O     O_R   0.176710 0.690910 0.450560 -0.508918
O6    O     O_R   0.309090 0.485800 0.450560 -0.511164
O7    O     O_R   0.514200 0.823290 0.450560 -0.525159
O8    O     O_3   0.333333 0.666667 0.499990 -0.290384
O9    O     O_R   0.176750 0.985260 0.074180 -0.518245
O10   O     O_R   0.014740 0.191490 0.074180 -0.517467
O11   O     O_R   0.808510 0.823250 0.074180 -0.514099
O12   O     O_R   0.531800 0.668950 0.553200 -0.494327
O13   O     O_R   0.146100 0.172630 0.068980 -0.489275
O14   O     O_R   0.827370 0.973470 0.068980 -0.498575
O15   O     O_R   0.026530 0.853900 0.068980 -0.493201
O16   O     O_3   1.000000 0.000000 0.020040 -0.241223
O17   O     O_R   0.148270 0.170520 0.969620 -0.491753
O18   O     O_R   0.829480 0.977750 0.969620 -0.519427
O19   O     O_R   0.022250 0.851730 0.969620 -0.499915
O20   O     O_R   0.331050 0.862850 0.553200 -0.496313
O21   O     O_R   0.179100 0.982980 0.967000 -0.519007
O22   O     O_R   0.017020 0.196120 0.967000 -0.506149
O23   O     O_R   0.803880 0.820900 0.967000 -0.509270
O24   O     O_R   0.173970 0.688730 0.549930 -0.486420
O25   O     O_R   0.311270 0.485240 0.549930 -0.486726
O26   O     O_R   0.514760 0.826030 0.549930 -0.491783

loop_
_geom_bond_atom_site_label_1
_geom_bond_atom_site_label_2
_ccdc_geom_bond_type
C25   C31   A    
C65   C92   S    
C26   C32   A    
C55   C59   A    
C72   H16   S    
C13   O14   A    
C18   C21   A    
C2    C84   T    
C91   H1    S    
C77   H35   S    
Cr6   O16   S    
C6    C9    T    
C13   C41   S    
C82   H42   S    
Cr5   O14   S    
C23   O12   A    
C20   H7    S    
C1    O24   A    
C27   C33   A    
C13   O11   A    
C34   H51   S    
C54   H21   S    
C46   C49   A    
C58   H18   S    
C81   H38   S    
C71   H15   S    
C60   C63   A    
C17   C85   S    
C32   C36   A    
C29   O6    A    
C57   H24   S    
C60   H20   S    
C65   Cl2   S    
C15   O17   A    
C16   O23   A    
C23   O26   A    
C30   C74   S    
C26   C39   A    
C89   H50   S    
C67   H44   S    
C16   O18   A    
C56   H57   S    
C16   C84   S    
C8    C23   S    
C6    C88   S    
C20   C76   A    
C7    C10   T    
Cr6   O23   S    
C38   H2    S    
C93   H54   S    
C45   H56   S    
C46   C75   A    
C56   H53   S    
C52   C69   A    
C28   O5    A    
C83   H40   S    
C43   C73   A    
C89   H47   S    
Cr5   O16   S    
C20   C24   A    
C11   C43   S    
C45   C78   S    
C77   H31   S    
C39   C42   A    
C36   H13   S    
C64   C87   S    
Cr4   O17   S    
C28   O4    A    
C14   C42   S    
C47   H30   S    
C61   C71   A    
Cr3   O7    S    
C11   O10   A    
C18   C74   A    
Cr6   O11   S    
Cr4   O9    S    
C29   O2    A    
Cr2   O12   S    
C25   C68   A    
C80   C83   S    
C53   C70   A    
C42   C72   A    
C79   C88   S    
C65   H26   S    
C78   H46   S    
C47   C50   A    
C66   H27   S    
C40   C43   A    
C4    C96   S    
C39   H3    S    
C48   C51   A    
C50   C53   A    
C33   H10   S    
Cr1   O8    S    
Cr3   O20   S    
C18   H5    S    
C2    C94   S    
C19   C22   A    
C1    C9    S    
C38   C41   A    
C82   H39   S    
C29   C76   S    
C78   H49   S    
C57   C60   A    
C63   C73   A    
C24   C53   A    
C49   C55   A    
C12   O25   A    
C92   C95   S    
C33   C37   A    
C62   C69   A    
C66   Cl3   S    
C48   C54   A    
Cr2   O6    S    
Cr1   O24   S    
C92   H12   S    
C30   O7    A    
C41   C71   A    
C25   C38   A    
C46   H29   S    
C17   O21   A    
C37   H14   S    
C63   C70   A    
C77   C81   S    
C27   C40   A    
C49   C52   A    
C15   O22   A    
Cr4   O13   S    
C24   C37   A    
C45   H52   S    
C35   H11   S    
Cr1   O2    S    
C14   O9    A    
Cr2   O3    S    
C27   C70   A    
C10   C12   S    
C15   C86   S    
C91   H34   S    
C64   Cl1   S    
C79   H32   S    
C55   H22   S    
C81   H41   S    
C93   C96   S    
C80   H37   S    
C66   C93   S    
C92   H45   S    
Cr4   O21   S    
C3    C85   T    
C45   C95   S    
C21   C51   A    
C65   C88   S    
C22   C52   A    
C54   C58   A    
C78   C88   S    
C59   H19   S    
C56   C96   S    
C56   C89   S    
C59   C62   A    
C82   C95   S    
Cr5   O22   S    
C79   C82   S    
C50   C57   A    
C67   C87   S    
Cr5   O18   S    
C34   C94   S    
C30   O3    A    
Cr6   O15   S    
C44   C74   A    
C34   C67   S    
C47   C76   A    
C5    C8    T    
C1    O20   A    
Cr2   O8    S    
C40   H4    S    
C21   C35   A    
C19   H6    S    
C22   C36   A    
C11   O13   A    
Cr5   O10   S    
C67   H48   S    
Cr4   O16   S    
Cr6   O19   S    
C19   C75   A    
C93   H23   S    
C12   O1    A    
C81   C94   S    
C7    C90   S    
C61   C68   A    
C79   H36   S    
Cr3   O8    S    
C58   C61   A    
C80   H33   S    
C83   C96   S    
C44   H28   S    
Cr1   O5    S    
C66   C90   S    
Cr1   O1    S    
C31   C35   A    
C51   C68   A    
C80   C90   S    
Cr3   O26   S    
C14   O15   A    
C83   H43   S    
C5    C87   S    
C17   O19   A    
C62   C72   A    
C4    C86   T    
C77   C87   S    
Cr3   O4    S    
C73   H17   S    
C64   H25   S    
C26   C69   A    
C3    C95   S    
C64   C91   S    
C32   H9    S    
C89   C90   S    
Cr2   O25   S    
C28   C75   S    
C31   H8    S    
C44   C48   A    
C91   C94   S    
C34   H55   S    
