data_mof_unit_38694.cif
_audit_creation_date              2012-12-11T17:10:35-0500
_audit_creation_method            fapswitch 2.2
_symmetry_space_group_name_H-M    P1
_symmetry_Int_Tables_number       1
_space_group_crystal_system       triclinic
_cell_length_a                    14.820048
_cell_length_b                    14.90856
_cell_length_c                    14.88267
_cell_angle_alpha                 109.458772
_cell_angle_beta                  109.807743
_cell_angle_gamma                 109.133767
_cell_volume                      2531.65596381

loop_
_atom_site_label
_atom_site_type_symbol
_atom_type_description
_atom_site_fract_x
_atom_site_fract_y
_atom_site_fract_z
_atom_type_partial_charge
C1    C     C_R   0.186484 0.279760 0.257637 -0.141292
C2    C     C_R   0.404334 0.495392 0.194792 -0.140621
C3    C     C_R   0.562822 0.815199 0.591210 -0.125100
C4    C     C_R   0.525295 0.432541 0.746520 -0.145894
C5    C     C_R   0.723506 0.477061 0.409120 -0.123080
C6    C     C_R   0.546285 0.824889 0.497762 0.071085
C7    C     C_R   0.827408 0.555651 0.502126 0.057391
C8    C     C_R   0.433908 0.432783 0.131389 0.081708
C9    C     C_R   0.803594 0.804913 0.866575 0.075973
C10   C     C_R   0.097737 0.595220 0.182516 -0.127808
C11   C     C_R   0.100015 0.621791 0.282969 -0.148682
C12   C     C_R   0.451247 0.449783 0.776599 0.072648
C13   C     C_R   0.019535 0.546691 0.290160 0.114454
C14   C     C_R   0.935733 0.445641 0.194902 -0.179166
C15   C     C_R   0.933891 0.419487 0.094691 -0.105108
C16   C     C_R   0.504485 0.200920 0.407877 -0.157983
C17   C     C_R   0.014889 0.494113 0.088545 -0.098610
C18   C     C_R   0.929409 0.569755 0.401469 -0.234617
C19   C     C_R   0.931596 0.605506 0.502349 0.054907
C20   C     C_R   0.035337 0.672367 0.600695 0.031093
C21   C     C_R   0.126839 0.669326 0.596442 -0.235145
C22   C     C_R   0.117643 0.608811 0.495547 0.054639
C23   C     C_R   0.564966 0.197006 0.498314 0.083126
C24   C     C_R   0.023180 0.574539 0.397045 0.030603
C25   C     C_R   0.014213 0.826093 0.706772 -0.142376
C26   C     C_R   0.039638 0.908157 0.806536 -0.095909
C27   C     C_R   0.102821 0.916092 0.905845 -0.088293
C28   C     C_R   0.291308 0.598035 0.589368 -0.133889
C29   C     C_R   0.139590 0.840953 0.905646 -0.130139
C30   C     C_R   0.115505 0.759382 0.806156 -0.179296
C31   C     C_R   0.053132 0.751770 0.705775 0.110464
C32   C     C_R   0.450618 0.345730 0.876903 0.163304
C33   C     C_R   0.406314 0.401041 0.832739 0.033712
C34   C     C_R   0.198345 0.570718 0.496719 0.068762
C35   C     C_R   0.332931 0.425800 0.861808 -0.199718
C36   C     C_R   0.329043 0.422450 0.953404 -0.204358
C37   C     C_R   0.397900 0.393452 0.014745 0.032313
C38   C     C_R   0.445960 0.341584 0.966473 0.163434
C39   C     C_3   0.558189 0.352767 0.015835 -0.522946
C40   C     C_R   0.595241 0.290056 0.590675 -0.143024
C41   C     C_3   0.563830 0.357985 0.918479 -0.518415
C42   C     C_R   0.546050 0.925436 0.394138 0.170233
C43   C     C_R   0.590302 0.925577 0.493693 0.030912
C44   C     C_R   0.663199 0.027437 0.591556 -0.197645
C45   C     C_R   0.473226 0.721078 0.406784 -0.145844
C46   C     C_R   0.668320 0.122863 0.591984 -0.206627
C47   C     C_R   0.600016 0.115837 0.494424 0.031116
C48   C     C_R   0.551125 0.019573 0.394567 0.164243
C49   C     C_3   0.438357 0.957517 0.294769 -0.530011
C50   C     C_3   0.432378 0.854668 0.294487 -0.530541
C51   C     C_R   0.968308 0.076735 0.122360 0.141844
C52   C     C_R   0.199798 0.504578 0.407131 -0.157498
C53   C     C_R   0.067277 0.076215 0.171123 0.051885
C54   C     C_R   0.062259 0.973924 0.142680 -0.221549
C55   C     C_R   0.969007 0.879336 0.047813 -0.188752
C56   C     C_R   0.815383 0.566310 0.593205 -0.133168
C57   C     C_R   0.881644 0.887839 0.982066 0.032618
C58   C     C_R   0.878455 0.984744 0.027143 0.083853
C59   C     C_3   0.844093 0.050016 0.979106 -0.157310
C60   C     C_3   0.941795 0.151272 0.084279 -0.583299
C61   C     C_R   0.435481 0.527241 0.751006 -0.126081
C62   C     C_R   0.275999 0.185242 0.250917 -0.135951
C63   C     C_R   0.173219 0.176255 0.227977 0.066701
C64   C     C_1   0.857378 0.039718 0.882977 0.085322
C65   C     C_R   0.494657 0.402846 0.195805 -0.161566
C66   C     C_R   0.707718 0.799637 0.803027 -0.132690
C67   C     C_R   0.802414 0.711277 0.804325 -0.121526
H1    H     H_    0.125869 0.304107 0.257640 0.115913
H2    H     H_    0.160300 0.652930 0.177541 0.106831
H3    H     H_    0.164875 0.700253 0.355272 0.115118
H4    H     H_    0.552447 0.374398 0.749251 0.111121
H5    H     H_    0.873083 0.386553 0.198665 0.110045
H6    H     H_    0.869859 0.341176 0.021864 0.113021
H7    H     H_    0.853953 0.534244 0.325271 0.122857
H8    H     H_    0.204357 0.712612 0.672684 0.120372
H9    H     H_    0.966980 0.822464 0.630653 0.117862
H10   H     H_    0.012153 0.966913 0.807012 0.127717
H11   H     H_    0.123886 0.981000 0.982911 0.122655
H12   H     H_    0.877770 0.616065 0.678980 0.117677
H13   H     H_    0.188079 0.846900 0.982719 0.109135
H14   H     H_    0.145883 0.702652 0.807413 0.108831
H15   H     H_    0.289978 0.461045 0.824087 0.126489
H16   H     H_    0.484992 0.153719 0.324298 0.101191
H17   H     H_    0.283307 0.455345 0.982926 0.124248
H18   H     H_    0.620397 0.430850 0.094859 0.201328
H19   H     H_    0.554787 0.277559 0.016966 0.188346
H20   H     H_    0.629262 0.439310 0.943070 0.203088
H21   H     H_    0.564383 0.286100 0.864065 0.190295
H22   H     H_    0.704422 0.032511 0.669751 0.139475
H23   H     H_    0.513769 0.338494 0.167841 0.102008
H24   H     H_    0.714136 0.197737 0.670512 0.125629
H25   H     H_    0.376869 0.975362 0.311921 0.199691
H26   H     H_    0.440925 0.961432 0.222306 0.188384
H27   H     H_    0.367616 0.814853 0.311866 0.196881
H28   H     H_    0.324962 0.659046 0.673544 0.083613
H29   H     H_    0.430885 0.799208 0.221543 0.191112
H30   H     H_    0.134485 0.968544 0.183714 0.127916
H31   H     H_    0.971914 0.803966 0.020025 0.129457
H32   H     H_    0.763032 0.041275 0.967902 0.118206
H33   H     H_    0.005554 0.200995 0.071310 0.203986
H34   H     H_    0.671802 0.847444 0.831077 0.087140
H35   H     H_    0.916742 0.199463 0.135489 0.185261
H36   H     H_    0.656406 0.321710 0.674758 0.085103
H37   H     H_    0.148252 0.475596 0.321525 0.121910
H38   H     H_    0.382153 0.559416 0.762042 0.093250
H39   H     H_    0.296536 0.120664 0.238888 0.092434
H40   H     H_    0.445564 0.696836 0.321418 0.110943
H41   H     H_    0.856262 0.680883 0.833897 0.090676
H42   H     H_    0.343072 0.518491 0.165735 0.086828
H43   H     H_    0.615143 0.879480 0.676418 0.097927
H44   H     H_    0.701230 0.446478 0.323747 0.092850
H45   H     H_    0.013420 0.473615 0.010934 0.098976
N1    N     N_R   0.291070 0.347930 0.293870 -0.039899
N2    N     N_R   0.497240 0.291100 0.443210 -0.036468
N3    N     N_R   0.347890 0.554050 0.556810 -0.038171
N4    N     N_R   0.554050 0.347900 0.556830 -0.037907
N5    N     N_R   0.291070 0.497250 0.443190 -0.039878
N6    N     N_R   0.497240 0.554030 0.706140 -0.041107
N7    N     N_R   0.347890 0.291110 0.293870 -0.038007
N8    N     N_R   0.445950 0.652100 0.443170 -0.039063
N9    N     N_1   0.868256 0.032045 0.807870 -0.115633
N10   N     N_R   0.708930 0.502750 0.556810 -0.042293
N11   N     N_R   0.502760 0.445970 0.293860 -0.037659
N12   N     N_R   0.652110 0.708890 0.706130 -0.040603
N13   N     N_R   0.708930 0.652070 0.706130 -0.041836
N14   N     N_R   0.445950 0.502780 0.293850 -0.037644
N15   N     N_R   0.502760 0.708900 0.556790 -0.040826
N16   N     N_R   0.652110 0.445950 0.443190 -0.040411
N17   N     N_R   0.554050 0.497220 0.706150 -0.041084
Ni1   Ni    Ni4+2 0.369690 0.500010 0.369700 0.213593
Ni2   Ni    Ni4+2 0.630310 0.499990 0.630300 0.208510
Ni3   Ni    Ni4+2 0.500000 0.369720 0.369720 0.207841
Ni4   Ni    Ni4+2 0.500000 0.630280 0.630280 0.207935

loop_
_geom_bond_atom_site_label_1
_geom_bond_atom_site_label_2
_ccdc_geom_bond_type
C25   C31   A    
C2    H42   S    
C6    C45   A    
N11   Ni3   S    
C27   C29   A    
C59   H32   S    
C35   C36   A    
C3    C6    A    
C11   H3    S    
C39   C41   S    
C40   N4    A    
C53   C54   A    
C29   H13   S    
C26   C27   A    
C29   C30   A    
C56   H12   S    
N12   Ni4   S    
C28   H28   S    
C18   C24   A    
C36   C37   A    
C37   C38   A    
C67   N13   A    
C30   C31   A    
C3    N15   A    
C67   H41   S    
N14   Ni1   S    
C10   C17   A    
C23   C40   A    
N16   Ni3   S    
C1    H1    S    
C5    N16   A    
C18   C19   A    
C46   C47   A    
C9    C66   A    
C53   C63   S    
N1    N7    A    
C60   H35   S    
C19   C20   A    
N3    N5    A    
C32   C41   S    
C54   H30   S    
C32   C38   A    
C4    C12   A    
C61   H38   S    
C9    C57   S    
C52   N5    A    
C27   H11   S    
C28   C34   A    
C59   C60   S    
C18   H7    S    
C13   C14   A    
C66   H34   S    
C1    N1    A    
C7    C56   A    
C22   C34   S    
C1    C63   A    
C35   H15   S    
C44   C46   A    
C64   N9    T    
C65   H23   S    
C41   H20   S    
N8    N15   A    
C26   H10   S    
C23   C47   S    
N1    Ni1   S    
C5    C7    A    
C50   H27   S    
N11   N14   A    
C46   H24   S    
C5    H44   S    
C25   C26   A    
C16   H16   S    
C13   C24   S    
C51   C53   A    
C56   N10   A    
C43   C44   A    
C9    C67   A    
C62   C63   A    
C28   N3    A    
N13   Ni2   S    
C47   C48   A    
N7    Ni3   S    
C59   C64   S    
C51   C58   A    
C42   C48   A    
N5    Ni1   S    
C62   N7    A    
N6    Ni4   S    
C42   C50   S    
C2    N14   A    
C45   N8    A    
C48   C49   S    
C15   H6    S    
C16   C23   A    
C7    C19   S    
C6    C43   S    
C55   C57   A    
C66   N12   A    
N8    Ni1   S    
C8    C37   S    
C39   H18   S    
C49   H25   S    
C17   H45   S    
N10   Ni2   S    
C15   C17   A    
C41   H21   S    
C54   C55   A    
C52   H37   S    
C61   N6    A    
N2    Ni3   S    
C2    C8    A    
N15   Ni4   S    
C60   H33   S    
C16   N2    A    
N2    N4    A    
C4    N17   A    
C62   H39   S    
N3    Ni4   S    
C21   H8    S    
C34   C52   A    
C25   H9    S    
C14   H5    S    
C32   C33   A    
C30   H14   S    
C58   C59   S    
N6    N17   A    
C40   H36   S    
C12   C61   A    
C11   C13   A    
C50   H29   S    
C57   C58   A    
C38   C39   S    
N4    Ni2   S    
C36   H17   S    
C55   H31   S    
C33   C35   A    
C22   C24   A    
C65   N11   A    
N10   N16   A    
C10   C11   A    
C10   H2    S    
C8    C65   A    
C20   C21   A    
C49   C50   S    
C42   C43   A    
C14   C15   A    
C51   C60   S    
C3    H43   S    
C39   H19   S    
C49   H26   S    
C12   C33   S    
C21   C22   A    
C4    H4    S    
C44   H22   S    
C45   H40   S    
N12   N13   A    
N17   Ni2   S    
C20   C31   S    
