data_mof_unit_11430.cif
_audit_creation_date              2012-12-10T17:11:02-0500
_audit_creation_method            fapswitch 2.2
_symmetry_space_group_name_H-M    P1
_symmetry_Int_Tables_number       1
_space_group_crystal_system       triclinic
_cell_length_a                    11.696253
_cell_length_b                    12.985777
_cell_length_c                    13.436516
_cell_angle_alpha                 92.285062
_cell_angle_beta                  76.600346
_cell_angle_gamma                 100.305161
_cell_volume                      1953.2212264

loop_
_atom_site_label
_atom_site_type_symbol
_atom_type_description
_atom_site_fract_x
_atom_site_fract_y
_atom_site_fract_z
_atom_type_partial_charge
C1    C     C_R   0.523488 0.700830 0.495561 0.872201
C2    C     C_R   0.448160 0.483978 0.975117 0.086836
C3    C     C_R   0.472739 0.459700 0.869602 0.080402
C4    C     C_R   0.534899 0.475727 0.031952 0.046884
C5    C     C_R   0.640632 0.435650 0.984954 0.130620
C6    C     C_R   0.658129 0.403402 0.881610 -0.033064
C7    C     C_R   0.571308 0.410601 0.827950 -0.308990
C8    C     C_R   0.519371 0.506947 0.134754 -0.228363
C9    C     C_R   0.701336 0.451002 0.147501 -0.193394
C10   C     C_R   0.397366 0.484771 0.808279 -0.097095
C11   C     C_R   0.467086 0.185696 0.497983 -0.072440
C12   C     C_R   0.435944 0.490653 0.695868 0.782785
C13   C     C_R   0.541190 0.814548 0.482896 -0.080044
C14   C     C_R   0.666363 0.985472 0.436123 -0.071166
C15   C     C_R   0.654788 0.875482 0.441332 -0.069595
C16   C     C_R   0.440369 0.861942 0.511233 -0.273943
C17   C     C_R   0.449889 0.969239 0.503274 0.140230
C18   C     C_R   0.563292 0.032387 0.468872 0.138587
C19   C     C_R   0.570251 0.141113 0.469826 -0.204585
C20   C     C_R   0.355019 0.122026 0.526860 -0.192902
C21   C     C_R   0.346601 0.014207 0.530930 -0.166493
C22   C     C_R   0.950009 0.604188 0.591517 -0.128940
C23   C     C_R   0.478718 0.299155 0.498884 0.796532
C24   C     C_R   0.828998 0.591461 0.584419 0.125544
C25   C     C_R   0.857019 0.457467 0.460066 0.013625
C26   C     C_R   0.977868 0.465854 0.465814 0.039123
C27   C     C_R   0.024844 0.539099 0.532815 0.028589
C28   C     C_R   0.144868 0.543026 0.540295 0.081883
C29   C     C_R   0.171831 0.411590 0.414523 0.083340
C30   C     C_R   0.052811 0.402233 0.406216 -0.308576
C31   C     C_R   0.563444 0.502557 0.304190 0.833918
C32   C     C_R   0.722458 0.423888 0.044524 -0.138958
C33   C     C_R   0.598592 0.490848 0.193176 -0.034393
C34   C     C_R   0.288748 0.515720 0.855245 -0.164805
C35   C     C_R   0.257506 0.527386 0.960507 -0.127372
C36   C     C_R   0.336490 0.513807 0.019919 -0.174359
Cu1   Cu    Cu3+1 0.386470 0.492430 0.492410 0.954817
Cu2   Cu    Cu3+1 0.613530 0.507570 0.507590 0.976332
H1    H     H_    0.762750 0.436406 0.192374 0.160525
H2    H     H_    0.274535 0.155718 0.549127 0.164762
H3    H     H_    0.259426 0.965974 0.556203 0.178244
H4    H     H_    0.821074 0.401580 0.408344 0.135925
H5    H     H_    0.800516 0.389053 0.014449 0.195312
H6    H     H_    0.445104 0.543276 0.172486 0.150703
H7    H     H_    0.305651 0.524986 0.100879 0.133047
H8    H     H_    0.172902 0.550408 0.996137 0.156420
H9    H     H_    0.582412 0.376811 0.752222 0.168829
N1    N     N_R   0.215880 0.481050 0.481000 -0.197026
N2    N     N_R   0.784100 0.518950 0.519000 -0.209374
O1    O     O_R   0.419710 0.645650 0.494620 -0.595986
O2    O     O_R   0.611450 0.658430 0.507430 -0.532180
O3    O     O_R   0.357340 0.490460 0.641450 -0.582583
O4    O     O_R   0.549080 0.503250 0.654260 -0.616265
O5    O     O_R   0.388550 0.341570 0.492570 -0.586504
O6    O     O_R   0.580290 0.354350 0.505380 -0.604190
O7    O     O_R   0.450920 0.496750 0.345740 -0.597584
O8    O     O_R   0.642660 0.509540 0.358550 -0.556915
C37   C     C_2   0.785209 0.048957 0.391112 0.309944
H10   H     H_    0.863685 0.036478 0.415710 0.068779
O9    O     O_2   0.797022 0.112343 0.323158 -0.541646
C38   C     C_2   0.759702 0.825446 0.394888 0.455769
H11   H     H_    0.846390 0.855820 0.410419 0.070160
O10   O     O_2   0.750946 0.752431 0.335401 -0.532445
H12   H     H_    0.353326 0.814910 0.541009 0.194011
H13   H     H_    0.182893 0.594214 0.593920 0.162769
H14   H     H_    0.228972 0.362523 0.368017 0.133346
C39   C     C_2   0.995222 0.685946 0.660723 0.375128
H15   H     H_    0.941233 0.696403 0.736602 0.090478
O11   O     O_2   0.089438 0.745878 0.631620 -0.570840
H16   H     H_    0.019731 0.345614 0.353596 0.160772
C40   C     C_2   0.753013 0.660525 0.646949 0.403516
H17   H     H_    0.687989 0.631131 0.715457 0.080700
O12   O     O_2   0.769078 0.753422 0.626102 -0.567240
C41   C     C_2   0.765983 0.363653 0.823846 0.325716
H18   H     H_    0.757517 0.304094 0.765689 0.084256
O13   O     O_2   0.865591 0.401830 0.834612 -0.564322
H19   H     H_    0.228881 0.533555 0.810299 0.167150
H20   H     H_    0.655751 0.192399 0.449508 0.186069

loop_
_geom_bond_atom_site_label_1
_geom_bond_atom_site_label_2
_ccdc_geom_bond_type
C14   C18   A    
C35   C36   A    
C4    C8    A    
Cu2   N2    S    
C11   C19   A    
C26   C27   A    
Cu1   Cu2   S    
C41   O13   D    
C34   C35   A    
C3    C7    A    
C34   H19   S    
C5    C6    A    
C20   H2    S    
C37   O9    D    
C9    H1    S    
C18   C19   A    
C38   O10   D    
C9    C32   A    
C12   O3    A    
Cu1   O7    S    
Cu2   O6    S    
C16   C17   A    
C31   C33   S    
C31   O7    A    
C1    O1    A    
C12   O4    A    
C5    C32   A    
C9    C33   A    
C30   H16   S    
C6    C41   S    
C14   C37   S    
C11   C20   A    
C41   H18   S    
C29   N1    A    
C39   H15   S    
C40   O12   D    
Cu1   O3    S    
Cu2   O2    S    
C25   C26   A    
C17   C21   A    
C39   O11   D    
C7    H9    S    
C19   H20   S    
C2    C4    A    
C29   C30   A    
Cu2   O8    S    
C17   C18   A    
C15   C38   S    
C36   H7    S    
C10   C34   A    
Cu1   N1    S    
C1    O2    A    
C10   C12   S    
C21   H3    S    
Cu1   O5    S    
C26   C30   A    
C22   C27   A    
C13   C15   A    
C22   C24   A    
C1    C13   S    
C23   O5    A    
C2    C36   A    
C24   N2    A    
C28   N1    A    
C8    H6    S    
C4    C5    A    
C25   H4    S    
C23   O6    A    
C6    C7    A    
C31   O8    A    
C2    C3    A    
C37   H10   S    
C40   H17   S    
C3    C10   A    
Cu1   O1    S    
Cu2   O4    S    
C11   C23   S    
C32   H5    S    
C28   H13   S    
C8    C33   A    
C38   H11   S    
C25   N2    A    
C22   C39   S    
C29   H14   S    
C20   C21   A    
C13   C16   A    
C27   C28   A    
C14   C15   A    
C16   H12   S    
C35   H8    S    
C24   C40   S    
