data_mof_unit_51881.cif
_audit_creation_date              2012-12-11T14:44:18-0500
_audit_creation_method            fapswitch 2.2
_symmetry_space_group_name_H-M    P1
_symmetry_Int_Tables_number       1
_space_group_crystal_system       triclinic
_cell_length_a                    18.977272
_cell_length_b                    10.871944
_cell_length_c                    18.82175
_cell_angle_alpha                 89.870399
_cell_angle_beta                  90.247406
_cell_angle_gamma                 90.046868
_cell_volume                      3883.25301369

loop_
_atom_site_label
_atom_site_type_symbol
_atom_type_description
_atom_site_fract_x
_atom_site_fract_y
_atom_site_fract_z
_atom_type_partial_charge
Br1   Br    Br    0.461796 0.900931 0.080209 -0.398061
Br2   Br    Br    0.536820 0.900248 0.920881 -0.400019
Br3   Br    Br    0.961796 0.400931 0.080209 -0.398061
Br4   Br    Br    0.036820 0.400248 0.920881 -0.400019
Br5   Br    Br    0.634886 0.741824 0.093969 -0.458813
Br6   Br    Br    0.364244 0.740587 0.906129 -0.459653
Br7   Br    Br    0.134886 0.241824 0.093969 -0.458813
Br8   Br    Br    0.864244 0.240587 0.906129 -0.459653
C1    C     C_R   0.711220 0.329173 0.138665 0.566799
C2    C     C_R   0.993437 0.001660 0.035704 -0.126365
C3    C     C_R   0.997098 0.776929 0.037438 -0.019334
C4    C     C_R   0.493137 0.052767 0.036487 0.188053
C5    C     C_R   0.506123 0.052574 0.963991 0.188004
C6    C     C_R   0.993137 0.552767 0.036487 0.188053
C7    C     C_R   0.006123 0.552574 0.963991 0.188004
C8    C     C_R   0.506966 0.501550 0.963222 -0.126216
C9    C     C_R   0.493437 0.501660 0.035704 -0.126365
C10   C     C_R   0.711444 0.821901 0.046360 0.171887
C11   C     C_R   0.288070 0.821175 0.953739 0.171789
C12   C     C_R   0.211444 0.321901 0.046360 0.171887
C13   C     C_R   0.788070 0.321175 0.953739 0.171789
C14   C     C_R   0.722104 0.793859 0.974623 -0.080698
C15   C     C_R   0.277350 0.793048 0.025515 -0.080375
C16   C     C_R   0.222104 0.293859 0.974623 -0.080698
C17   C     C_R   0.288647 0.329269 0.861457 0.566740
C18   C     C_R   0.777350 0.293048 0.025515 -0.080375
C19   C     C_R   0.778047 0.848310 0.937395 -0.007059
C20   C     C_R   0.221694 0.848070 0.062705 -0.007193
C21   C     C_R   0.278047 0.348310 0.937395 -0.007059
C22   C     C_R   0.721694 0.348070 0.062705 -0.007193
C23   C     C_R   0.826350 0.921599 0.973583 -0.121906
C24   C     C_R   0.173679 0.921967 0.026497 -0.122612
C25   C     C_R   0.326350 0.421599 0.973583 -0.121906
C26   C     C_R   0.673679 0.421967 0.026497 -0.122612
C27   C     C_R   0.816376 0.949739 0.043682 -0.164046
C28   C     C_R   0.211220 0.829173 0.138665 0.566799
C29   C     C_R   0.183687 0.950098 0.956372 -0.164074
C30   C     C_R   0.316376 0.449739 0.043682 -0.164046
C31   C     C_R   0.683687 0.450098 0.956372 -0.164074
C32   C     C_R   0.757277 0.906130 0.080329 0.030661
C33   C     C_R   0.242565 0.905957 0.919730 0.030905
C34   C     C_R   0.257277 0.406130 0.080329 0.030661
C35   C     C_R   0.742565 0.405957 0.919730 0.030905
C36   C     C_R   0.534011 0.059123 0.472553 -0.124357
C37   C     C_R   0.525663 0.063252 0.544995 -0.131979
C38   C     C_R   0.033997 0.559123 0.472549 -0.124363
C39   C     C_R   0.788647 0.829269 0.861457 0.566740
C40   C     C_R   0.025651 0.563251 0.544991 -0.131983
C41   C     C_R   0.498491 0.169011 0.576499 0.030692
C42   C     C_R   0.517883 0.162234 0.430370 0.035435
C43   C     C_R   0.998486 0.669010 0.576496 0.030694
C44   C     C_R   0.017876 0.662234 0.430367 0.035434
C45   C     C_R   0.529778 0.155446 0.147018 0.549610
C46   C     C_R   0.470181 0.155346 0.853005 0.547542
C47   C     C_R   0.029778 0.655446 0.147018 0.549609
C48   C     C_R   0.970181 0.655346 0.853005 0.547543
C49   C     C_R   0.485848 0.275070 0.535343 -0.130285
C50   C     C_R   0.511789 0.390469 0.926645 -0.099563
C51   C     C_R   0.496102 0.271870 0.462218 -0.135498
C52   C     C_R   0.985842 0.775071 0.535340 -0.130283
C53   C     C_R   0.996096 0.771872 0.462216 -0.135495
C54   C     C_R   0.797135 0.009594 0.470549 -0.132019
C55   C     C_R   0.202161 0.007956 0.529543 -0.128099
C56   C     C_R   0.297133 0.509598 0.470550 -0.132017
C57   C     C_R   0.702163 0.507960 0.529543 -0.128097
C58   C     C_R   0.797263 0.001460 0.543210 -0.137106
C59   C     C_R   0.201932 0.999888 0.456893 -0.131647
C60   C     C_R   0.297261 0.501463 0.543211 -0.137106
C61   C     C_R   0.488570 0.390688 0.072687 -0.100298
C62   C     C_R   0.701934 0.499891 0.456892 -0.131647
C63   C     C_R   0.751205 0.920279 0.577093 0.032867
C64   C     C_R   0.248557 0.920004 0.422981 0.032002
C65   C     C_R   0.251204 0.420278 0.577093 0.032866
C66   C     C_R   0.748558 0.420005 0.422981 0.032001
C67   C     C_R   0.699913 0.856502 0.537687 -0.140382
C68   C     C_R   0.300490 0.857703 0.462361 -0.132623
C69   C     C_R   0.199914 0.356498 0.537686 -0.140379
C70   C     C_R   0.800490 0.357701 0.462361 -0.132622
C71   C     C_R   0.698167 0.868052 0.464184 -0.144739
C72   C     C_R   0.011789 0.890469 0.926645 -0.099563
C73   C     C_R   0.302528 0.869680 0.535840 -0.134016
C74   C     C_R   0.198169 0.368048 0.464183 -0.144734
C75   C     C_R   0.802527 0.369678 0.535840 -0.134016
C76   C     C_R   0.747848 0.942951 0.430284 0.037376
C77   C     C_R   0.252182 0.942906 0.569791 0.035761
C78   C     C_R   0.247848 0.442951 0.430284 0.037376
C79   C     C_R   0.752182 0.442908 0.569791 0.035761
C80   C     C_R   0.742201 0.966047 0.148327 0.554852
C81   C     C_R   0.257763 0.965945 0.851667 0.554777
C82   C     C_R   0.242201 0.466047 0.148327 0.554852
C83   C     C_R   0.988570 0.890688 0.072687 -0.100298
C84   C     C_R   0.757763 0.465945 0.851667 0.554778
C85   C     C_R   0.730253 0.379711 0.352009 0.561489
C86   C     C_R   0.269693 0.379923 0.648042 0.560866
C87   C     C_R   0.230252 0.879711 0.352009 0.561490
C88   C     C_R   0.769693 0.879923 0.648042 0.560866
C89   C     C_R   0.535398 0.156479 0.355545 0.547582
C90   C     C_R   0.468408 0.157893 0.646854 0.546838
C91   C     C_R   0.035396 0.656479 0.355544 0.547582
C92   C     C_R   0.968407 0.657893 0.646853 0.546839
C93   C     C_R   0.740765 0.974324 0.355833 0.546044
C94   C     C_R   0.006966 0.001550 0.963222 -0.126216
C95   C     C_R   0.259259 0.974521 0.644169 0.547488
C96   C     C_R   0.240765 0.474324 0.355833 0.546044
C97   C     C_R   0.759259 0.474521 0.644168 0.547488
C98   C     C_R   0.501674 0.163202 0.925091 -0.032898
C99   C     C_R   0.498124 0.163456 0.074995 -0.033267
C100  C     C_R   0.001674 0.663202 0.925091 -0.032898
C101  C     C_R   0.998124 0.663456 0.074995 -0.033267
C102  C     C_R   0.503030 0.276804 0.962272 -0.018947
C103  C     C_R   0.497098 0.276929 0.037438 -0.019334
C104  C     C_R   0.003030 0.776804 0.962272 -0.018947
Cr1   Cr    Cr6+3 0.772000 0.169640 0.250110 1.037344
Cr2   Cr    Cr6+3 0.383330 0.010620 0.749160 1.092142
Cr3   Cr    Cr6+3 0.116670 0.510620 0.250840 1.090243
Cr4   Cr    Cr6+3 0.883330 0.510620 0.749160 1.092141
Cr5   Cr    Cr6+3 0.228000 0.169640 0.749890 1.035549
Cr6   Cr    Cr6+3 0.272000 0.669640 0.250110 1.037345
Cr7   Cr    Cr6+3 0.728000 0.669640 0.749890 1.035549
Cr8   Cr    Cr6+3 0.614960 0.323350 0.249260 1.030560
Cr9   Cr    Cr6+3 0.385040 0.323350 0.750740 1.028024
Cr10  Cr    Cr6+3 0.114960 0.823350 0.249260 1.030559
Cr11  Cr    Cr6+3 0.885040 0.823350 0.750740 1.028024
Cr12  Cr    Cr6+3 0.616670 0.010620 0.250840 1.090243
H1    H     H_    0.835065 0.070918 0.446285 0.129327
H2    H     H_    0.337244 0.795997 0.436886 0.124247
H3    H     H_    0.163581 0.293731 0.563159 0.120807
H4    H     H_    0.837243 0.295992 0.436887 0.124247
H5    H     H_    0.658412 0.818892 0.434059 0.116197
H6    H     H_    0.342996 0.822061 0.565897 0.123869
H7    H     H_    0.158415 0.318885 0.434058 0.116198
H8    H     H_    0.842995 0.322058 0.565898 0.123868
H9    H     H_    0.524633 0.394716 0.870794 0.144869
H10   H     H_    0.475791 0.395086 0.128538 0.145203
H11   H     H_    0.024633 0.894716 0.870794 0.144869
H12   H     H_    0.163768 0.068118 0.553796 0.130589
H13   H     H_    0.975791 0.895086 0.128538 0.145203
H14   H     H_    0.013093 0.087785 0.935068 0.196156
H15   H     H_    0.987381 0.087977 0.063546 0.197045
H16   H     H_    0.513093 0.587785 0.935068 0.196156
H17   H     H_    0.487381 0.587977 0.063546 0.197045
H18   H     H_    0.685989 0.732224 0.947818 0.169229
H19   H     H_    0.313226 0.730973 0.052388 0.169498
H20   H     H_    0.185988 0.232224 0.947818 0.169229
H21   H     H_    0.813226 0.230973 0.052388 0.169498
H22   H     H_    0.870474 0.962865 0.946714 0.195662
H23   H     H_    0.335062 0.570925 0.446287 0.129329
H24   H     H_    0.129822 0.963804 0.053352 0.195478
H25   H     H_    0.370474 0.462865 0.946714 0.195662
H26   H     H_    0.629822 0.463804 0.053352 0.195478
H27   H     H_    0.853266 0.013314 0.067579 0.155735
H28   H     H_    0.147050 0.014185 0.932473 0.155674
H29   H     H_    0.353266 0.513313 0.067579 0.155735
H30   H     H_    0.647050 0.514185 0.932473 0.155674
H31   H     H_    0.553842 0.974644 0.449803 0.136231
H32   H     H_    0.536509 0.980975 0.575782 0.131725
H33   H     H_    0.053823 0.474644 0.449798 0.136238
H34   H     H_    0.663771 0.568125 0.553795 0.130590
H35   H     H_    0.036494 0.480972 0.575777 0.131729
H36   H     H_    0.464410 0.357792 0.558862 0.134342
H37   H     H_    0.485774 0.353382 0.430628 0.123415
H38   H     H_    0.964406 0.857794 0.558860 0.134340
H39   H     H_    0.985770 0.853385 0.430626 0.123413
H40   H     H_    0.836870 0.052784 0.572381 0.129152
H41   H     H_    0.161841 0.050267 0.427782 0.132301
H42   H     H_    0.336866 0.552790 0.572382 0.129153
H43   H     H_    0.661844 0.550273 0.427781 0.132302
H44   H     H_    0.663578 0.793738 0.563160 0.120805
O1    O     O_R   0.787540 0.042690 0.170470 -0.547052
O2    O     O_R   0.454130 0.051100 0.669160 -0.516553
O3    O     O_R   0.045870 0.551100 0.330840 -0.520654
O4    O     O_R   0.954130 0.551100 0.669160 -0.516555
O5    O     O_R   0.681340 0.959300 0.325510 -0.504071
O6    O     O_R   0.318660 0.959300 0.674490 -0.499138
O7    O     O_R   0.181340 0.459300 0.325510 -0.504069
O8    O     O_R   0.818660 0.459300 0.674490 -0.499138
O9    O     O_3   0.667880 0.167870 0.250070 -0.286236
O10   O     O_3   0.332120 0.167870 0.749930 -0.283776
O11   O     O_3   0.167880 0.667870 0.250070 -0.286235
O12   O     O_R   0.212460 0.042690 0.829530 -0.547408
O13   O     O_3   0.832120 0.667870 0.749930 -0.283776
O14   O     O_R   0.765660 0.292160 0.175050 -0.479783
O15   O     O_R   0.234340 0.292160 0.824950 -0.481056
O16   O     O_R   0.265660 0.792160 0.175050 -0.479783
O17   O     O_R   0.734340 0.792160 0.824950 -0.481056
O18   O     O_R   0.670190 0.408980 0.168550 -0.488303
O19   O     O_R   0.329810 0.408980 0.831450 -0.487928
O20   O     O_R   0.170190 0.908980 0.168550 -0.488303
O21   O     O_R   0.829810 0.908980 0.831450 -0.487928
O22   O     O_R   0.556580 0.251450 0.175160 -0.537538
O23   O     O_R   0.287540 0.542690 0.170470 -0.547052
O24   O     O_R   0.443420 0.251450 0.824840 -0.538054
O25   O     O_R   0.056580 0.751450 0.175160 -0.537538
O26   O     O_R   0.943420 0.751450 0.824840 -0.538054
O27   O     O_R   0.545920 0.049510 0.170320 -0.436016
O28   O     O_R   0.454080 0.049510 0.829680 -0.437928
O29   O     O_R   0.045920 0.549510 0.170320 -0.436017
O30   O     O_R   0.954080 0.549510 0.829680 -0.437928
O31   O     O_R   0.681390 0.957840 0.176710 -0.443967
O32   O     O_R   0.318610 0.957840 0.823290 -0.444061
O33   O     O_R   0.181390 0.457840 0.176710 -0.443967
O34   O     O_R   0.712460 0.542690 0.829530 -0.547408
O35   O     O_R   0.818610 0.457840 0.823290 -0.444061
O36   O     O_R   0.787500 0.044280 0.330990 -0.528096
O37   O     O_R   0.212500 0.044280 0.669010 -0.528136
O38   O     O_R   0.287500 0.544280 0.330990 -0.528096
O39   O     O_R   0.712500 0.544280 0.669010 -0.528135
O40   O     O_R   0.765610 0.293630 0.323860 -0.499485
O41   O     O_R   0.234390 0.293630 0.676140 -0.500037
O42   O     O_R   0.265610 0.793630 0.323860 -0.499484
O43   O     O_R   0.734390 0.793630 0.676140 -0.500037
O44   O     O_R   0.670140 0.410570 0.329080 -0.514549
O45   O     O_R   0.556540 0.252920 0.323970 -0.505590
O46   O     O_R   0.329860 0.410570 0.670920 -0.517246
O47   O     O_R   0.170140 0.910570 0.329080 -0.514550
O48   O     O_R   0.829860 0.910570 0.670920 -0.517247
O49   O     O_R   0.443460 0.252920 0.676030 -0.509874
O50   O     O_R   0.056540 0.752920 0.323970 -0.505589
O51   O     O_R   0.943460 0.752920 0.676030 -0.509874
O52   O     O_R   0.545870 0.051100 0.330840 -0.520651

loop_
_geom_bond_atom_site_label_1
_geom_bond_atom_site_label_2
_ccdc_geom_bond_type
Cr8   O44   S    
C6    C101  A    
C75   C79   A    
C13   C18   A    
Cr12  O52   S    
C3    C83   A    
C9    C61   A    
C61   H10   S    
C38   C44   A    
C92   O4    A    
C87   O47   A    
Cr1   O9    S    
Cr3   O29   S    
C64   C68   A    
C22   C26   A    
C78   C96   S    
Cr9   O24   S    
C26   H26   S    
Cr5   O10   S    
Br6   C11   S    
Cr7   O34   S    
Cr12  O31   S    
C11   C33   A    
C72   H11   S    
Cr2   O28   S    
C42   C51   A    
C56   C60   A    
C80   O31   A    
Cr6   O38   S    
C16   H20   S    
C30   C34   A    
Cr5   O37   S    
C44   C53   A    
Cr7   O13   S    
C71   C76   A    
C49   C51   A    
C3    C101  A    
C19   C39   S    
C57   C62   A    
C71   H5    S    
C21   C25   A    
C41   C49   A    
Cr10  O47   S    
Cr4   O4    S    
C9    H17   S    
C59   C64   A    
C94   H14   S    
Cr1   O36   S    
Br2   C5    S    
C10   C32   A    
C16   C21   A    
C48   C100  S    
Cr3   O7    S    
C1    O14   A    
C17   O19   A    
C41   C90   S    
C13   C35   A    
C23   H22   S    
C93   O5    A    
C70   C75   A    
C40   C43   A    
C58   C63   A    
C92   O51   A    
C8    C9    A    
Cr2   O10   S    
C97   O8    A    
C62   C66   A    
C52   H38   S    
Cr11  O26   S    
C97   O39   A    
C67   H44   S    
C28   O16   A    
C96   O38   A    
C39   O17   A    
C45   O22   A    
C77   C95   S    
Cr5   O12   S    
C82   O33   A    
Cr6   O11   S    
C59   H41   S    
C70   H4    S    
C88   O43   A    
C89   O45   A    
Cr11  O48   S    
C55   C77   A    
C76   C93   S    
C36   H31   S    
C66   C85   S    
C15   H19   S    
C8    H16   S    
Br1   C4    S    
C27   H27   S    
C65   C86   S    
C56   C78   A    
Cr8   O18   S    
C24   H24   S    
C57   C79   A    
C96   O7    A    
C48   O30   A    
C82   O23   A    
C50   H9    S    
C17   C21   S    
Cr10  O11   S    
C40   H35   S    
C55   C59   A    
C86   O46   A    
C46   O28   A    
C46   C98   S    
C31   H30   S    
C19   C23   A    
C26   C31   A    
C64   C87   S    
Cr1   O40   S    
C12   C16   A    
C2    C94   A    
Cr3   O3    S    
C1    O18   A    
C81   O12   A    
C54   C58   A    
C68   H2    S    
C5    C98   A    
Cr1   O1    S    
Cr12  O5    S    
C54   H1    S    
C60   C65   A    
C74   C78   A    
C38   H33   S    
Cr11  O51   S    
C95   O6    A    
C102  C103  A    
C72   C94   A    
C52   C53   A    
C34   C82   S    
C7    C100  A    
C39   O21   A    
C18   H21   S    
C11   C15   A    
Cr8   O9    S    
Cr7   O17   S    
C51   H37   S    
Cr8   O22   S    
Cr9   O19   S    
Cr4   O30   S    
Cr6   O23   S    
C45   C99   S    
Cr10  O20   S    
Cr1   O14   S    
C79   C97   S    
C91   O50   A    
C20   C24   A    
Cr4   O13   S    
C72   C104  A    
C85   O44   A    
C37   C41   A    
C89   O52   A    
C58   H40   S    
C37   H32   S    
C8    C50   A    
C24   C29   A    
Br3   C6    S    
C20   C28   S    
Cr12  O9    S    
C84   O35   A    
C46   O24   A    
C1    C22   S    
C48   O26   A    
Cr4   O8    S    
C47   O25   A    
C49   H36   S    
C2    C83   A    
C18   C22   A    
C14   C19   A    
C56   H23   S    
C66   C70   A    
C45   O27   A    
C23   C27   A    
Cr11  O21   S    
C15   C20   A    
Cr10  O25   S    
C33   C81   S    
Cr4   O35   S    
C84   O34   A    
C36   C37   A    
C98   C102  A    
C36   C42   A    
C43   C92   S    
Cr2   O2    S    
C81   O32   A    
C54   C76   A    
C42   C89   S    
C80   O1    A    
Cr10  O50   S    
C3    C104  A    
C53   H39   S    
C87   O42   A    
C99   C103  A    
C95   O37   A    
C57   H34   S    
C93   O36   A    
Br8   C13   S    
C68   C73   A    
C4    C99   A    
C12   C34   A    
C14   H18   S    
Cr5   O15   S    
Cr9   O10   S    
C63   C88   S    
Cr6   O16   S    
C50   C102  A    
Cr9   O49   S    
C44   C91   S    
Cr7   O43   S    
C35   C84   S    
C88   O48   A    
Cr6   O42   S    
C55   H12   S    
C32   C80   S    
Br4   C7    S    
C10   C14   A    
C27   C32   A    
Cr8   O45   S    
C75   H8    S    
Cr11  O13   S    
C25   H25   S    
C62   H43   S    
Cr9   O46   S    
C63   C67   A    
C61   C103  A    
C73   H6    S    
C47   O29   A    
C69   C74   A    
Br5   C10   S    
C83   H13   S    
Cr3   O33   S    
Cr12  O27   S    
Cr5   O41   S    
C29   C33   A    
C73   C77   A    
C69   H3    S    
C90   O2    A    
C38   C40   A    
C100  C104  A    
Cr2   O6    S    
Cr7   O39   S    
C4    C5    A    
C31   C35   A    
C86   O41   A    
Br7   C12   S    
C2    H15   S    
C90   O49   A    
C65   C69   A    
C6    C7    A    
C47   C101  S    
C25   C30   A    
Cr2   O32   S    
C43   C52   A    
C29   H28   S    
C30   H29   S    
C28   O20   A    
C74   H7    S    
C85   O40   A    
C67   C71   A    
Cr3   O11   S    
C17   O15   A    
C91   O3    A    
C60   H42   S    
