data_mof_unit_25266.cif
_audit_creation_date              2012-12-10T17:01:13-0500
_audit_creation_method            fapswitch 2.2
_symmetry_space_group_name_H-M    P1
_symmetry_Int_Tables_number       1
_space_group_crystal_system       triclinic
_cell_length_a                    15.585411
_cell_length_b                    15.097815
_cell_length_c                    9.81035
_cell_angle_alpha                 89.999973
_cell_angle_beta                  60.922518
_cell_angle_gamma                 89.999968
_cell_volume                      2017.48378336

loop_
_atom_site_label
_atom_site_type_symbol
_atom_type_description
_atom_site_fract_x
_atom_site_fract_y
_atom_site_fract_z
_atom_type_partial_charge
C1    C     C_R   0.369655 0.117187 0.561111 0.794540
C2    C     C_R   0.625325 0.878253 0.441386 0.728399
C3    C     C_R   0.630345 0.117187 0.438888 0.794541
C4    C     C_R   0.374675 0.878253 0.558614 0.728398
C5    C     C_R   0.869655 0.617187 0.561111 0.794540
C6    C     C_R   0.125326 0.378254 0.441386 0.728396
C7    C     C_R   0.130345 0.617187 0.438888 0.794538
C8    C     C_R   0.874675 0.378253 0.558614 0.728398
C9    C     C_2   0.510503 0.992461 0.917259 0.132653
C10   C     C_2   0.489497 0.992462 0.082741 0.132653
C11   C     C_2   0.010503 0.492462 0.917259 0.132656
C12   C     C_2   0.989496 0.492462 0.082741 0.132653
C13   C     C_2   0.308458 0.803577 0.581832 0.227027
C14   C     C_2   0.707664 0.182051 0.409282 0.197631
C15   C     C_2   0.691542 0.803577 0.418168 0.227027
C16   C     C_2   0.292336 0.182051 0.590718 0.197623
C17   C     C_2   0.808458 0.303578 0.581832 0.227029
C18   C     C_2   0.207663 0.682051 0.409282 0.197628
C19   C     C_2   0.191543 0.303578 0.418167 0.227027
C20   C     C_2   0.792337 0.682052 0.590718 0.197631
C21   C     C_2   0.333762 0.741222 0.467436 0.118956
C22   C     C_2   0.764427 0.172332 0.479152 0.133857
C23   C     C_2   0.666238 0.741222 0.532564 0.118956
C24   C     C_2   0.235573 0.172331 0.520846 0.133861
C25   C     C_2   0.833762 0.241222 0.467437 0.118954
C26   C     C_2   0.264427 0.672332 0.479152 0.133852
C27   C     C_2   0.166238 0.241221 0.532561 0.118952
C28   C     C_2   0.735572 0.672331 0.520849 0.133853
Cu1   Cu    Cu3+1 0.522650 0.000000 0.349410 1.018334
Cu2   Cu    Cu3+1 0.477350 1.000000 0.650590 1.018336
Cu3   Cu    Cu3+1 0.022650 0.500000 0.349410 1.018339
Cu4   Cu    Cu3+1 0.977350 0.500000 0.650590 1.018335
H1    H     H_    0.414279 0.985622 0.174759 0.154169
H2    H     H_    0.585720 0.985621 0.825241 0.154170
H3    H     H_    0.914279 0.485622 0.174759 0.154170
H4    H     H_    0.085721 0.485622 0.825241 0.154170
N1    N     N_2   0.443290 0.000000 0.876860 -0.157731
N2    N     N_2   0.556710 1.000000 0.123140 -0.157732
N3    N     N_2   0.943290 0.500000 0.876860 -0.157733
N4    N     N_2   0.056710 0.500000 0.123140 -0.157735
O1    O     O_R   0.422430 0.089640 0.419570 -0.576830
O2    O     O_R   0.577570 0.910360 0.580430 -0.618764
O3    O     O_R   0.577570 0.089640 0.580430 -0.576830
O4    O     O_R   0.422430 0.910360 0.419570 -0.618763
O5    O     O_R   0.922430 0.589640 0.419570 -0.576830
O6    O     O_R   0.077570 0.410360 0.580430 -0.618763
O7    O     O_R   0.077570 0.589640 0.580430 -0.576830
O8    O     O_R   0.922430 0.410360 0.419570 -0.618764
O9    O     O_R   0.384170 0.089650 0.673910 -0.549959
O10   O     O_R   0.615830 0.910350 0.326090 -0.522087
O11   O     O_R   0.615830 0.089650 0.326090 -0.549957
O12   O     O_R   0.384170 0.910350 0.673910 -0.522084
O13   O     O_R   0.884170 0.589650 0.673910 -0.549959
O14   O     O_R   0.115830 0.410350 0.326090 -0.522076
O15   O     O_R   0.115830 0.589650 0.326090 -0.549959
O16   O     O_R   0.884170 0.410350 0.673910 -0.522083
N5    N     N_3   0.653711 0.007733 0.005842 -0.449746
H5    H     H_    0.681035 0.066591 0.025767 0.278607
H6    H     H_    0.692651 0.955766 0.020655 0.302127
N6    N     N_3   0.346289 0.007736 0.994158 -0.449747
H7    H     H_    0.318968 0.066596 0.974231 0.278602
H8    H     H_    0.307347 0.955771 0.979345 0.302132
N7    N     N_3   0.153711 0.507734 0.005842 -0.449740
H9    H     H_    0.181034 0.566593 0.025769 0.278606
H10   H     H_    0.192652 0.455768 0.020655 0.302150
N8    N     N_3   0.846289 0.507734 0.994158 -0.449745
H11   H     H_    0.818966 0.566592 0.974231 0.278608
H12   H     H_    0.807348 0.455768 0.979345 0.302132
N9    N     N_3   0.764194 0.092746 0.559838 -0.511188
H13   H     H_    0.699067 0.089501 0.665650 0.265637
H14   H     H_    0.769796 0.037608 0.491431 0.241366
N10   N     N_3   0.430542 0.735668 0.334408 -0.515470
H15   H     H_    0.440666 0.786981 0.256630 0.281690
H16   H     H_    0.483173 0.739714 0.371158 0.209614
N11   N     N_3   0.235806 0.092746 0.440161 -0.511191
H17   H     H_    0.300934 0.089500 0.334350 0.265635
H18   H     H_    0.230204 0.037607 0.508568 0.241365
N12   N     N_3   0.569458 0.735668 0.665594 -0.515467
H19   H     H_    0.559335 0.786982 0.743371 0.281690
H20   H     H_    0.516827 0.739715 0.628844 0.209614
N13   N     N_3   0.264195 0.592746 0.559836 -0.511190
H21   H     H_    0.199067 0.589500 0.665649 0.265638
H22   H     H_    0.269796 0.537608 0.491430 0.241358
N14   N     N_3   0.930542 0.235667 0.334409 -0.515462
H23   H     H_    0.940666 0.286980 0.256631 0.281691
H24   H     H_    0.983173 0.239714 0.371160 0.209611
N15   N     N_3   0.735805 0.592746 0.440165 -0.511189
H25   H     H_    0.800932 0.589500 0.334353 0.265638
H26   H     H_    0.730203 0.537607 0.508572 0.241363
N16   N     N_3   0.069456 0.235664 0.665585 -0.515463
H27   H     H_    0.059329 0.286976 0.743366 0.281690
H28   H     H_    0.016828 0.239711 0.628830 0.209609
S1    S     S_3+6 0.719908 0.274062 0.287961 0.051012
O17   O     O_2   0.723608 0.358994 0.364800 -0.252589
O18   O     O_2   0.813509 0.264996 0.135683 -0.298688
O19   O     O_3   0.624038 0.278762 0.253957 -0.444798
H29   H     H_    0.642845 0.241189 0.160956 0.386243
S2    S     S_3+6 0.194552 0.800148 0.757913 0.034360
O20   O     O_2   0.111437 0.790634 0.722368 -0.236202
O21   O     O_2   0.194658 0.722036 0.852691 -0.310948
O22   O     O_3   0.178285 0.893493 0.861318 -0.514136
H30   H     H_    0.117691 0.883160 0.961641 0.402916
S3    S     S_3+6 0.280088 0.274061 0.712043 0.051026
O23   O     O_2   0.276390 0.358993 0.635204 -0.252586
O24   O     O_2   0.186486 0.264993 0.864318 -0.298687
O25   O     O_3   0.375956 0.278760 0.746052 -0.444761
H31   H     H_    0.357147 0.241188 0.839054 0.386257
S4    S     S_3+6 0.805446 0.800146 0.242085 0.034358
O26   O     O_2   0.888563 0.790631 0.277627 -0.236188
O27   O     O_2   0.805338 0.722034 0.147309 -0.310960
O28   O     O_3   0.821714 0.893491 0.138681 -0.514147
H32   H     H_    0.882289 0.883148 0.038341 0.402918
S5    S     S_3+6 0.219907 0.774063 0.287961 0.051012
O29   O     O_2   0.223608 0.858994 0.364801 -0.252588
O30   O     O_2   0.313508 0.764996 0.135683 -0.298692
O31   O     O_3   0.124037 0.778762 0.253960 -0.444794
H33   H     H_    0.142843 0.741190 0.160958 0.386242
S6    S     S_3+6 0.694551 0.300149 0.757912 0.034349
O32   O     O_2   0.611436 0.290636 0.722366 -0.236202
O33   O     O_2   0.694656 0.222037 0.852692 -0.310946
O34   O     O_3   0.678284 0.393494 0.861317 -0.514150
H34   H     H_    0.617688 0.383162 0.961639 0.402894
S7    S     S_3+6 0.780093 0.774063 0.712037 0.051007
O35   O     O_2   0.776394 0.858994 0.635196 -0.252588
O36   O     O_2   0.686493 0.764998 0.864316 -0.298694
O37   O     O_3   0.875964 0.778763 0.746038 -0.444804
H35   H     H_    0.857159 0.741189 0.839038 0.386238
S8    S     S_3+6 0.305453 0.300154 0.242093 0.034351
O38   O     O_2   0.388564 0.290650 0.277652 -0.236245
O39   O     O_2   0.305360 0.222039 0.147310 -0.310903
O40   O     O_3   0.321716 0.393497 0.138685 -0.514150
H36   H     H_    0.382368 0.383202 0.038429 0.402909

loop_
_geom_bond_atom_site_label_1
_geom_bond_atom_site_label_2
_ccdc_geom_bond_type
N8    H12   S    
C21   C26   S    
N7    H10   S    
O22   H30   S    
O28   H32   S    
C18   C26   D    
C24   C27   S    
C7    O15   A    
N15   H25   S    
S8    O38   D    
C8    O16   A    
N13   H21   S    
N5    H5    S    
S7    O35   D    
C5    C20   S    
Cu3   N4    S    
C6    C19   S    
C3    O3    A    
O37   H35   S    
N4    N7    S    
C4    O12   A    
C5    O13   A    
C11   H4    S    
N14   H24   S    
N12   H20   S    
S7    O36   D    
O25   H31   S    
C19   S8    S    
C4    C13   S    
S4    O26   D    
C27   N16   S    
N6    H8    S    
Cu4   N3    S    
C13   S2    S    
N9    H14   S    
S6    O32   D    
C20   S7    S    
C2    O10   A    
C22   C25   S    
Cu1   N2    S    
C25   N14   S    
C10   H1    S    
C19   C27   D    
C9    C10   S    
C14   S1    S    
S5    O31   S    
C15   C23   D    
N8    H11   S    
S1    O18   D    
C6    O14   A    
C18   S5    S    
N13   H22   S    
Cu1   O10   S    
C21   N10   S    
N14   H23   S    
N10   H16   S    
C3    O11   A    
N12   H19   S    
S7    O37   S    
C4    O4    A    
C5    O5    A    
C23   N12   S    
Cu2   N1    S    
N6    H7    S    
S6    O34   S    
C7    O7    A    
C15   S4    S    
C12   N4    D    
N11   H17   S    
C8    O8    A    
Cu1   Cu2   S    
N2    N5    S    
C16   S3    S    
N16   H28   S    
Cu3   Cu4   S    
C7    C18   S    
O19   H29   S    
C28   N15   S    
C9    N1    D    
C13   C21   D    
S3    O24   D    
C1    C16   S    
C23   C28   S    
C12   H3    S    
C11   N3    D    
C2    C15   S    
N11   H18   S    
O34   H34   S    
C3    C14   S    
C17   S6    S    
C1    O1    A    
Cu2   O9    S    
S1    O19   S    
S2    O21   D    
Cu3   O8    S    
N15   H26   S    
Cu1   O4    S    
C9    H2    S    
N3    N8    S    
Cu2   O3    S    
O40   H36   S    
S8    O40   S    
Cu4   O13   S    
S5    O29   D    
Cu1   O11   S    
Cu2   O12   S    
C6    O6    A    
Cu1   O1    S    
Cu4   O6    S    
N10   H15   S    
S8    O39   D    
C11   C12   S    
C24   N11   S    
C26   N13   S    
S2    O22   S    
C20   C28   D    
S1    O17   D    
C8    C17   S    
S4    O28   S    
C10   N2    D    
C17   C25   D    
C14   C22   D    
N16   H27   S    
C2    O2    A    
Cu4   O7    S    
S4    O27   D    
O31   H33   S    
S3    O25   S    
Cu3   O14   S    
N9    H13   S    
S6    O33   D    
N1    N6    S    
N5    H6    S    
N7    H9    S    
C16   C24   D    
S2    O20   D    
Cu3   O5    S    
S3    O23   D    
C22   N9    S    
Cu2   O2    S    
Cu3   O15   S    
C1    O9    A    
Cu4   O16   S    
S5    O30   D    
