data_mof_unit_47842.cif
_audit_creation_date              2012-12-11T15:50:22-0500
_audit_creation_method            fapswitch 2.2
_symmetry_space_group_name_H-M    P1
_symmetry_Int_Tables_number       1
_space_group_crystal_system       triclinic
_cell_length_a                    19.120682
_cell_length_b                    11.057146
_cell_length_c                    18.718036
_cell_angle_alpha                 89.898394
_cell_angle_beta                  91.072994
_cell_angle_gamma                 89.710924
_cell_volume                      3956.61920985

loop_
_atom_site_label
_atom_site_type_symbol
_atom_type_description
_atom_site_fract_x
_atom_site_fract_y
_atom_site_fract_z
_atom_type_partial_charge
C1    C     C_R   0.272859 0.041453 0.853709 0.544892
C2    C     C_R   0.725250 0.036667 0.144529 0.544031
C3    C     C_R   0.773926 0.539261 0.854686 0.542077
C4    C     C_R   0.210158 0.498093 0.139181 0.551456
C5    C     C_3   0.540719 0.743540 0.969502 -0.123586
C6    C     C_3   0.484131 0.721986 0.025622 -0.124897
C7    C     C_3   0.012310 0.217840 0.976449 -0.109647
C8    C     C_3   0.956352 0.246007 0.032615 -0.124735
C9    C     C_R   0.219970 0.514379 0.062230 0.009224
C10   C     C_R   0.759563 0.574937 0.927737 0.020263
C11   C     C_R   0.736347 0.059726 0.069582 0.015304
C12   C     C_R   0.254600 0.084530 0.924438 0.020614
C13   C     C_R   0.276873 0.465092 0.025777 0.026407
C14   C     C_R   0.696131 0.551799 0.960825 -0.004169
C15   C     C_R   0.792743 0.012760 0.032532 0.014959
C16   C     C_R   0.194936 0.045909 0.960212 0.003802
C17   C     C_R   0.287359 0.490990 0.953913 0.020789
C18   C     C_R   0.690211 0.562483 0.034433 0.026609
C19   C     C_R   0.797843 0.023762 0.960684 0.019540
C20   C     C_R   0.190494 0.057007 0.033965 0.014186
C21   C     C_R   0.178604 0.600540 0.949902 -0.178036
C22   C     C_R   0.812330 0.614063 0.044255 -0.171550
C23   C     C_R   0.684965 0.116733 0.954206 -0.175812
C24   C     C_R   0.305369 0.145338 0.037944 -0.164491
C25   C     C_R   0.168057 0.574114 0.021643 -0.173631
C26   C     C_R   0.816789 0.612375 0.970650 -0.168642
C27   C     C_R   0.680969 0.110253 0.028232 -0.178108
C28   C     C_R   0.307206 0.143698 0.964285 -0.152817
C29   C     C_3   0.353310 0.471323 0.042774 -0.268934
C30   C     C_3   0.651385 0.442109 0.957603 -0.275191
C31   C     C_3   0.860013 0.945061 0.040157 -0.271898
C32   C     C_3   0.159621 0.926039 0.959970 -0.268137
C33   C     C_3   0.364738 0.494310 0.963733 -0.277820
C34   C     C_3   0.644611 0.453271 0.037840 -0.276279
C35   C     C_3   0.867355 0.962658 0.958912 -0.274446
C36   C     C_3   0.154271 0.938226 0.040331 -0.274044
C37   C     C_R   0.241723 0.569211 0.916643 0.016297
C38   C     C_R   0.748921 0.589304 0.077342 0.020786
C39   C     C_R   0.746557 0.081526 0.919303 0.021992
C40   C     C_R   0.247515 0.099905 0.074319 0.015072
C41   C     C_R   0.505931 0.835145 0.425816 -0.008832
C42   C     C_R   0.501346 0.829464 0.576379 -0.010458
C43   C     C_R   0.998714 0.329896 0.423648 -0.011019
C44   C     C_R   0.994203 0.335098 0.574225 -0.009214
C45   C     C_R   0.470497 0.821794 0.855117 0.542278
C46   C     C_R   0.530933 0.821802 0.144028 0.540893
C47   C     C_R   0.967830 0.320765 0.856550 0.542030
C48   C     C_R   0.029303 0.322235 0.144994 0.536819
C49   C     C_R   0.501537 0.727575 0.462580 0.039367
C50   C     C_R   0.500816 0.723605 0.535684 -0.024827
C51   C     C_R   0.999474 0.223907 0.464444 -0.023887
C52   C     C_R   0.998843 0.227656 0.537552 0.040591
C53   C     C_R   0.513211 0.939945 0.540975 0.197511
C54   C     C_R   0.511766 0.943613 0.465284 0.185373
C55   C     C_R   0.988263 0.443801 0.534667 0.185849
C56   C     C_R   0.986809 0.440449 0.458978 0.198092
C57   C     C_3   0.446772 0.634030 0.453206 -0.250561
C58   C     C_3   0.447170 0.626226 0.533378 -0.209938
C59   C     C_3   0.053429 0.126114 0.466813 -0.209777
C60   C     C_3   0.053922 0.133699 0.546971 -0.251048
C61   C     C_R   0.247749 0.578979 0.424791 -0.028406
C62   C     C_R   0.739145 0.621736 0.587747 -0.023861
C63   C     C_R   0.760432 0.121996 0.412119 -0.024417
C64   C     C_R   0.252210 0.078973 0.575159 -0.028361
C65   C     C_R   0.203656 0.659185 0.458339 0.057496
C66   C     C_R   0.777713 0.713141 0.555732 0.008382
C67   C     C_R   0.720884 0.212476 0.444320 0.011397
C68   C     C_R   0.295938 0.159252 0.541643 0.055830
C69   C     C_R   0.209892 0.677569 0.530196 -0.037157
C70   C     C_R   0.766681 0.745807 0.484535 -0.048341
C71   C     C_R   0.731928 0.245323 0.515408 -0.046668
C72   C     C_R   0.289787 0.177589 0.469720 -0.037660
C73   C     C_R   0.295103 0.515787 0.539738 0.170486
C74   C     C_R   0.670666 0.605969 0.477812 0.208496
C75   C     C_R   0.829630 0.107248 0.521783 0.207513
C76   C     C_R   0.205760 0.015430 0.460218 0.170068
C77   C     C_R   0.294379 0.506823 0.465743 -0.152028
C78   C     C_R   0.678499 0.584234 0.551719 -0.119309
C79   C     C_R   0.821761 0.085718 0.447857 -0.120960
C80   C     C_R   0.206383 0.006339 0.534184 -0.151606
C81   C     C_3   0.126041 0.645281 0.463772 -0.153371
C82   C     C_3   0.854109 0.713528 0.547229 -0.168774
C83   C     C_3   0.644570 0.210868 0.453414 -0.167233
C84   C     C_3   0.373584 0.144408 0.536279 -0.153107
C85   C     C_3   0.133695 0.676423 0.540774 -0.206215
C86   C     C_3   0.842908 0.757838 0.472728 -0.222850
C87   C     C_3   0.655617 0.255248 0.527766 -0.222023
C88   C     C_3   0.365987 0.175575 0.459263 -0.205823
C89   C     C_R   0.260028 0.634497 0.851033 0.538834
C90   C     C_R   0.739272 0.635850 0.148938 0.552293
C91   C     C_R   0.759962 0.133627 0.849942 0.553623
C92   C     C_R   0.238899 0.137925 0.147984 0.540176
C93   C     C_R   0.253594 0.604054 0.571287 0.016161
C94   C     C_R   0.719909 0.680382 0.441898 0.016256
C95   C     C_R   0.779775 0.180805 0.557878 0.015616
C96   C     C_R   0.246564 0.104124 0.428703 0.015764
C97   C     C_R   0.271921 0.042846 0.645655 0.555411
C98   C     C_R   0.730431 0.050822 0.352022 0.536408
C99   C     C_R   0.769551 0.550679 0.647942 0.535929
C100  C     C_R   0.228079 0.542882 0.354370 0.564560
C101  C     C_R   0.470500 0.823308 0.647344 0.564454
C102  C     C_R   0.530059 0.824469 0.352813 0.567679
C103  C     C_R   0.969955 0.324333 0.647191 0.568268
C104  C     C_R   0.029489 0.323508 0.352648 0.565331
C105  C     C_R   0.260350 0.637817 0.644072 0.583578
C106  C     C_R   0.724284 0.690991 0.363148 0.581508
C107  C     C_R   0.775610 0.191215 0.636694 0.582504
C108  C     C_R   0.239709 0.138003 0.355920 0.583746
C109  C     C_3   0.462365 0.917801 0.029517 -0.124382
C110  C     C_3   0.518953 0.939324 0.972642 -0.116509
C111  C     C_3   0.981231 0.439916 0.026102 -0.124789
C112  C     C_3   0.036744 0.411825 0.969173 -0.133680
C113  C     C_3   0.433879 0.809713 0.985881 -0.116941
C114  C     C_3   0.569220 0.851583 0.013048 -0.107745
C115  C     C_3   0.929338 0.354184 0.987516 -0.114384
C116  C     C_3   0.064064 0.303799 0.014260 -0.103153
C117  C     C_3   0.491062 0.830562 0.930345 0.055905
C118  C     C_3   0.511947 0.829737 0.068359 0.057805
C119  C     C_3   0.985775 0.326089 0.932361 0.053949
C120  C     C_3   0.007772 0.331111 0.069979 0.056141
Cr1   Cr    Cr6+3 0.229640 0.835880 0.747370 1.019847
Cr2   Cr    Cr6+3 0.770360 0.835880 0.252630 1.032252
Cr3   Cr    Cr6+3 0.729640 0.335880 0.747370 1.028702
Cr4   Cr    Cr6+3 0.270360 0.335880 0.252630 1.020972
Cr5   Cr    Cr6+3 0.387390 0.989720 0.750850 1.078483
Cr6   Cr    Cr6+3 0.612610 0.989720 0.249150 1.064166
Cr7   Cr    Cr6+3 0.887390 0.489720 0.750850 1.062849
Cr8   Cr    Cr6+3 0.112610 0.489720 0.249150 1.073167
Cr9   Cr    Cr6+3 0.385770 0.677220 0.749340 1.062273
Cr10  Cr    Cr6+3 0.614230 0.677220 0.250660 1.072266
Cr11  Cr    Cr6+3 0.885770 0.177220 0.749340 1.069645
Cr12  Cr    Cr6+3 0.114230 0.177220 0.250660 1.061389
H1    H     H_    0.377602 0.794367 0.973349 0.108215
H2    H     H_    0.625292 0.867423 0.026113 0.125281
H3    H     H_    0.873495 0.372929 0.974315 0.121610
H4    H     H_    0.120022 0.284930 0.026864 0.118307
H5    H     H_    0.102837 0.158197 0.443835 0.176287
H6    H     H_    0.035694 0.049871 0.573203 0.214982
H7    H     H_    0.465343 0.550136 0.427119 0.215280
H8    H     H_    0.397563 0.658486 0.556229 0.176756
H9    H     H_    0.397477 0.672300 0.429975 0.125815
H10   H     H_    0.468601 0.539400 0.554554 0.220760
H11   H     H_    0.032300 0.039488 0.445756 0.220941
H12   H     H_    0.103087 0.171628 0.570098 0.124679
H13   H     H_    0.326381 0.438812 0.440935 0.163052
H14   H     H_    0.642395 0.525833 0.578645 0.149212
H15   H     H_    0.858558 0.028367 0.420731 0.149176
H16   H     H_    0.174875 0.937987 0.558966 0.163995
H17   H     H_    0.110664 0.549520 0.455801 0.169082
H18   H     H_    0.870637 0.618042 0.546068 0.222589
H19   H     H_    0.629351 0.114885 0.454811 0.220640
H20   H     H_    0.389100 0.048447 0.544463 0.168735
H21   H     H_    0.094563 0.711411 0.432425 0.260770
H22   H     H_    0.881972 0.775871 0.584135 0.243466
H23   H     H_    0.615555 0.272756 0.416697 0.244735
H24   H     H_    0.404971 0.210004 0.567515 0.262039
H25   H     H_    0.111603 0.766085 0.554796 0.192625
H26   H     H_    0.860036 0.851058 0.464925 0.188159
H27   H     H_    0.636900 0.347909 0.535692 0.188783
H28   H     H_    0.387963 0.264905 0.445040 0.193390
H29   H     H_    0.121450 0.601329 0.577647 0.201105
H30   H     H_    0.862576 0.693908 0.433024 0.238872
H31   H     H_    0.637364 0.190410 0.567640 0.238350
H32   H     H_    0.378461 0.100215 0.422653 0.200910
H33   H     H_    0.430275 0.988030 0.055851 0.115196
H34   H     H_    0.533332 0.027764 0.949164 0.112972
H35   H     H_    0.968991 0.530450 0.048160 0.108127
H36   H     H_    0.065925 0.476949 0.936768 0.122629
H37   H     H_    0.572106 0.673833 0.942220 0.126306
H38   H     H_    0.471987 0.632822 0.049175 0.118074
H39   H     H_    0.026087 0.127405 0.955078 0.118075
H40   H     H_    0.921737 0.184185 0.061575 0.116502
H41   H     H_    0.138976 0.654542 0.922545 0.138887
H42   H     H_    0.858407 0.638892 0.075291 0.131157
H43   H     H_    0.641287 0.157449 0.925209 0.137777
H44   H     H_    0.349825 0.183275 0.066371 0.133698
H45   H     H_    0.120495 0.606332 0.045956 0.143075
H46   H     H_    0.867455 0.631225 0.948324 0.143026
H47   H     H_    0.633316 0.142491 0.052320 0.146083
H48   H     H_    0.353979 0.178112 0.939759 0.144123
H49   H     H_    0.366000 0.549945 0.077445 0.145120
H50   H     H_    0.601410 0.457931 0.927717 0.134150
H51   H     H_    0.900077 0.992029 0.073115 0.130434
H52   H     H_    0.108049 0.928690 0.931600 0.133272
H53   H     H_    0.386821 0.583937 0.951471 0.156639
H54   H     H_    0.590650 0.476480 0.054400 0.144466
H55   H     H_    0.909733 0.025737 0.944202 0.152407
H56   H     H_    0.099532 0.949086 0.058378 0.146206
O1    O     O_R   0.214300 0.709080 0.827500 -0.531897
O2    O     O_R   0.785700 0.709080 0.172500 -0.520176
O3    O     O_R   0.714300 0.209080 0.827500 -0.525905
O4    O     O_R   0.285700 0.209080 0.172500 -0.531114
O5    O     O_R   0.445900 0.919370 0.676500 -0.450243
O6    O     O_R   0.554100 0.919370 0.323500 -0.446890
O7    O     O_R   0.945900 0.419370 0.676500 -0.446031
O8    O     O_R   0.054100 0.419370 0.323500 -0.450130
O9    O     O_R   0.456660 0.717710 0.669820 -0.519627
O10   O     O_R   0.543340 0.717710 0.330180 -0.484689
O11   O     O_R   0.956660 0.217710 0.669820 -0.484659
O12   O     O_R   0.043340 0.217710 0.330180 -0.518310
O13   O     O_R   0.320590 0.625770 0.672930 -0.453880
O14   O     O_R   0.679410 0.625770 0.327070 -0.428588
O15   O     O_R   0.820590 0.125770 0.672930 -0.429095
O16   O     O_R   0.179410 0.125770 0.327070 -0.452352
O17   O     O_3   0.334270 0.834280 0.749190 -0.283026
O18   O     O_3   0.665730 0.834280 0.250810 -0.304178
O19   O     O_3   0.834270 0.334280 0.749190 -0.302418
O20   O     O_3   0.165730 0.334280 0.250810 -0.302551
O21   O     O_R   0.236190 0.958390 0.823150 -0.505550
O22   O     O_R   0.763810 0.958390 0.176850 -0.501506
O23   O     O_R   0.736190 0.458390 0.823150 -0.505180
O24   O     O_R   0.263810 0.458390 0.176850 -0.498693
O25   O     O_R   0.332090 0.075280 0.831290 -0.519448
O26   O     O_R   0.667910 0.075280 0.168710 -0.525706
O27   O     O_R   0.832090 0.575280 0.831290 -0.525002
O28   O     O_R   0.167910 0.575280 0.168710 -0.512307
O29   O     O_R   0.446280 0.918040 0.826620 -0.499982
O30   O     O_R   0.553720 0.918040 0.173380 -0.505950
O31   O     O_R   0.946280 0.418040 0.826620 -0.505633
O32   O     O_R   0.053720 0.418040 0.173380 -0.518052
O33   O     O_R   0.457080 0.716270 0.831760 -0.525681
O34   O     O_R   0.542920 0.716270 0.168240 -0.525072
O35   O     O_R   0.957080 0.216270 0.831760 -0.529242
O36   O     O_R   0.042920 0.216270 0.168240 -0.518254
O37   O     O_R   0.320980 0.624440 0.823040 -0.494851
O38   O     O_R   0.679020 0.624440 0.176960 -0.496017
O39   O     O_R   0.820980 0.124440 0.823040 -0.498057
O40   O     O_R   0.179020 0.124440 0.176960 -0.492592
O41   O     O_R   0.213880 0.710510 0.665560 -0.528492
O42   O     O_R   0.786120 0.710510 0.334440 -0.507174
O43   O     O_R   0.713880 0.210510 0.665560 -0.508071
O44   O     O_R   0.286120 0.210510 0.334440 -0.528178
O45   O     O_R   0.235800 0.959720 0.673040 -0.519300
O46   O     O_R   0.764200 0.959720 0.326960 -0.524318
O47   O     O_R   0.735800 0.459720 0.673040 -0.524470
O48   O     O_R   0.264200 0.459720 0.326960 -0.515428
O49   O     O_R   0.331670 0.076720 0.669350 -0.483043
O50   O     O_R   0.668330 0.076720 0.330650 -0.487829
O51   O     O_R   0.831670 0.576720 0.669350 -0.487790
O52   O     O_R   0.168330 0.576720 0.330650 -0.479885
Cl1   Cl    Cl    0.526461 0.072714 0.590972 -0.623720
Cl2   Cl    Cl    0.507698 0.083066 0.419923 -0.656997
Cl3   Cl    Cl    0.992263 0.583024 0.579881 -0.655908
Cl4   Cl    Cl    0.973307 0.573639 0.408914 -0.622335
Cl5   Cl    Cl    0.346532 0.416959 0.592143 -0.666595
Cl6   Cl    Cl    0.607302 0.518383 0.433069 -0.658461
Cl7   Cl    Cl    0.893850 0.020150 0.566486 -0.658616
Cl8   Cl    Cl    0.155042 0.916700 0.407821 -0.665019
H57   H     H_    0.851480 0.849917 0.055958 0.159670
H58   H     H_    0.195323 0.851884 0.943995 0.168005
H59   H     H_    0.375606 0.384059 0.061656 0.137308
H60   H     H_    0.681302 0.361051 0.941285 0.171103
H61   H     H_    0.390685 0.417381 0.936547 0.138159
H62   H     H_    0.669592 0.377374 0.068077 0.144266
H63   H     H_    0.865596 0.876614 0.928340 0.143215
H64   H     H_    0.185882 0.869824 0.070523 0.152937

loop_
_geom_bond_atom_site_label_1
_geom_bond_atom_site_label_2
_ccdc_geom_bond_type
Cr5   O5    S    
C83   C87   S    
C55   C56   A    
C77   H13   S    
C67   C83   S    
C46   O30   A    
C7    H39   S    
C5    C114  S    
C104  O12   A    
Cr2   O18   S    
C87   H31   S    
C111  C112  S    
C29   H59   S    
C73   C93   A    
C43   C56   A    
Cr11  O19   S    
C115  H3    S    
Cr4   O44   S    
Cr7   O31   S    
C7    C8    S    
C48   C120  S    
C82   H22   S    
C63   C79   A    
C53   C54   A    
C21   H41   S    
C15   C19   A    
Cr11  O15   S    
C57   H7    S    
C36   H64   S    
C55   Cl3   S    
C12   C28   A    
C4    O28   A    
Cr7   O51   S    
C54   Cl2   S    
C13   C29   S    
C16   C20   A    
C70   C94   A    
C27   H47   S    
C63   C98   S    
C69   C93   A    
C102  O10   A    
C42   C53   A    
Cr1   O1    S    
C5    C6    S    
C20   C40   A    
C71   C95   A    
C25   H45   S    
C112  C116  S    
C83   H23   S    
C59   H5    S    
C3    O27   A    
C112  H36   S    
C32   H58   S    
Cr12  O12   S    
C49   C57   S    
C41   C102  S    
C46   C118  S    
C101  O9    A    
C41   C49   A    
C34   H54   S    
C9    C13   A    
C85   H29   S    
C109  H33   S    
Cr7   O19   S    
Cr6   O26   S    
C8    C115  S    
C93   C105  S    
C43   C51   A    
C29   H49   S    
Cr5   O25   S    
C6    H38   S    
C95   C107  S    
C12   C16   A    
C29   C33   S    
C61   C77   A    
C89   O1    A    
Cr3   O23   S    
Cr10  O10   S    
C76   C80   A    
Cr2   O22   S    
C86   H30   S    
Cr1   O21   S    
C52   C60   S    
Cr8   O32   S    
C45   C117  S    
C74   C78   A    
Cr10  O14   S    
C109  C113  S    
C56   Cl4   S    
C18   C34   S    
Cr9   O13   S    
C81   C85   S    
C10   C26   A    
Cr3   O47   S    
C47   C119  S    
C96   C108  S    
C59   H11   S    
C59   C60   S    
C113  H1    S    
Cr4   O20   S    
C35   H63   S    
C64   C80   A    
C76   Cl8   S    
C1    C12   S    
C11   C15   A    
C14   C30   S    
C2    C11   S    
C102  O6    A    
C110  C117  S    
C39   C91   S    
C22   H42   S    
C44   C103  S    
C101  O5    A    
C109  C118  S    
Cr2   O2    S    
C51   C59   S    
C83   H19   S    
C23   C27   A    
C26   H46   S    
C3    O23   A    
C62   C78   A    
Cr2   O42   S    
C63   C67   A    
C2    O22   A    
Cr12  O16   S    
C107  O43   A    
C30   C34   S    
C75   C95   A    
C51   C52   A    
C68   C84   S    
C7    C119  S    
Cr10  O34   S    
Cr1   O41   S    
Cr3   O43   S    
Cr9   O33   S    
C21   C25   A    
C10   C14   A    
C103  O7    A    
C62   C66   A    
C19   C35   S    
C60   H12   S    
C20   C36   S    
C79   H15   S    
C48   O36   A    
C82   C86   S    
C1    O21   A    
C116  C120  S    
C48   O32   A    
C106  O42   A    
C74   C94   A    
C36   H56   S    
C105  O41   A    
C7    C116  S    
C80   H16   S    
Cr11  O11   S    
C6    C113  S    
C107  O15   A    
Cr10  O18   S    
Cr4   O48   S    
Cr7   O7    S    
Cr1   O45   S    
C106  O14   A    
Cr9   O17   S    
Cr6   O6    S    
Cr4   O24   S    
C105  O13   A    
C98   O46   A    
C11   C27   A    
C68   C72   A    
C75   Cl7   S    
C97   O45   A    
C114  H2    S    
C50   C58   S    
C21   C37   A    
C62   C99   S    
C17   C33   S    
Cr11  O39   S    
C103  O11   A    
C40   C92   S    
C15   C31   S    
C28   H48   S    
Cr9   O37   S    
C92   O40   A    
C114  C118  S    
C19   C39   A    
Cr8   O28   S    
C70   C86   S    
C113  C117  S    
C84   H20   S    
C53   Cl1   S    
C35   H55   S    
C64   C97   S    
Cr2   O46   S    
C42   C50   A    
C99   O47   A    
Cr12  O20   S    
C86   H26   S    
C30   H50   S    
C1    O25   A    
C73   Cl5   S    
C71   C87   S    
C8    H40   S    
C100  O48   A    
C61   C100  S    
Cr8   O52   S    
C17   C37   A    
Cr3   O3    S    
C87   H27   S    
C24   H44   S    
C42   C101  S    
C64   C68   A    
C110  C114  S    
Cr4   O4    S    
Cr5   O49   S    
C81   H21   S    
C8    C120  S    
C24   C28   A    
C108  O44   A    
C58   H8    S    
C65   C69   A    
C47   O35   A    
C94   C106  S    
C73   C77   A    
C58   H10   S    
C91   O39   A    
Cr12  O36   S    
C14   C18   A    
C90   O38   A    
C74   Cl6   S    
Cr8   O8    S    
C81   H17   S    
C89   O37   A    
C82   H18   S    
C46   O34   A    
C44   C52   A    
C9    C25   A    
C112  C119  S    
C111  C115  S    
C32   C36   S    
C2    O26   A    
C116  H4    S    
C37   C89   S    
C16   C32   S    
C97   O49   A    
C38   C90   S    
C115  C119  S    
C4    O24   A    
C57   H9    S    
C34   H62   S    
C45   O33   A    
Cr12  O40   S    
C60   H6    S    
C18   C38   A    
C99   O51   A    
C69   C85   S    
C3    C10   S    
C88   H32   S    
C109  C110  S    
C76   C96   A    
C66   C82   S    
C43   C104  S    
C84   H24   S    
C44   C55   A    
Cr7   O27   S    
C57   C58   S    
C66   C70   A    
C84   C88   S    
C47   O31   A    
Cr6   O18   S    
C23   C39   A    
C31   C35   S    
Cr5   O17   S    
C24   C40   A    
C31   H57   S    
C30   H60   S    
C33   H53   S    
C100  O52   A    
C67   C71   A    
C88   H28   S    
C61   C65   A    
C91   O3    A    
C110  H34   S    
C31   H51   S    
C41   C54   A    
Cr5   O29   S    
C78   H14   S    
C111  H35   S    
C13   C17   A    
C72   C96   A    
Cr6   O50   S    
Cr6   O30   S    
Cr1   O17   S    
Cr3   O19   S    
C23   H43   S    
C90   O2    A    
Cr10  O38   S    
C108  O16   A    
C49   C50   A    
C22   C26   A    
C5    C117  S    
C33   H61   S    
C85   H25   S    
C5    H37   S    
C65   C81   S    
C111  C120  S    
C98   O50   A    
Cr11  O35   S    
Cr8   O20   S    
C32   H52   S    
C4    C9    S    
C72   C88   S    
C75   C79   A    
C6    C118  S    
Cr9   O9    S    
C45   O29   A    
C92   O4    A    
C104  O8    A    
C22   C38   A    
