data_mof_unit_28965.cif
_audit_creation_date              2012-12-10T17:10:29-0500
_audit_creation_method            fapswitch 2.2
_symmetry_space_group_name_H-M    P1
_symmetry_Int_Tables_number       1
_space_group_crystal_system       triclinic
_cell_length_a                    10.795022
_cell_length_b                    12.973397
_cell_length_c                    11.655642
_cell_angle_alpha                 100.266507
_cell_angle_beta                  93.899978
_cell_angle_gamma                 90.151363
_cell_volume                      1602.31492607

loop_
_atom_site_label
_atom_site_type_symbol
_atom_type_description
_atom_site_fract_x
_atom_site_fract_y
_atom_site_fract_z
_atom_type_partial_charge
C1    C     C_R   0.507290 0.299357 0.477967 0.804882
C2    C     C_R   0.524172 0.860954 0.444649 -0.281625
C3    C     C_R   0.479130 0.032585 0.549755 -0.024773
C4    C     C_R   0.520098 0.968536 0.449371 -0.031099
C5    C     C_R   0.382374 0.399879 0.019707 0.410205
C6    C     C_R   0.617115 0.600562 0.980309 0.412542
C7    C     C_R   0.393677 0.411673 0.144024 -0.048673
C8    C     C_R   0.606088 0.588516 0.855972 -0.059036
C9    C     C_R   0.550304 0.542104 0.157784 0.052680
C10   C     C_R   0.449461 0.458095 0.842220 0.042168
C11   C     C_R   0.542377 0.536070 0.034675 -0.104211
C12   C     C_R   0.496213 0.701230 0.522459 0.804525
C13   C     C_R   0.457209 0.464286 0.965335 -0.106024
C14   C     C_R   0.262691 0.500560 0.500176 0.789596
C15   C     C_R   0.737251 0.499522 0.499723 0.792608
C16   C     C_R   0.133924 0.330189 0.568174 -0.143951
C17   C     C_R   0.865771 0.670192 0.432261 -0.144712
C18   C     C_R   0.071922 0.247432 0.602047 -0.116763
C19   C     C_R   0.927530 0.752636 0.397552 -0.120857
C20   C     C_R   0.943318 0.247269 0.602260 -0.157263
C21   C     C_R   0.055895 0.751716 0.394668 -0.144714
C22   C     C_R   0.876202 0.329602 0.568068 -0.148140
C23   C     C_R   0.487789 0.815530 0.537339 -0.161629
C24   C     C_R   0.122983 0.668657 0.427087 -0.170798
C25   C     C_R   0.937335 0.415515 0.534877 0.068005
C26   C     C_R   0.062298 0.583863 0.463076 0.071095
C27   C     C_R   0.067790 0.415937 0.535203 0.070963
C28   C     C_R   0.931956 0.584064 0.464245 0.071366
C29   C     C_R   0.870885 0.499601 0.499437 -0.191220
C30   C     C_R   0.128938 0.500351 0.499904 -0.186971
C31   C     C_3   0.261578 0.245840 0.997999 -0.313923
C32   C     C_3   0.738036 0.754534 0.001588 -0.315117
C33   C     C_3   0.399258 0.834875 0.741967 -0.373203
C34   C     C_R   0.517634 0.185798 0.464654 -0.170190
C35   C     C_3   0.274262 0.777002 0.708930 -0.319256
C36   C     C_3   0.233087 0.725826 0.808492 -0.811437
C37   C     C_3   0.651939 0.168256 0.286143 -0.363826
C38   C     C_3   0.787375 0.132226 0.296107 -0.341960
C39   C     C_3   0.872690 0.195649 0.234721 -0.854055
C40   C     C_3   0.489281 0.929903 0.176400 -0.359117
C41   C     C_3   0.520205 0.085207 0.819667 -0.375343
C42   C     C_R   0.560070 0.013281 0.356233 0.494142
C43   C     C_R   0.446566 0.989220 0.646281 0.485356
C44   C     C_R   0.572710 0.122932 0.369371 -0.011906
C45   C     C_R   0.445971 0.879620 0.639784 -0.006052
C46   C     C_R   0.471308 0.139771 0.552674 -0.274887
Cu1   Cu    Cu3+1 0.509250 0.507730 0.615930 0.924823
Cu2   Cu    Cu3+1 0.490750 0.492270 0.384070 0.923939
H1    H     H_    0.103911 0.815972 0.368014 0.132746
H2    H     H_    0.430640 0.188673 0.625500 0.213051
H3    H     H_    0.384790 0.403826 0.787097 0.185083
H4    H     H_    0.614956 0.596398 0.212903 0.182857
H5    H     H_    0.663976 0.633479 0.810444 0.138001
H6    H     H_    0.335730 0.366727 0.189519 0.140467
H7    H     H_    0.190670 0.268961 0.062168 0.162254
H8    H     H_    0.342924 0.209490 0.038331 0.133704
H9    H     H_    0.218341 0.185182 0.927298 0.212904
H10   H     H_    0.657091 0.790480 0.960151 0.128693
H11   H     H_    0.809545 0.730967 0.938151 0.161966
H12   H     H_    0.895089 0.182387 0.627460 0.129709
H13   H     H_    0.780656 0.815649 0.072155 0.210644
H14   H     H_    0.302707 0.668019 0.829976 0.265649
H15   H     H_    0.221585 0.786097 0.887474 0.237217
H16   H     H_    0.142833 0.684293 0.781544 0.246194
H17   H     H_    0.202487 0.833210 0.687488 0.216119
H18   H     H_    0.280774 0.715246 0.631120 0.222933
H19   H     H_    0.470339 0.784512 0.776113 0.201538
H20   H     H_    0.385035 0.897285 0.818111 0.221963
H21   H     H_    0.840850 0.188244 0.140886 0.253772
H22   H     H_    0.873745 0.279634 0.276714 0.264366
H23   H     H_    0.233808 0.325296 0.567242 0.134499
H24   H     H_    0.968837 0.165896 0.241226 0.240916
H25   H     H_    0.821018 0.141548 0.389588 0.219227
H26   H     H_    0.794190 0.048244 0.256359 0.254391
H27   H     H_    0.612047 0.144250 0.194822 0.197204
H28   H     H_    0.655400 0.254592 0.304468 0.224268
H29   H     H_    0.451275 0.003562 0.152618 0.149689
H30   H     H_    0.415958 0.886693 0.212076 0.170445
H31   H     H_    0.516283 0.879844 0.094966 0.195754
H32   H     H_    0.493184 0.136441 0.900371 0.200648
H33   H     H_    0.585234 0.131157 0.777550 0.177095
H34   H     H_    0.766032 0.675591 0.434622 0.133447
H35   H     H_    0.568552 0.016525 0.846077 0.149662
H36   H     H_    0.123905 0.182788 0.627276 0.148624
H37   H     H_    0.875525 0.817639 0.373244 0.145003
H38   H     H_    0.776197 0.324196 0.566878 0.139364
H39   H     H_    0.222697 0.672669 0.424486 0.137991
H40   H     H_    0.558519 0.811671 0.368621 0.214247
N1    N     N_R   0.523180 0.519350 0.790130 -0.213799
N2    N     N_R   0.476820 0.480650 0.209870 -0.215043
O1    O     O_R   0.506570 0.354460 0.582000 -0.591045
O2    O     O_3   0.702864 0.668442 0.051631 -0.582931
O3    O     O_3   0.595069 0.949861 0.255489 -0.601081
O4    O     O_3   0.412019 0.054342 0.746272 -0.597892
O5    O     O_R   0.493430 0.645540 0.418000 -0.594346
O6    O     O_R   0.490940 0.341410 0.386200 -0.594398
O7    O     O_R   0.509060 0.658590 0.613800 -0.583461
O8    O     O_R   0.327470 0.506520 0.597900 -0.581122
O9    O     O_R   0.672530 0.493480 0.402100 -0.587423
O10   O     O_R   0.311840 0.493460 0.402100 -0.576476
O11   O     O_R   0.688160 0.506540 0.597900 -0.577694
O12   O     O_3   0.296180 0.332394 0.948471 -0.583754

loop_
_geom_bond_atom_site_label_1
_geom_bond_atom_site_label_2
_ccdc_geom_bond_type
Cu1   O11   S    
Cu2   O5    S    
C42   O3    S    
C33   C45   S    
C35   C36   S    
C32   H10   S    
C40   O3    S    
C41   H32   S    
C21   H1    S    
C9    H4    S    
C12   C23   S    
C3    C43   A    
Cu1   O8    S    
C23   C45   A    
C14   O8    A    
C28   C29   A    
C19   C21   A    
C24   C26   A    
C32   H13   S    
C38   C39   S    
C35   H17   S    
C41   H35   S    
C43   O4    S    
C17   H34   S    
C17   C19   A    
Cu1   Cu2   S    
C10   N1    A    
C22   C25   A    
C18   H36   S    
C39   H24   S    
C12   O5    A    
C2    H40   S    
C34   C46   A    
C31   H8    S    
C20   H12   S    
C36   H15   S    
C5    C13   A    
C16   C27   A    
C37   H27   S    
C1    O1    A    
Cu2   N2    S    
C27   C30   A    
Cu1   N1    S    
C16   H23   S    
C42   C44   A    
C14   C30   S    
C36   H14   S    
C10   H3    S    
C1    C34   S    
C15   C29   S    
C25   C29   A    
Cu2   O10   S    
C31   O12   S    
C7    H6    S    
C34   C44   A    
C6    C11   A    
C5    C7    A    
C6    C8    A    
C35   H18   S    
C7    N2    A    
C9    N2    A    
C2    C4    A    
C37   C38   S    
C9    C11   A    
C41   O4    S    
C41   H33   S    
C39   H21   S    
C40   H31   S    
C15   O11   A    
C43   C45   A    
C12   O7    A    
C37   H28   S    
C20   C22   A    
C26   C30   A    
C40   H30   S    
C3    C4    A    
C33   H19   S    
C38   H26   S    
Cu2   O9    S    
C5    O12   S    
Cu2   O6    S    
C17   C28   A    
Cu1   O1    S    
C15   O9    A    
C19   H37   S    
C10   C13   A    
C8    H5    S    
C14   O10   A    
C25   C27   A    
C46   H2    S    
C3    C46   A    
C26   C28   A    
Cu1   O7    S    
C31   H9    S    
C37   C44   S    
C11   C13   A    
C32   O2    S    
C4    C42   A    
C1    O6    A    
C6    O2    S    
C33   C35   S    
C39   H22   S    
C18   C20   A    
C22   H38   S    
C24   H39   S    
C16   C18   A    
C21   C24   A    
C2    C23   A    
C40   H29   S    
C8    N1    A    
C32   H11   S    
C31   H7    S    
C36   H16   S    
C33   H20   S    
C38   H25   S    
