data_mof_unit_49977.cif
_audit_creation_date              2012-12-11T17:25:04-0500
_audit_creation_method            fapswitch 2.2
_symmetry_space_group_name_H-M    P1
_symmetry_Int_Tables_number       1
_space_group_crystal_system       triclinic
_cell_length_a                    6.954356
_cell_length_b                    20.545942
_cell_length_c                    24.467498
_cell_angle_alpha                 90.163174
_cell_angle_beta                  90.495096
_cell_angle_gamma                 89.531495
_cell_volume                      3495.74809529

loop_
_atom_site_label
_atom_site_type_symbol
_atom_type_description
_atom_site_fract_x
_atom_site_fract_y
_atom_site_fract_z
_atom_type_partial_charge
O1    O     O_R   0.507280 0.423750 0.460310 -0.536626
O2    O     O_R   0.171030 0.555650 0.437630 -0.528721
O3    O     O_R   0.004080 0.576250 0.539690 -0.539944
C1    C     C_R   0.338969 0.575645 0.421783 0.708654
O4    O     O_R   0.177330 0.422980 0.453960 -0.538922
O5    O     O_R   0.010420 0.442640 0.556140 -0.531550
C2    C     C_R   0.346060 0.398967 0.443467 0.701451
O6    O     O_R   0.500930 0.557360 0.443860 -0.538834
O7    O     O_3   0.340310 0.506600 0.533500 -0.362703
V1    V     V_3+5 0.064140 0.498780 0.493780 1.472253
O8    O     O_R   0.680890 0.444350 0.562370 -0.531790
C3    C     C_R   0.850575 0.424457 0.578146 0.725725
O9    O     O_R   0.674590 0.577020 0.546040 -0.532558
C4    C     C_R   0.842809 0.600736 0.557067 0.697715
V2    V     V_3+5 0.564550 0.501220 0.506220 1.479311
O10   O     O_3   0.838250 0.493400 0.466500 -0.368596
C5    C     C_R   0.973607 0.838259 0.910694 -0.054977
C6    C     C_R   0.846383 0.661361 0.589576 -0.054659
C7    C     C_R   0.021404 0.721891 0.906102 -0.084691
C8    C     C_R   0.033724 0.780250 0.934833 -0.168632
C9    C     C_R   0.913414 0.838100 0.855736 -0.196026
C10   C     C_R   0.908307 0.779337 0.824393 0.068039
C11   C     C_R   0.950169 0.719865 0.851791 0.100242
C12   C     C_R   0.867446 0.777897 0.766847 0.041005
C13   C     C_R   0.857984 0.716889 0.738309 0.044991
C14   C     C_R   0.853375 0.658832 0.769933 -0.102183
C15   C     C_R   0.915771 0.659683 0.825105 -0.094000
C16   C     C_R   0.837884 0.835706 0.736647 -0.167085
C17   C     C_R   0.803846 0.834423 0.680699 -0.193025
C18   C     C_R   0.810757 0.776115 0.651646 0.125564
C19   C     C_R   0.846879 0.716676 0.679339 0.118454
C20   C     C_R   0.784656 0.777160 0.594688 -0.157105
C21   C     C_R   0.797344 0.720003 0.564203 -0.169653
C22   C     C_R   0.878094 0.660170 0.646480 -0.134848
H1    H     H_    0.927279 0.614834 0.664102 0.101014
H2    H     H_    0.770429 0.721589 0.520538 0.111473
H3    H     H_    0.778725 0.880085 0.659594 0.128209
H4    H     H_    0.068967 0.678404 0.927156 0.168047
H5    H     H_    0.086390 0.779896 0.976654 0.140188
H6    H     H_    0.872243 0.884593 0.838927 0.096803
H7    H     H_    0.840274 0.883368 0.754945 0.126335
H8    H     H_    0.752657 0.822388 0.573670 0.118684
H9    H     H_    0.662242 0.238803 0.815871 0.161098
C23   C     C_R   0.759050 0.287285 0.743862 -0.165333
H10   H     H_    0.628849 0.316375 0.740599 0.159128
C24   C     C_R   0.905018 0.294044 0.705343 0.105510
C25   C     C_R   0.074324 0.255917 0.710416 0.068487
C26   C     C_R   0.096548 0.211265 0.754595 -0.027144
C27   C     C_R   0.945129 0.204821 0.792996 0.076668
C28   C     C_R   0.778565 0.243120 0.786953 -0.176273
C29   C     C_1   0.879952 0.340689 0.660936 0.042496
C30   C     C_1   0.954206 0.158739 0.838377 0.059798
C31   C     C_1   0.962532 0.120616 0.876285 -0.139827
C32   C     C_1   0.863617 0.379177 0.623486 -0.134221
H11   H     H_    0.657436 0.734785 0.317993 0.161334
C33   C     C_R   0.568947 0.784563 0.245005 -0.174979
H12   H     H_    0.701925 0.811503 0.242893 0.153232
C34   C     C_R   0.425578 0.793803 0.205213 0.106909
C35   C     C_R   0.252692 0.758298 0.208926 0.067613
C36   C     C_R   0.224673 0.713688 0.252777 -0.028960
C37   C     C_R   0.373234 0.704926 0.292641 0.077850
C38   C     C_R   0.543152 0.740777 0.288006 -0.178578
C39   C     C_1   0.456243 0.840436 0.161045 0.042070
C40   C     C_1   0.358353 0.658881 0.338093 0.060420
C41   C     C_1   0.347671 0.620800 0.376063 -0.144464
C42   C     C_1   0.474719 0.878984 0.123706 -0.136900
C43   C     C_R   0.473144 0.161644 0.088969 -0.044090
C44   C     C_R   0.351857 0.338362 0.411227 -0.050576
C45   C     C_R   0.536816 0.276878 0.094969 -0.152563
C46   C     C_R   0.527440 0.219786 0.064408 -0.163153
C47   C     C_R   0.428827 0.160797 0.144919 -0.213876
C48   C     C_R   0.440920 0.218315 0.177472 0.087187
C49   C     C_R   0.495583 0.276637 0.151020 0.132568
C50   C     C_R   0.403599 0.219987 0.235158 0.058124
C51   C     C_R   0.421531 0.279982 0.265068 0.056052
C52   C     C_R   0.475613 0.336271 0.236270 -0.181518
C53   C     C_R   0.511313 0.334447 0.180580 -0.190549
C54   C     C_R   0.349690 0.163688 0.263970 -0.184837
C55   C     C_R   0.314166 0.165505 0.319674 -0.196668
C56   C     C_R   0.329811 0.223324 0.349229 0.134631
C57   C     C_R   0.384184 0.281660 0.322750 0.087923
C58   C     C_R   0.288814 0.223083 0.405300 -0.155060
C59   C     C_R   0.298049 0.280197 0.435844 -0.155868
C60   C     C_R   0.395983 0.339203 0.355270 -0.211933
H13   H     H_    0.553107 0.379013 0.160409 0.134754
H14   H     H_    0.433883 0.385693 0.338433 0.098453
H15   H     H_    0.261720 0.279153 0.478814 0.134894
H16   H     H_    0.272585 0.120926 0.339862 0.126293
H17   H     H_    0.579348 0.321349 0.074815 0.125736
H18   H     H_    0.563992 0.220833 0.021458 0.114365
H19   H     H_    0.390487 0.114333 0.161724 0.094547
H20   H     H_    0.492546 0.383006 0.255599 0.129858
H21   H     H_    0.332916 0.116943 0.244644 0.124682
H22   H     H_    0.246582 0.178598 0.425482 0.123239
O11   O     O_R   0.323320 0.942780 0.056240 -0.531251
O12   O     O_R   0.647300 0.077050 0.046060 -0.540690
O13   O     O_R   0.813840 0.057330 0.943840 -0.537299
C61   C     C_R   0.478659 0.101070 0.056667 0.689854
O14   O     O_R   0.653250 0.944380 0.062400 -0.531876
O15   O     O_R   0.819830 0.923720 0.960300 -0.533701
C62   C     C_R   0.485179 0.924450 0.078270 0.723793
O16   O     O_R   0.317330 0.076390 0.039790 -0.538344
O17   O     O_3   0.483830 0.993470 0.966560 -0.365382
V3    V     V_3+5 0.760140 0.001210 0.006210 1.460978
O18   O     O_R   0.149290 0.922840 0.953850 -0.538442
C63   C     C_R   0.980788 0.899118 0.942926 0.706145
O19   O     O_R   0.143340 0.055500 0.937510 -0.528226
C64   C     C_R   0.973781 0.075510 0.921807 0.711839
V4    V     V_3+5 0.259690 0.998600 0.993650 1.471969
O20   O     O_3   0.986130 0.006520 0.033440 -0.367202
C65   C     C_2   0.929776 0.597026 0.855384 0.363112
H23   H     H_    0.001516 0.555467 0.836903 0.048605
O21   O     O_2   0.853888 0.590563 0.899838 -0.512296
I1    I     I_    0.296793 0.268822 0.651370 -0.495170
C66   C     C_2   0.277088 0.172035 0.759646 0.356152
H24   H     H_    0.367326 0.163599 0.724456 0.102947
O22   O     O_2   0.329970 0.149290 0.803344 -0.535917
I2    I     I_    0.033529 0.775210 0.148285 -0.479678
C67   C     C_2   0.041212 0.676848 0.255897 0.357048
H25   H     H_    0.949992 0.671269 0.220153 0.108489
O23   O     O_2   0.987173 0.652717 0.298567 -0.537244
C68   C     C_2   0.748689 0.600206 0.749945 0.371503
H26   H     H_    0.796700 0.551634 0.761000 0.035171
O24   O     O_2   0.602284 0.605987 0.722379 -0.520466

loop_
_geom_bond_atom_site_label_1
_geom_bond_atom_site_label_2
_ccdc_geom_bond_type
C13   C19   A    
C25   I1    S    
C59   H15   S    
C58   H22   S    
C4    C6    S    
O2    C1    A    
C7    C8    A    
C1    O6    A    
C21   H2    S    
C23   H10   S    
C14   C15   A    
C9    C10   A    
C16   C17   A    
C60   H14   S    
C45   C46   A    
O5    C3    A    
C1    C41   S    
C56   C57   A    
C54   H21   S    
V2    O10   S    
H11   C38   S    
C16   H7    S    
O15   V3    S    
C5    C8    A    
C33   H12   S    
C36   C67   S    
C22   H1    S    
C43   C61   S    
C2    C44   S    
O13   C64   A    
O8    V2    S    
C65   H23   S    
C66   O22   D    
O12   C61   A    
O19   C64   A    
C45   C49   A    
O1    V2    S    
C11   C15   A    
O7    V1    S    
C43   C47   A    
O14   V3    S    
C39   C42   T    
C53   H13   S    
C35   C36   A    
O9    C4    A    
O19   V4    S    
C42   C62   S    
C46   H18   S    
C45   H17   S    
C55   H16   S    
C23   C24   A    
C67   O23   D    
C50   C51   A    
C44   C60   A    
C12   C13   A    
C56   C58   A    
O11   V4    S    
O4    C2    A    
C8    H5    S    
C54   C55   A    
C51   C57   A    
C13   C14   A    
C61   O16   A    
C24   C29   S    
C5    C9    A    
C36   C37   A    
C37   C40   S    
C7    C11   A    
C51   C52   A    
C17   C18   A    
C7    H4    S    
C25   C26   A    
C67   H25   S    
C27   C30   S    
C19   C22   A    
C65   O21   D    
C52   C53   A    
C6    C22   A    
O3    C4    A    
C52   H20   S    
C26   C66   S    
C48   C50   A    
C26   C27   A    
O14   C62   A    
C27   C28   A    
C35   I2    S    
O12   V3    S    
C33   C38   A    
C68   O24   D    
O2    V1    S    
C57   C60   A    
C30   C31   T    
V3    O20   S    
C23   C28   A    
C34   C39   S    
O18   V4    S    
C24   C25   A    
C49   C53   A    
O1    C2    A    
C44   C59   A    
C12   C16   A    
C48   C49   A    
O5    V1    S    
O8    C3    A    
H9    C28   S    
O6    V2    S    
O18   C63   A    
O15   C63   A    
O17   V4    S    
C43   C46   A    
C20   C21   A    
C29   C32   T    
O9    V2    S    
C34   C35   A    
O4    V1    S    
O3    V1    S    
V1    O10   S    
C5    C63   S    
C40   C41   T    
C18   C20   A    
C31   C64   S    
C66   H24   S    
C18   C19   A    
C9    H6    S    
C33   C34   A    
C10   C12   A    
O7    V2    S    
C37   C38   A    
C6    C21   A    
O13   V3    S    
C15   C65   S    
C55   C56   A    
C47   C48   A    
C47   H19   S    
C58   C59   A    
C50   C54   A    
C17   H3    S    
O17   V3    S    
C20   H8    S    
C10   C11   A    
O16   V4    S    
C14   C68   S    
C68   H26   S    
V4    O20   S    
C3    C32   S    
O11   C62   A    
