data_mof_unit_8484.cif
_audit_creation_date              2012-12-11T17:17:00-0500
_audit_creation_method            fapswitch 2.2
_symmetry_space_group_name_H-M    P1
_symmetry_Int_Tables_number       1
_space_group_crystal_system       triclinic
_cell_length_a                    6.993052
_cell_length_b                    13.348635
_cell_length_c                    14.751352
_cell_angle_alpha                 98.947197
_cell_angle_beta                  90.161251
_cell_angle_gamma                 90.416093
_cell_volume                      1360.20278017

loop_
_atom_site_label
_atom_site_type_symbol
_atom_type_description
_atom_site_fract_x
_atom_site_fract_y
_atom_site_fract_z
_atom_type_partial_charge
O1    O     O_R   0.354890 0.151580 0.148210 -0.532401
O2    O     O_R   0.645110 0.848420 0.851790 -0.532401
O3    O     O_R   0.682370 0.152980 0.336770 -0.551431
O4    O     O_R   0.317630 0.847020 0.663230 -0.551430
O5    O     O_R   0.854980 0.348430 0.351800 -0.535479
O6    O     O_R   0.145020 0.651570 0.648200 -0.535479
C1    C     C_R   0.513610 0.130493 0.365364 0.680107
C2    C     C_R   0.486389 0.869506 0.634636 0.680108
O7    O     O_R   0.684450 0.139580 0.148000 -0.538863
O8    O     O_R   0.315550 0.860420 0.852000 -0.538863
O9    O     O_R   0.857080 0.334940 0.161680 -0.527196
O10   O     O_R   0.142920 0.665060 0.838320 -0.527196
C3    C     C_R   0.515213 0.112819 0.114140 0.751686
C4    C     C_R   0.484786 0.887181 0.885860 0.751686
O11   O     O_R   0.352790 0.165070 0.338330 -0.536810
O12   O     O_R   0.647210 0.834930 0.661670 -0.536810
O13   O     O_3   0.522170 0.314120 0.254710 -0.367476
O14   O     O_3   0.477830 0.685880 0.745290 -0.367476
V1    V     V_3+5 0.796120 0.238110 0.249130 1.421883
V2    V     V_3+5 0.203880 0.761890 0.750870 1.421883
O15   O     O_R   0.186930 0.347040 0.163240 -0.540523
O16   O     O_R   0.813070 0.652960 0.836760 -0.540523
C5    C     C_R   0.018300 0.368245 0.133961 0.735590
C6    C     C_R   0.981700 0.631755 0.866039 0.735591
O17   O     O_R   0.184850 0.360440 0.352010 -0.542174
O18   O     O_R   0.815150 0.639560 0.647990 -0.542174
C7    C     C_R   0.016271 0.387257 0.385892 0.726265
C8    C     C_R   0.983729 0.612743 0.614108 0.726266
V3    V     V_3+5 0.296410 0.261900 0.250880 1.430076
V4    V     V_3+5 0.703590 0.738100 0.749120 1.430076
O19   O     O_3   0.020490 0.185890 0.245290 -0.376359
O20   O     O_3   0.979510 0.814110 0.754710 -0.376359
C9    C     C_1   0.005700 0.466908 0.466353 -0.184037
C10   C     C_1   0.994300 0.533092 0.533647 -0.184038
C11   C     C_3   0.131793 0.572420 0.017439 0.150124
C12   C     C_3   0.868207 0.427581 0.982562 0.150125
C13   C     C_3   0.969359 0.555001 0.083710 -0.067629
C14   C     C_3   0.030641 0.444999 0.916290 -0.067629
C15   C     C_3   0.008685 0.438898 0.064489 -0.135009
C16   C     C_3   0.991315 0.561102 0.935511 -0.135011
C17   C     C_3   0.170569 0.457413 0.998658 0.146960
C18   C     C_3   0.829431 0.542588 0.001342 0.146959
C19   C     C_3   0.371627 0.966489 0.432836 -0.168684
C20   C     C_3   0.628373 0.033511 0.567164 -0.168685
C21   C     C_3   0.542975 0.904058 0.461968 -0.203350
C22   C     C_3   0.457025 0.095942 0.538032 -0.203350
H1    H     H_    0.577337 0.824544 0.433397 0.114926
H2    H     H_    0.422663 0.175456 0.566603 0.114924
H3    H     H_    0.264230 0.939501 0.378812 0.137819
H4    H     H_    0.735769 0.060499 0.621188 0.137819
C23   C     C_3   0.495148 0.939696 0.564184 -0.090141
C24   C     C_3   0.504852 0.060304 0.435816 -0.090141
C25   C     C_3   0.328079 0.001366 0.535059 0.274831
C26   C     C_3   0.671921 0.998635 0.464941 0.274830
C27   C     C_1   0.504508 0.033143 0.033677 -0.187935
C28   C     C_1   0.495492 0.966856 0.966323 -0.187935
C29   C     C_R   0.954183 0.618491 0.177304 0.100194
C30   C     C_R   0.825150 0.699256 0.193747 -0.130507
C31   C     C_R   0.820061 0.760650 0.279278 -0.136702
C32   C     C_R   0.945017 0.743068 0.349145 -0.095252
C33   C     C_R   0.076994 0.664470 0.332888 -0.126321
C34   C     C_R   0.082329 0.602686 0.247281 -0.157373
H5    H     H_    0.731464 0.717462 0.140555 0.148562
H6    H     H_    0.720073 0.822580 0.290284 0.111030
H7    H     H_    0.941443 0.790872 0.415439 0.130467
H8    H     H_    0.176332 0.651968 0.386338 0.112908
H9    H     H_    0.188855 0.543829 0.235247 0.108842
C35   C     C_R   0.045815 0.381510 0.822696 0.100195
C36   C     C_R   0.174856 0.300748 0.806250 -0.130506
C37   C     C_R   0.179942 0.239355 0.720719 -0.136704
C38   C     C_R   0.054978 0.256934 0.650855 -0.095249
C39   C     C_R   0.922994 0.335529 0.667113 -0.126320
C40   C     C_R   0.917661 0.397312 0.752721 -0.157375
H10   H     H_    0.268549 0.282544 0.859440 0.148560
H11   H     H_    0.279934 0.177426 0.709712 0.111030
H12   H     H_    0.058550 0.209130 0.584560 0.130466
H13   H     H_    0.823650 0.348029 0.613665 0.112907
H14   H     H_    0.811130 0.456168 0.764758 0.108843
N1    N     N_3   0.267519 0.656353 0.036453 -0.655151
H15   H     H_    0.311559 0.661209 0.104719 0.224354
H16   H     H_    0.192996 0.723178 0.032731 0.228865
N2    N     N_3   0.732480 0.343647 0.963547 -0.655150
H17   H     H_    0.688440 0.338791 0.895282 0.224353
H18   H     H_    0.807004 0.276822 0.967270 0.228865
N3    N     N_3   0.351604 0.406259 0.997460 -0.655198
H19   H     H_    0.427952 0.430055 0.944320 0.241328
H20   H     H_    0.420630 0.429779 0.059976 0.260420
N4    N     N_3   0.648396 0.593741 0.002541 -0.655199
H21   H     H_    0.572048 0.569946 0.055681 0.241330
H22   H     H_    0.579370 0.570222 0.940025 0.260420
N5    N     N_3   0.137002 0.002930 0.574170 -0.666571
H23   H     H_    0.150261 0.018796 0.645468 0.219169
H24   H     H_    0.079874 0.929694 0.558606 0.252170
N6    N     N_3   0.862998 0.997071 0.425831 -0.666571
H25   H     H_    0.849741 0.981206 0.354532 0.219168
H26   H     H_    0.920126 0.070306 0.441395 0.252170

loop_
_geom_bond_atom_site_label_1
_geom_bond_atom_site_label_2
_ccdc_geom_bond_type
C4    C28   S    
C27   C28   T    
O13   V3    S    
C12   C18   S    
O4    C2    A    
V1    O19   S    
C29   C34   A    
C15   C17   S    
N3    H19   S    
C7    C9    S    
O9    V1    S    
C31   H6    S    
C34   H9    S    
C11   C13   S    
O7    V1    S    
C1    C24   S    
O3    C1    A    
C38   H12   S    
C19   C24   S    
C21   C23   S    
O12   V4    S    
C22   C24   S    
C11   N1    S    
C13   C18   S    
O7    C3    A    
O13   V1    S    
O5    C7    A    
C33   H8    S    
C19   C25   S    
O6    C8    A    
C12   N2    S    
C35   C36   A    
C25   N5    S    
C40   H14   S    
O3    V1    S    
C37   C38   A    
O14   V4    S    
V4    O20   S    
C16   C18   S    
C8    C10   S    
C31   C32   A    
C2    O12   A    
C36   C37   A    
O2    C4    A    
C24   C26   S    
O11   V3    S    
C21   H1    S    
O17   V3    S    
C22   H2    S    
N3    H20   S    
C14   C17   S    
O8    C4    A    
O8    V2    S    
N5    H23   S    
N1    H16   S    
C19   H3    S    
C1    O11   A    
C20   C22   S    
C30   C31   A    
O15   V3    S    
C32   C33   A    
C23   C25   S    
C39   H13   S    
N5    H24   S    
O10   V2    S    
O1    V3    S    
C9    C10   T    
C36   H10   S    
N6    H26   S    
C19   C21   S    
C2    C23   S    
C20   C23   S    
N4    H22   S    
C21   C26   S    
O18   V4    S    
N6    H25   S    
N2    H18   S    
O15   C5    A    
O16   C6    A    
O1    C3    A    
O6    V2    S    
V2    O20   S    
C20   H4    S    
C30   H5    S    
O16   V4    S    
C12   C15   S    
C14   C35   S    
C39   C40   A    
C32   H7    S    
O5    V1    S    
O17   C7    A    
C17   N3    S    
O10   C6    A    
O18   C8    A    
O2    V4    S    
C12   C14   S    
C11   C16   S    
C35   C40   A    
C38   C39   A    
V3    O19   S    
C14   C16   S    
C29   C30   A    
C5    C15   S    
C22   C25   S    
O9    C5    A    
C6    C16   S    
O14   V2    S    
C33   C34   A    
C11   C17   S    
C26   N6    S    
N1    H15   S    
O4    V2    S    
C20   C26   S    
C18   N4    S    
N4    H21   S    
C13   C15   S    
N2    H17   S    
C37   H11   S    
C13   C29   S    
C3    C27   S    
