data_mof_unit_64639.cif
_audit_creation_date              2012-12-10T19:40:09-0500
_audit_creation_method            fapswitch 2.2
_symmetry_space_group_name_H-M    P1
_symmetry_Int_Tables_number       1
_space_group_crystal_system       triclinic
_cell_length_a                    30.785791
_cell_length_b                    21.643489
_cell_length_c                    21.634715
_cell_angle_alpha                 90.17984
_cell_angle_beta                  135.372688
_cell_angle_gamma                 89.723568
_cell_volume                      10126.6382202

loop_
_atom_site_label
_atom_site_type_symbol
_atom_type_description
_atom_site_fract_x
_atom_site_fract_y
_atom_site_fract_z
_atom_type_partial_charge
C1    C     C_R   0.120161 0.505087 0.120223 0.891949
C2    C     C_3   0.577712 0.785293 0.172276 -0.483141
C3    C     C_R   0.998610 0.314412 0.997924 -0.105625
C4    C     C_R   0.498722 0.185301 0.998349 -0.088165
C5    C     C_R   0.498610 0.814413 0.997925 -0.105594
C6    C     C_3   0.907118 0.936802 0.120524 -0.499704
C7    C     C_3   0.407035 0.436915 0.120443 -0.499532
C8    C     C_R   0.956428 0.717462 0.917910 -0.215700
C9    C     C_R   0.962548 0.282168 0.917800 -0.214926
C10   C     C_R   0.455772 0.217421 0.918012 -0.215901
C11   C     C_R   0.462527 0.782169 0.917797 -0.214942
C12   C     C_R   0.956300 0.782215 0.917883 -0.219831
C13   C     C_R   0.220281 0.523115 0.274024 0.107304
C14   C     C_R   0.962140 0.217408 0.917755 -0.220216
C15   C     C_R   0.455650 0.282173 0.917981 -0.219668
C16   C     C_R   0.462119 0.717409 0.917752 -0.220210
C17   C     C_R   0.999767 0.814407 0.998125 -0.100247
C18   C     C_R   0.999268 0.185321 0.998045 -0.091393
C19   C     C_R   0.499750 0.314378 0.998091 -0.101210
C20   C     C_R   0.499268 0.685322 0.998045 -0.091428
C21   C     C_R   0.041287 0.780722 0.075229 0.133665
C22   C     C_R   0.034564 0.218864 0.075065 0.133293
C23   C     C_R   0.541891 0.280680 0.075076 0.134377
C24   C     C_R   0.720279 0.023060 0.274052 0.107436
C25   C     C_R   0.534584 0.718865 0.075068 0.133303
C26   C     C_3   0.594512 0.580528 0.408808 -0.395484
C27   C     C_3   0.572089 0.647474 0.386417 -0.826990
C28   C     C_3   0.094455 0.080606 0.408742 -0.395455
C29   C     C_3   0.071972 0.147532 0.386296 -0.827002
C30   C     C_3   0.192187 0.546193 0.075662 -0.294722
C31   C     C_3   0.167936 0.611781 0.062455 -0.890387
C32   C     C_3   0.692180 0.046373 0.075725 -0.294568
C33   C     C_3   0.667914 0.111938 0.062607 -0.890805
C34   C     C_2   0.299973 0.452371 0.193672 0.854222
C35   C     C_R   0.186120 0.516652 0.185132 -0.159975
C36   C     C_2   0.799964 0.952517 0.193616 0.854221
C37   C     C_R   0.686119 0.016667 0.185150 -0.160046
C38   C     C_R   0.218644 0.517645 0.161172 0.107417
C39   C     C_R   0.718642 0.017739 0.161194 0.107321
C40   C     C_R   0.279726 0.495240 0.223559 -0.130290
C41   C     C_R   0.779725 0.995335 0.223553 -0.130201
C42   C     C_R   0.313487 0.500363 0.313541 -0.167056
C43   C     C_R   0.620161 0.005091 0.120225 0.891921
C44   C     C_R   0.813485 0.000371 0.313542 -0.167013
C45   C     C_R   0.283874 0.519655 0.337436 0.101254
C46   C     C_R   0.783873 0.019598 0.337462 0.101155
C47   C     C_3   0.284897 0.488780 0.400363 -0.528191
C48   C     C_3   0.784894 0.988649 0.400350 -0.528186
C49   C     C_3   0.214861 0.492713 0.329893 -0.430495
C50   C     C_3   0.714857 0.992583 0.329880 -0.430418
C51   C     C_R   0.999954 0.619908 0.999974 0.866785
C52   C     C_R   0.999851 0.380004 0.999734 0.892176
C53   C     C_R   0.499968 0.119898 0.999989 0.866743
C54   C     C_3   0.093458 0.785185 0.172771 -0.479209
C55   C     C_R   0.499851 0.880004 0.999734 0.892144
C56   C     C_R   0.782633 0.451331 0.807709 0.100060
C57   C     C_R   0.282634 0.951325 0.807695 0.100056
C58   C     C_R   0.814168 0.499626 0.811713 -0.078481
C59   C     C_R   0.314169 0.999628 0.811713 -0.078428
C60   C     C_R   0.781809 0.543346 0.743740 -0.213560
C61   C     C_R   0.281810 0.043357 0.743751 -0.213610
C62   C     C_R   0.717452 0.543529 0.679518 -0.226668
C63   C     C_R   0.217453 0.043538 0.679528 -0.226645
C64   C     C_R   0.686149 0.498665 0.682319 -0.091855
C65   C     C_3   0.078576 0.214071 0.172328 -0.505015
C66   C     C_R   0.186149 0.998665 0.682317 -0.091859
C67   C     C_R   0.719147 0.450491 0.742973 0.149763
C68   C     C_R   0.219148 0.950484 0.742958 0.149756
C69   C     C_3   0.715911 0.426567 0.804309 -0.491405
C70   C     C_3   0.215911 0.926540 0.804287 -0.491383
C71   C     C_3   0.786114 0.427691 0.875890 -0.477698
C72   C     C_3   0.286115 0.927664 0.875869 -0.477704
C73   C     C_R   0.999782 0.000671 0.879778 0.877586
C74   C     C_R   0.499783 0.500673 0.879778 0.877647
C75   C     C_R   0.000045 0.879990 0.999780 0.886028
C76   C     C_3   0.594908 0.285111 0.172474 -0.477734
C77   C     C_R   0.999851 0.119919 0.999816 0.876351
C78   C     C_R   0.500043 0.379981 0.999756 0.886068
C79   C     C_R   0.499851 0.619919 0.999815 0.876372
C80   C     C_R   0.879926 0.500570 0.879499 0.877842
C81   C     C_R   0.379926 0.000571 0.879499 0.877746
C82   C     C_R   0.000639 0.001625 0.120582 0.894229
C83   C     C_R   0.500638 0.501627 0.120581 0.894349
C84   C     C_R   0.501840 0.499831 0.381584 0.886841
C85   C     C_R   0.001847 0.999831 0.381591 0.886853
C86   C     C_R   0.379763 0.499917 0.380273 0.932349
C87   C     C_3   0.578624 0.714072 0.172337 -0.504970
C88   C     C_R   0.879763 0.999918 0.380273 0.932393
C89   C     C_R   0.500253 0.500018 0.620574 0.868580
C90   C     C_R   0.000253 0.000018 0.620574 0.868598
C91   C     C_R   0.620216 0.499824 0.620026 0.859131
C92   C     C_R   0.120216 0.999824 0.620025 0.859148
C93   C     C_R   0.983951 0.947774 0.766167 0.104013
C94   C     C_R   0.483918 0.447786 0.766133 0.104016
C95   C     C_R   0.000453 0.000900 0.814886 -0.073564
C96   C     C_R   0.500453 0.500901 0.814886 -0.073610
C97   C     C_R   0.027264 0.050556 0.810662 -0.220881
C98   C     C_3   0.092354 0.713981 0.172823 -0.499727
C99   C     C_R   0.527294 0.550541 0.810691 -0.220886
C100  C     C_R   0.528324 0.550250 0.747411 -0.213180
C101  C     C_R   0.028295 0.050265 0.747384 -0.213159
C102  C     C_R   0.503926 0.499494 0.690453 -0.108118
C103  C     C_R   0.003928 0.999495 0.690455 -0.108152
C104  C     C_R   0.039933 0.718841 0.075426 0.125765
C105  C     C_R   0.033302 0.280760 0.074872 0.138064
C106  C     C_R   0.540567 0.218799 0.075321 0.125008
C107  C     C_R   0.533323 0.780760 0.074876 0.138050
C108  C     C_R   0.485823 0.446991 0.704620 0.153853
C109  C     C_3   0.077664 0.285292 0.172267 -0.483094
C110  C     C_R   0.985856 0.946981 0.704654 0.153859
C111  C     C_3   0.427436 0.410577 0.641000 -0.480057
C112  C     C_3   0.927492 0.910529 0.641057 -0.479955
C113  C     C_3   0.925428 0.911559 0.709116 -0.502119
C114  C     C_3   0.425371 0.411609 0.709059 -0.502005
C115  C     C_R   0.973352 0.954820 0.190384 0.099777
C116  C     C_R   0.473289 0.454861 0.190323 0.100063
C117  C     C_R   0.003921 0.000663 0.189469 -0.118683
C118  C     C_R   0.503915 0.500666 0.189464 -0.118851
C119  C     C_R   0.045727 0.039158 0.262871 -0.247233
C120  C     C_3   0.593818 0.213906 0.172546 -0.501214
C121  C     C_R   0.545756 0.539120 0.262905 -0.247275
C122  C     C_R   0.548484 0.538652 0.330352 0.151229
C123  C     C_R   0.048461 0.038690 0.330325 0.151244
C124  C     C_R   0.508207 0.498499 0.321867 -0.150827
C125  C     C_R   0.008225 0.998499 0.321883 -0.150856
C126  C     C_R   0.475360 0.453818 0.255708 0.104345
C127  C     C_R   0.975422 0.953783 0.255769 0.104321
C128  C     C_3   0.408763 0.436723 0.192065 -0.428897
C129  C     C_3   0.908841 0.936634 0.192140 -0.428799
C130  C     C_R   0.998719 0.685329 0.998337 -0.089190
H1    H     H_    0.923408 0.692763 0.856067 0.152365
H2    H     H_    0.306145 0.078996 0.743213 0.148266
H3    H     H_    0.692452 0.579345 0.629731 0.157054
H4    H     H_    0.192452 0.079359 0.629748 0.157028
H5    H     H_    0.696577 0.379094 0.786595 0.208663
H6    H     H_    0.694530 0.460190 0.815336 0.200304
H7    H     H_    0.196578 0.879066 0.786559 0.208657
H8    H     H_    0.194531 0.960152 0.815324 0.200310
H9    H     H_    0.807293 0.380876 0.899556 0.202683
H10   H     H_    0.805563 0.462071 0.928507 0.219002
H11   H     H_    0.307294 0.880848 0.899521 0.202683
H12   H     H_    0.934429 0.306764 0.855977 0.162252
H13   H     H_    0.305564 0.962034 0.928496 0.219016
H14   H     H_    0.044678 0.090297 0.853334 0.150229
H15   H     H_    0.544732 0.590272 0.853388 0.150245
H16   H     H_    0.546325 0.590024 0.741382 0.169319
H17   H     H_    0.046272 0.090050 0.741332 0.169331
H18   H     H_    0.435455 0.363656 0.629615 0.208074
H19   H     H_    0.389170 0.437054 0.580472 0.193928
H20   H     H_    0.935541 0.863613 0.629702 0.208040
H21   H     H_    0.889208 0.936981 0.580511 0.193928
H22   H     H_    0.932370 0.865251 0.737180 0.199015
H23   H     H_    0.422260 0.192713 0.856264 0.151765
H24   H     H_    0.885902 0.938629 0.688044 0.216859
H25   H     H_    0.432283 0.365297 0.737092 0.199217
H26   H     H_    0.385862 0.438705 0.688002 0.216827
H27   H     H_    0.074398 0.070942 0.266035 0.156520
H28   H     H_    0.574462 0.570875 0.266106 0.156563
H29   H     H_    0.923202 0.806848 0.855937 0.156335
H30   H     H_    0.933916 0.192663 0.856017 0.156457
H31   H     H_    0.422051 0.306791 0.856108 0.156997
H32   H     H_    0.433878 0.692665 0.856011 0.156472
H33   H     H_    0.380717 0.474725 0.183983 0.216386
H34   H     H_    0.434392 0.806766 0.855971 0.162241
H35   H     H_    0.402133 0.389916 0.205176 0.238759
H36   H     H_    0.880770 0.974628 0.184011 0.216524
H37   H     H_    0.902240 0.889832 0.205304 0.238737
H38   H     H_    0.876836 0.973588 0.070464 0.224272
H39   H     H_    0.900801 0.890076 0.093662 0.205727
H40   H     H_    0.376792 0.473741 0.070437 0.224205
H41   H     H_    0.400665 0.390202 0.093514 0.205774
H42   H     H_    0.079158 0.806902 0.202702 0.201122
H43   H     H_    0.057012 0.192913 0.191958 0.193650
H44   H     H_    0.581465 0.306821 0.203541 0.201120
H45   H     H_    0.196458 0.524623 0.347214 0.200362
H46   H     H_    0.557081 0.692914 0.191999 0.193659
H47   H     H_    0.135866 0.804508 0.194271 0.211905
H48   H     H_    0.123816 0.194016 0.204001 0.214018
H49   H     H_    0.636899 0.304433 0.192747 0.211739
H50   H     H_    0.623857 0.694018 0.203979 0.214008
H51   H     H_    0.077868 0.694548 0.203364 0.213054
H52   H     H_    0.055972 0.305269 0.192469 0.209348
H53   H     H_    0.580193 0.194455 0.204218 0.213134
H54   H     H_    0.556041 0.805270 0.192511 0.209360
H55   H     H_    0.133858 0.692151 0.193578 0.200476
H56   H     H_    0.192141 0.446761 0.304299 0.204916
H57   H     H_    0.122280 0.306403 0.203429 0.200253
H58   H     H_    0.634899 0.192071 0.192072 0.200580
H59   H     H_    0.622320 0.806404 0.203407 0.200241
H60   H     H_    0.306968 0.518192 0.458633 0.202618
H61   H     H_    0.302660 0.440526 0.416020 0.206638
H62   H     H_    0.806963 0.018020 0.458653 0.202605
H63   H     H_    0.802657 0.940398 0.415953 0.206669
H64   H     H_    0.526817 0.651356 0.364504 0.273699
H65   H     H_    0.606171 0.676788 0.445636 0.238672
H66   H     H_    0.567180 0.664847 0.333427 0.244395
H67   H     H_    0.696453 0.024449 0.347240 0.200380
H68   H     H_    0.603782 0.565472 0.466253 0.205685
H69   H     H_    0.639629 0.577772 0.429994 0.195437
H70   H     H_    0.026700 0.151373 0.364390 0.273700
H71   H     H_    0.106031 0.176877 0.445487 0.238658
H72   H     H_    0.067040 0.164903 0.333284 0.244392
H73   H     H_    0.103749 0.065557 0.466208 0.205706
H74   H     H_    0.139571 0.077893 0.429920 0.195433
H75   H     H_    0.128589 0.612121 0.055448 0.268816
H76   H     H_    0.205396 0.641339 0.119263 0.254609
H77   H     H_    0.151805 0.631934 0.001796 0.250512
H78   H     H_    0.692136 0.946634 0.304227 0.204870
H79   H     H_    0.229002 0.550897 0.077495 0.225076
H80   H     H_    0.155852 0.516693 0.018096 0.244309
H81   H     H_    0.628559 0.112214 0.055582 0.268701
H82   H     H_    0.705362 0.141472 0.119464 0.254544
H83   H     H_    0.651789 0.132163 0.001985 0.250625
H84   H     H_    0.728995 0.051136 0.077566 0.225131
H85   H     H_    0.655849 0.016898 0.018120 0.244297
H86   H     H_    0.280522 0.411653 0.091935 0.345875
H87   H     H_    0.780523 0.911920 0.091826 0.345885
H88   H     H_    0.806144 0.578977 0.743191 0.148357
O1    O     O_R   0.091640 0.500000 0.143360 -0.627552
O2    O     O_R   0.551700 0.500000 0.143310 -0.628390
O3    O     O_R   0.499940 0.551750 0.408310 -0.624057
O4    O     O_R   0.499940 0.448250 0.408310 -0.597451
O5    O     O_R   0.999940 0.051750 0.408310 -0.624053
O6    O     O_R   0.999940 0.948250 0.408310 -0.597486
O7    O     O_R   0.408380 0.551720 0.408370 -0.630170
O8    O     O_R   0.408380 0.448280 0.408370 -0.570951
O9    O     O_R   0.908380 0.051720 0.408370 -0.630173
O10   O     O_R   0.908380 0.948280 0.408370 -0.571009
O11   O     O_R   0.500050 0.551670 0.591650 -0.624932
O12   O     O_R   0.591640 0.000000 0.143360 -0.627554
O13   O     O_R   0.500050 0.448330 0.591650 -0.626806
O14   O     O_R   0.000050 0.051670 0.591650 -0.624932
O15   O     O_R   0.000050 0.948330 0.591650 -0.626814
O16   O     O_R   0.591610 0.551710 0.591590 -0.627954
O17   O     O_R   0.591610 0.448290 0.591590 -0.623373
O18   O     O_R   0.091610 0.051710 0.591590 -0.627971
O19   O     O_R   0.091610 0.948290 0.591590 -0.623375
O20   O     O_R   0.091570 0.500000 0.039860 -0.619237
O21   O     O_R   0.591570 0.000000 0.039860 -0.619235
O22   O     O_R   0.000030 0.591610 0.051750 -0.620664
O23   O     O_R   0.051710 0.908380 0.051700 -0.620560
O24   O     O_R   0.000030 0.408390 0.051750 -0.623688
O25   O     O_R   0.500030 0.091610 0.051750 -0.620614
O26   O     O_R   0.500030 0.908390 0.051750 -0.623693
O27   O     O_R   0.999970 0.591600 0.948260 -0.630360
O28   O     O_R   0.999970 0.408400 0.948260 -0.618608
O29   O     O_R   0.499970 0.091600 0.948260 -0.630223
O30   O     O_R   0.499970 0.908400 0.948260 -0.618610
O31   O     O_R   0.908410 0.500000 0.960140 -0.622548
O32   O     O_R   0.408410 0.000000 0.960140 -0.622541
O33   O     O_R   0.908350 0.500000 0.856640 -0.625321
O34   O     O_R   0.051710 0.091620 0.051700 -0.624462
O35   O     O_R   0.408350 0.000000 0.856640 -0.625301
O36   O     O_R   0.948280 0.000000 0.856590 -0.627792
O37   O     O_R   0.448280 0.500000 0.856590 -0.627793
O38   O     O_R   0.051720 0.000000 0.960100 -0.618677
O39   O     O_R   0.551720 0.500000 0.960100 -0.618705
O40   O     O_R   0.948270 0.908380 0.948190 -0.624655
O41   O     O_R   0.948270 0.091620 0.948190 -0.623647
O42   O     O_R   0.448270 0.408380 0.948190 -0.624792
O43   O     O_R   0.448270 0.591620 0.948190 -0.623652
O44   O     O_2   0.344586 0.418539 0.246486 -0.627509
O45   O     O_R   0.551710 0.408380 0.051700 -0.620630
O46   O     O_R   0.264273 0.445201 0.104031 -0.838491
O47   O     O_2   0.844535 0.918627 0.246380 -0.627592
O48   O     O_R   0.764297 0.945458 0.103972 -0.838537
O49   O     O_R   0.551710 0.591620 0.051700 -0.624463
O50   O     O_R   0.948260 0.000000 0.039800 -0.621609
O51   O     O_R   0.448260 0.500000 0.039800 -0.621589
O52   O     O_R   0.051700 0.000000 0.143310 -0.628388
Zn1   Zn    Zn3+2 0.000030 0.500000 0.069110 0.939775
Zn2   Zn    Zn3+2 0.500000 0.430940 0.499990 0.985388
Zn3   Zn    Zn3+2 0.000000 0.069060 0.499990 0.946668
Zn4   Zn    Zn3+2 0.000000 0.930940 0.499990 0.985292
Zn5   Zn    Zn3+2 0.500030 0.000000 0.069110 0.939911
Zn6   Zn    Zn3+2 0.999950 0.500000 0.930890 0.949049
Zn7   Zn    Zn3+2 0.499950 0.000000 0.930890 0.949186
Zn8   Zn    Zn3+2 0.930930 0.000000 0.930840 0.946448
Zn9   Zn    Zn3+2 0.430930 0.500000 0.930840 0.946323
Zn10  Zn    Zn3+2 0.069060 0.000000 0.069060 0.950785
Zn11  Zn    Zn3+2 0.569060 0.500000 0.069060 0.950632
Zn12  Zn    Zn3+2 0.500000 0.569060 0.499990 0.946694

loop_
_geom_bond_atom_site_label_1
_geom_bond_atom_site_label_2
_ccdc_geom_bond_type
C109  H52   S    
C7    C116  S    
C72   H13   S    
C66   C68   A    
C37   C43   S    
O50   Zn8   S    
C89   C102  S    
C115  C117  A    
C36   O47   D    
C14   C18   A    
C97   H14   S    
C85   C125  S    
O19   Zn4   S    
C113  H22   S    
C2    H59   S    
C81   O32   A    
C76   H49   S    
C30   H79   S    
C127  C129  S    
C94   C114  S    
C43   O12   A    
C47   C49   S    
C129  H37   S    
C88   O10   A    
C3    C105  A    
C15   C19   A    
C87   H46   S    
C91   O16   A    
C94   C108  A    
C26   C27   S    
C76   C120  S    
C129  H36   S    
O27   Zn6   S    
C34   C40   S    
C111  H19   S    
C83   C118  S    
C59   C81   S    
O3    Zn12  S    
C51   O27   A    
C13   C35   A    
C98   H55   S    
C60   H88   S    
C10   C15   A    
C117  C119  A    
C21   C54   S    
C48   H63   S    
C33   H82   S    
C98   C104  S    
C123  C125  A    
C88   O9    A    
C65   H48   S    
O49   Zn11  S    
C58   C60   A    
C96   C99   A    
C91   O17   A    
C2    C107  S    
C25   C87   S    
C115  C127  A    
O51   Zn9   S    
C60   C62   A    
O18   Zn3   S    
C78   O45   A    
C32   C39   S    
O52   Zn10  S    
C61   C63   A    
O31   Zn1   S    
C62   C64   A    
C28   C123  S    
C61   H2    S    
O8    Zn2   S    
C87   H50   S    
O12   Zn5   S    
C21   C104  A    
C51   C130  S    
C101  H17   S    
C49   H56   S    
O10   Zn4   S    
O16   Zn12  S    
C80   O33   A    
O43   Zn9   S    
C12   C17   A    
O40   Zn8   S    
O26   Zn5   S    
C79   O49   A    
C102  C108  A    
O2    Zn11  S    
C42   C86   S    
C108  C111  S    
C7    C128  S    
C83   O51   A    
C23   C76   S    
O1    Zn1   S    
C74   O37   A    
C119  H27   S    
C93   C110  A    
O35   Zn7   S    
C32   H84   S    
C56   C71   S    
C48   C50   S    
C99   H15   S    
C63   C66   A    
C69   C71   S    
C101  C103  A    
C38   C40   A    
C116  C126  A    
O39   Zn11  S    
C32   H85   S    
O23   Zn10  S    
C90   O14   A    
C36   C41   S    
C6    C129  S    
O20   Zn6   S    
C80   O31   A    
C120  H58   S    
C10   H23   S    
C114  H26   S    
C112  C113  S    
C85   O6    A    
C50   H67   S    
C15   H31   S    
C46   C48   S    
C45   C47   S    
C90   C103  S    
C24   C50   S    
C72   H11   S    
O34   Zn10  S    
C6    H38   S    
C92   O19   A    
C59   C61   A    
C74   C96   S    
C30   C38   S    
C55   O26   A    
C34   O44   D    
C28   H74   S    
C64   C67   A    
C54   H42   S    
C82   C117  S    
C35   C38   A    
C29   H71   S    
O33   Zn6   S    
H86   O46   S    
C31   H76   S    
C39   C41   A    
C69   H5    S    
C100  H16   S    
C77   O34   A    
C1    C35   S    
C33   H83   S    
C57   C72   S    
C71   H9    S    
C44   C46   A    
C16   H32   S    
O17   Zn2   S    
O32   Zn5   S    
C23   C106  A    
C4    C106  A    
C92   O18   A    
C128  H33   S    
C17   C21   A    
C90   O15   A    
C14   H30   S    
C67   C69   S    
C118  C121  A    
C63   H4    S    
O29   Zn7   S    
C19   C78   S    
C19   C23   A    
C9    C14   A    
C53   O29   A    
C22   C65   S    
C31   H77   S    
C75   O23   A    
C52   O24   A    
C73   O38   A    
O37   Zn9   S    
C11   C16   A    
C99   C100  A    
O5    Zn3   S    
C75   O40   A    
C16   C20   A    
C29   H70   S    
O13   Zn2   S    
C8    H1    S    
C100  C102  A    
C24   C37   A    
O30   Zn7   S    
C112  H21   S    
C2    C87   S    
C1    O1    A    
C27   H64   S    
C93   C113  S    
O7    Zn12  S    
C89   O13   A    
C94   C96   A    
C26   H69   S    
C85   O5    A    
C65   C109  S    
C121  C122  A    
C51   O22   A    
C43   O21   A    
C116  C118  A    
C13   C49   S    
O38   Zn10  S    
C68   C70   S    
C3    C9    A    
C70   H8    S    
C69   H6    S    
C121  H28   S    
C103  C110  A    
C8    C130  A    
C128  H35   S    
C79   O43   A    
C41   C44   A    
C112  H20   S    
C27   H65   S    
C73   C95   S    
C57   C68   A    
C122  C124  A    
C22   C105  A    
O25   Zn5   S    
C114  H25   S    
C49   H45   S    
C77   O41   A    
O22   Zn1   S    
C124  C126  A    
C5    C107  A    
C74   O39   A    
O42   Zn9   S    
C105  C109  S    
C28   C29   S    
C126  C128  S    
C29   H72   S    
C20   C79   S    
C65   H43   S    
C18   C22   A    
C28   H73   S    
C36   O48   S    
O14   Zn3   S    
C5    C55   S    
C113  H24   S    
C25   C107  A    
C53   O25   A    
C4    C10   A    
C52   O28   A    
C30   H80   S    
C66   C92   S    
C9    H12   S    
C95   C97   A    
C5    C11   A    
C109  H57   S    
C119  C123  A    
C1    O20   A    
C84   C124  S    
C56   C67   A    
O6    Zn4   S    
O45   Zn11  S    
C54   H47   S    
C82   O52   A    
C84   O3    A    
C24   C46   A    
C58   C80   S    
C98   H51   S    
O28   Zn6   S    
O9    Zn3   S    
C104  C130  A    
O4    Zn2   S    
C34   O46   S    
C37   C39   A    
C84   O4    A    
C111  H18   S    
C3    C52   S    
C13   C45   A    
C83   O2    A    
O36   Zn8   S    
C71   H10   S    
C30   C31   S    
C26   H68   S    
O11   Zn12  S    
C47   H60   S    
C18   C77   S    
C86   O8    A    
O15   Zn4   S    
O21   Zn7   S    
C40   C42   A    
C11   H34   S    
C56   C58   A    
C2    H54   S    
C111  C114  S    
C106  C120  S    
C76   H44   S    
C12   H29   S    
C47   H61   S    
C32   C33   S    
C33   H81   S    
C120  H53   S    
C110  C112  S    
C6    C115  S    
C48   H62   S    
C4    C53   S    
C57   C59   A    
C73   O36   A    
C55   O30   A    
O24   Zn1   S    
C70   C72   S    
C70   H7    S    
C93   C95   A    
H87   O48   S    
C20   C25   A    
C7    H40   S    
C125  C127  A    
C86   O7    A    
C78   O42   A    
C54   C98   S    
O41   Zn8   S    
C82   O50   A    
C27   H66   S    
C26   C122  S    
C64   C91   S    
C89   O11   A    
C7    H41   S    
C44   C88   S    
C62   H3    S    
C42   C45   A    
C31   H75   S    
C97   C101  A    
C81   O35   A    
C8    C12   A    
C17   C75   S    
C6    H39   S    
C50   H78   S    
