data_mof_unit_15796.cif
_audit_creation_date              2012-12-10T17:25:28-0500
_audit_creation_method            fapswitch 2.2
_symmetry_space_group_name_H-M    P1
_symmetry_Int_Tables_number       1
_space_group_crystal_system       triclinic
_cell_length_a                    10.26902
_cell_length_b                    10.867328
_cell_length_c                    23.351005
_cell_angle_alpha                 92.135433
_cell_angle_beta                  81.726761
_cell_angle_gamma                 94.015532
_cell_volume                      2571.47206411

loop_
_atom_site_label
_atom_site_type_symbol
_atom_type_description
_atom_site_fract_x
_atom_site_fract_y
_atom_site_fract_z
_atom_type_partial_charge
C1    C     C_R   0.554115 0.731000 0.496431 0.942517
C2    C     C_R   0.393180 0.574899 0.309905 -0.308548
C3    C     C_R   0.398994 0.592484 0.765493 -0.163179
C4    C     C_R   0.388757 0.593785 0.252009 -0.171448
C5    C     C_R   0.493467 0.541207 0.792815 0.132481
C6    C     C_R   0.489773 0.555441 0.210261 0.154134
C7    C     C_2   0.580912 0.858620 0.507776 -0.390370
C8    C     C_2   0.420743 0.136916 0.498036 -0.420195
C9    C     C_2   0.519532 0.940709 0.482514 0.406374
C10   C     C_2   0.514710 0.065271 0.508574 0.449495
C11   C     C_2   0.926323 0.516183 0.503483 0.566282
C12   C     C_R   0.445980 0.268204 0.503899 0.958556
C13   C     C_2   0.069737 0.483093 0.498885 0.556810
C14   C     C_R   0.500321 0.501081 0.610627 0.886037
C15   C     C_R   0.500428 0.503559 0.389369 0.894675
C16   C     C_R   0.383637 0.496561 0.127247 0.496062
C17   C     C_R   0.574659 0.632902 0.877435 0.566182
C18   C     C_R   0.568546 0.644753 0.117732 0.584970
C19   C     C_R   0.386568 0.488291 0.887663 0.490668
C20   C     C_R   0.568011 0.648317 0.058012 -0.036751
C21   C     C_R   0.379485 0.494095 0.947775 -0.024816
C22   C     C_R   0.472626 0.573195 0.033005 -0.019469
C23   C     C_R   0.592334 0.472650 0.760754 0.491744
C24   C     C_R   0.473898 0.570546 0.972738 -0.023007
C25   C     C_R   0.377760 0.498522 0.067980 -0.018578
C26   C     C_R   0.571255 0.642256 0.937485 -0.039994
C27   C     C_R   0.662065 0.722406 0.022729 -0.155538
C28   C     C_R   0.282782 0.423085 0.983178 -0.156879
C29   C     C_R   0.663874 0.719172 0.962925 -0.152416
C30   C     C_R   0.282105 0.425066 0.042807 -0.156544
C31   C     C_3   0.182164 0.719825 0.579250 -0.109281
C32   C     C_3   0.838085 0.305266 0.406254 -0.119829
C33   C     C_3   0.640651 0.328669 0.823013 -0.257460
C34   C     C_R   0.597731 0.499569 0.226455 0.461815
C35   C     C_3   0.669635 0.334142 0.172224 -0.253354
C36   C     C_3   0.646508 0.266733 0.665816 -0.181787
C37   C     C_3   0.820481 0.533652 0.298448 -0.145493
C38   C     C_3   0.732127 0.106157 0.525061 -0.304816
C39   C     C_3   0.354701 0.878048 0.427687 -0.289760
C40   C     C_3   0.155727 0.369380 0.417779 -0.162150
C41   C     C_3   0.842574 0.636230 0.582869 -0.120917
C42   C     C_R   0.595242 0.457170 0.700715 0.381300
C43   C     C_R   0.607631 0.488790 0.285407 0.368593
C44   C     C_R   0.500131 0.511058 0.673289 -0.237541
C45   C     C_R   0.500862 0.520516 0.327321 -0.198904
C46   C     C_R   0.402109 0.577615 0.706330 -0.275516
H1    H     H_    0.739021 0.775676 0.936704 0.190016
H2    H     H_    0.874044 0.284523 0.360059 0.161048
H3    H     H_    0.729529 0.298976 0.410902 0.215832
H4    H     H_    0.874511 0.234484 0.431779 0.115520
H5    H     H_    0.625970 0.362757 0.868709 0.172543
H6    H     H_    0.714660 0.258172 0.819463 0.196164
H7    H     H_    0.547069 0.281381 0.812023 0.140717
H8    H     H_    0.573725 0.317325 0.155379 0.161658
H9    H     H_    0.670898 0.277683 0.210919 0.185729
H10   H     H_    0.747870 0.303036 0.138041 0.194861
H11   H     H_    0.559266 0.255476 0.642381 0.179771
H12   H     H_    0.207741 0.367582 0.068940 0.193044
H13   H     H_    0.622104 0.226261 0.709363 0.142831
H14   H     H_    0.725877 0.213748 0.641437 0.201173
H15   H     H_    0.909851 0.494244 0.309760 0.193706
H16   H     H_    0.794655 0.610385 0.330055 0.165088
H17   H     H_    0.846815 0.570031 0.254088 0.182489
H18   H     H_    0.328153 0.619943 0.686376 0.196551
H19   H     H_    0.312359 0.604789 0.341095 0.178374
H20   H     H_    0.750816 0.074581 0.478843 0.147992
H21   H     H_    0.783065 0.046245 0.550941 0.172292
H22   H     H_    0.777890 0.201027 0.529013 0.204771
H23   H     H_    0.322887 0.644322 0.790421 0.181758
H24   H     H_    0.315623 0.925035 0.393009 0.180924
H25   H     H_    0.290797 0.898302 0.469066 0.123694
H26   H     H_    0.346196 0.777526 0.417660 0.202276
H27   H     H_    0.340672 0.104155 0.474745 0.124869
H28   H     H_    0.623301 0.880493 0.547178 0.128897
H29   H     H_    0.158938 0.461336 0.397830 0.141051
H30   H     H_    0.098449 0.302644 0.392747 0.163019
H31   H     H_    0.254963 0.333227 0.412217 0.179767
H32   H     H_    0.900480 0.706890 0.605738 0.173935
H33   H     H_    0.842800 0.546800 0.604636 0.197898
H34   H     H_    0.305371 0.636333 0.239335 0.176598
H35   H     H_    0.742150 0.669843 0.588755 0.158198
H36   H     H_    0.735941 0.781271 0.041061 0.189312
H37   H     H_    0.208898 0.364155 0.964881 0.193228
H38   H     H_    0.276592 0.705674 0.594658 0.182067
H39   H     H_    0.126394 0.778105 0.612853 0.124332
H40   H     H_    0.196562 0.771588 0.538593 0.136444
N1    N     N_R   0.479318 0.567419 0.150541 -0.331448
N2    N     N_R   0.484654 0.555137 0.854068 -0.336600
N3    N     N_2   0.842710 0.448880 0.476480 0.026885
N4    N     N_2   0.157290 0.551120 0.523520 0.038004
O1    O     O_R   0.431060 0.692470 0.504730 -0.660206
O2    O     O_2   0.667290 0.699844 0.842572 -0.542573
O3    O     O_2   0.658110 0.716644 0.142879 -0.549600
O4    O     O_2   0.298309 0.414317 0.862689 -0.557810
O5    O     O_3   0.108321 0.607636 0.573538 -0.574782
O6    O     O_3   0.890728 0.423102 0.420890 -0.585756
O7    O     O_3   0.691758 0.426525 0.786372 -0.559077
O8    O     O_3   0.696554 0.460551 0.184535 -0.588249
O9    O     O_3   0.693144 0.391498 0.669239 -0.596660
O10   O     O_3   0.717483 0.439929 0.301327 -0.607974
O11   O     O_3   0.597334 0.106255 0.548916 -0.638282
O12   O     O_R   0.568940 0.307530 0.495270 -0.612457
O13   O     O_3   0.488894 0.917914 0.426738 -0.613880
O14   O     O_3   0.101526 0.366584 0.476913 -0.642933
O15   O     O_3   0.893553 0.633898 0.523308 -0.636256
O16   O     O_R   0.651120 0.659650 0.489640 -0.570681
O17   O     O_R   0.348880 0.340350 0.510360 -0.576106
O18   O     O_R   0.389950 0.516450 0.591390 -0.604988
O19   O     O_R   0.610050 0.483550 0.408610 -0.562366
O20   O     O_R   0.610020 0.483630 0.576300 -0.606810
O21   O     O_R   0.389980 0.516370 0.423700 -0.668514
O22   O     O_2   0.296643 0.422268 0.161248 -0.571419
Zn1   Zn    Zn3+2 0.353060 0.521920 0.510080 0.974422
Zn2   Zn    Zn3+2 0.646940 0.478080 0.489920 1.011521

loop_
_geom_bond_atom_site_label_1
_geom_bond_atom_site_label_2
_ccdc_geom_bond_type
C31   H39   S    
C13   N4    D    
C27   C29   A    
C17   N2    A    
C15   O19   A    
C2    H19   S    
C37   H16   S    
N4    O5    S    
C33   H6    S    
C23   C42   A    
C41   O15   S    
C29   H1    S    
C17   C26   A    
C19   C21   A    
C24   C26   A    
C4    H34   S    
C38   O11   S    
C38   H22   S    
C25   C30   A    
C7    C9    D    
N4    Zn1   S    
O17   Zn1   S    
C5    N2    S    
C38   H20   S    
C22   C25   A    
C11   O15   S    
C16   N1    A    
C39   H26   S    
C35   O8    S    
C9    C10   S    
O20   Zn2   S    
C18   C20   A    
C8    C12   S    
C1    O16   A    
C36   H13   S    
C14   O18   A    
C1    O1    A    
C31   H40   S    
C35   H8    S    
C32   H2    S    
C17   O2    S    
C42   C44   A    
C37   H17   S    
C44   C46   A    
C7    H28   S    
C10   O11   S    
C2    C45   A    
C33   H7    S    
C35   H9    S    
C15   O21   A    
C43   O10   S    
C4    C6    A    
C36   H11   S    
C41   H32   S    
C3    C5    A    
C6    N1    S    
C40   H30   S    
C46   H18   S    
O18   Zn1   S    
C2    C4    A    
C12   O12   A    
O12   Zn2   S    
C40   O14   S    
C11   N3    D    
C5    C23   A    
C9    O13   S    
C41   H35   S    
O21   Zn1   S    
C13   O14   S    
C43   C45   A    
C32   H4    S    
C19   O4    S    
O19   Zn2   S    
C32   O6    S    
C21   C28   A    
O16   Zn2   S    
C19   N2    A    
C22   C24   A    
C15   C45   S    
C16   O22   S    
C14   C44   S    
C16   C25   A    
C14   O20   A    
N3    Zn2   S    
O1    Zn1   S    
C23   O7    S    
C35   H10   S    
C1    C7    S    
C27   H36   S    
C34   C43   A    
C20   C22   A    
C36   H14   S    
C41   H33   S    
C12   O17   A    
C37   H15   S    
C3    H23   S    
C39   O13   S    
C20   C27   A    
C33   H5    S    
C3    C46   A    
C18   N1    A    
C40   H29   S    
N3    O6    S    
C28   C30   A    
C42   O9    S    
C11   C13   S    
C31   O5    S    
C30   H12   S    
C8    H27   S    
C34   O8    S    
C39   H24   S    
C36   O9    S    
C33   O7    S    
C32   H3    S    
C31   H38   S    
C6    C34   A    
C38   H21   S    
C26   C29   A    
C8    C10   D    
C21   C24   A    
C18   O3    S    
C39   H25   S    
C40   H31   S    
C37   O10   S    
C28   H37   S    
