data_mof_unit_11503.cif
_audit_creation_date              2012-12-10T19:15:22-0500
_audit_creation_method            fapswitch 2.2
_symmetry_space_group_name_H-M    P1
_symmetry_Int_Tables_number       1
_space_group_crystal_system       triclinic
_cell_length_a                    10.691928
_cell_length_b                    9.66957
_cell_length_c                    23.421883
_cell_angle_alpha                 89.647295
_cell_angle_beta                  90.180411
_cell_angle_gamma                 89.577582
_cell_volume                      2421.37886213

loop_
_atom_site_label
_atom_site_type_symbol
_atom_type_description
_atom_site_fract_x
_atom_site_fract_y
_atom_site_fract_z
_atom_type_partial_charge
C1    C     C_R   0.257868 0.500877 0.501185 0.848974
C2    C     C_R   0.600601 0.589575 0.118697 0.561784
C3    C     C_R   0.567052 0.387614 0.239340 0.057460
C4    C     C_R   0.501029 0.500421 0.389279 0.881891
C5    C     C_R   0.556395 0.386480 0.298682 -0.328119
C6    C     C_R   0.507613 0.501533 0.327324 -0.031894
C7    C     C_R   0.468761 0.618882 0.296695 -0.211944
C8    C     C_R   0.475639 0.619940 0.237661 -0.144936
C9    C     C_R   0.523478 0.505102 0.208753 0.307802
C10   C     C_R   0.467432 0.619107 0.761669 -0.075923
C11   C     C_R   0.467667 0.619692 0.702449 -0.219965
C12   C     C_R   0.337269 0.340410 0.973493 -0.153781
C13   C     C_R   0.498433 0.498603 0.672818 -0.049814
C14   C     C_R   0.528115 0.376796 0.702939 -0.144647
C15   C     C_R   0.529124 0.376895 0.762198 -0.078875
C16   C     C_R   0.742719 0.499816 0.500295 0.867569
C17   C     C_R   0.499132 0.498112 0.791569 0.295321
C18   C     C_3   0.069884 0.656202 0.503737 -0.163423
C19   C     C_3   0.073027 0.417617 0.555805 -0.249028
C20   C     C_3   0.927143 0.653967 0.495588 -0.189312
C21   C     C_3   0.929467 0.439995 0.560095 -0.204165
C22   C     C_3   0.073619 0.432016 0.448236 -0.415219
C23   C     C_R   0.340027 0.343046 0.032809 -0.174970
C24   C     C_3   0.121923 0.503250 0.503563 -0.048056
C25   C     C_3   0.879329 0.500571 0.501560 -0.059336
C26   C     C_3   0.931581 0.412982 0.451550 -0.424965
C27   C     C_3   0.399633 0.082849 0.461362 -0.227706
C28   C     C_3   0.401249 0.920012 0.460521 -0.224439
C29   C     C_3   0.620322 0.080721 0.477909 -0.218005
C30   C     C_3   0.620792 0.917944 0.478501 -0.205507
C31   C     C_3   0.478922 0.080744 0.556828 -0.226993
C32   C     C_3   0.478677 0.918211 0.556795 -0.228673
C33   C     C_R   0.499809 0.499575 0.610725 0.900359
C34   C     C_R   0.426448 0.426515 0.061485 0.012114
C35   C     C_R   0.588510 0.580868 0.879176 0.539723
C36   C     C_R   0.419654 0.420255 0.882218 0.506584
C37   C     C_R   0.420778 0.421329 0.941849 -0.003100
C38   C     C_R   0.507307 0.506338 0.970250 -0.026845
C39   C     C_R   0.591527 0.587237 0.938709 -0.092541
C40   C     C_2   0.101092 0.737513 0.557098 0.388324
C41   C     C_2   0.138686 0.445039 0.612024 0.387309
C42   C     C_2   0.890264 0.724326 0.439663 0.397895
C43   C     C_2   0.868414 0.306258 0.578676 0.521098
C44   C     C_3   0.691216 0.902583 0.062495 0.160223
C45   C     C_R   0.510095 0.509572 0.030245 -0.073750
C46   C     C_3   0.693092 0.997964 0.009814 -0.451528
C47   C     C_3   0.646027 0.143098 0.023992 -0.820331
C48   C     C_2   0.625079 0.265593 0.211537 0.428108
C49   C     C_R   0.596085 0.595717 0.058794 -0.151868
C50   C     C_R   0.674650 0.683719 0.026452 0.512526
C51   C     C_R   0.675336 0.673919 0.967037 -0.239744
C52   C     C_R   0.431777 0.428518 0.120908 0.563416
H1    H     H_    0.269905 0.274500 0.952584 0.197502
H2    H     H_    0.118382 0.328822 0.442111 0.193978
H3    H     H_    0.887802 0.441958 0.410047 0.163764
H4    H     H_    0.910422 0.301730 0.458561 0.189276
H5    H     H_    0.410940 0.123432 0.417166 0.152636
H6    H     H_    0.416597 0.883752 0.416094 0.138811
H7    H     H_    0.274905 0.278729 0.056078 0.196289
H8    H     H_    0.306619 0.119803 0.476255 0.172137
H9    H     H_    0.308322 0.880605 0.473176 0.209595
H10   H     H_    0.638923 0.119414 0.433937 0.150840
H11   H     H_    0.641308 0.878565 0.434975 0.166526
H12   H     H_    0.443354 0.714378 0.679932 0.157555
H13   H     H_    0.553282 0.117498 0.586267 0.167036
H14   H     H_    0.552789 0.879367 0.586366 0.151271
H15   H     H_    0.388628 0.120201 0.573999 0.173997
H16   H     H_    0.388807 0.879752 0.574043 0.206320
H17   H     H_    0.698284 0.117975 0.505056 0.156082
H18   H     H_    0.697893 0.880570 0.506685 0.168681
H19   H     H_    0.740054 0.737528 0.943179 0.207866
H20   H     H_    0.588977 0.296981 0.322750 0.144882
H21   H     H_    0.431044 0.708652 0.318306 0.152339
H22   H     H_    0.442081 0.709499 0.214030 0.143294
H23   H     H_    0.552268 0.282347 0.680786 0.173026
H24   H     H_    0.443449 0.712701 0.784451 0.149728
H25   H     H_    0.067716 0.704153 0.598523 0.072406
H26   H     H_    0.215292 0.517642 0.614660 0.047157
H27   H     H_    0.839374 0.669585 0.406822 0.076744
H28   H     H_    0.880830 0.213018 0.553753 0.044270
H29   H     H_    0.740910 0.954834 0.097977 0.208971
H30   H     H_    0.593123 0.887080 0.077306 0.118910
H31   H     H_    0.790017 0.004760 0.993068 0.254388
H32   H     H_    0.632067 0.954995 0.975934 0.222427
H33   H     H_    0.551154 0.138397 0.043038 0.271054
H34   H     H_    0.554131 0.283395 0.785366 0.150952
H35   H     H_    0.641193 0.206733 0.984402 0.260999
H36   H     H_    0.710919 0.193619 0.054347 0.301176
H37   H     H_    0.642261 0.171950 0.236238 0.056635
H38   H     H_    0.113104 0.711988 0.466974 0.197230
H39   H     H_    0.093131 0.306645 0.546456 0.171294
H40   H     H_    0.882002 0.716508 0.529832 0.141927
H41   H     H_    0.909114 0.518336 0.593620 0.164237
H42   H     H_    0.096993 0.496143 0.410136 0.178240
N1    N     N_R   0.502793 0.499233 0.852376 -0.358306
N2    N     N_R   0.519568 0.506690 0.147919 -0.338997
N3    N     N_3   0.499750 0.138610 0.498760 -0.053187
N4    N     N_3   0.499750 0.861390 0.498760 -0.056478
O1    O     O_R   0.314910 0.616040 0.499990 -0.619027
O2    O     O_2   0.335575 0.342190 0.854158 -0.539172
O3    O     O_2   0.350612 0.352394 0.151736 -0.563361
O4    O     O_2   0.685991 0.663417 0.147805 -0.515855
O5    O     O_2   0.157070 0.846619 0.553730 -0.600031
O6    O     O_2   0.108299 0.382135 0.655087 -0.503984
O7    O     O_2   0.915344 0.845863 0.431535 -0.592840
O8    O     O_2   0.805442 0.301864 0.622031 -0.565540
O9    O     O_3   0.755259 0.776342 0.051963 -0.594319
O10   O     O_2   0.657407 0.268432 0.161643 -0.590491
O11   O     O_R   0.314910 0.383960 0.499990 -0.632553
O12   O     O_R   0.500080 0.616070 0.416130 -0.633039
O13   O     O_R   0.500080 0.383930 0.416130 -0.626351
O14   O     O_R   0.685320 0.616040 0.499970 -0.645263
O15   O     O_R   0.685320 0.383960 0.499970 -0.625727
O16   O     O_R   0.500150 0.616010 0.583820 -0.634355
O17   O     O_R   0.500150 0.383990 0.583820 -0.617786
O18   O     O_2   0.670638 0.655240 0.848158 -0.546053
Zn1   Zn    Zn3+2 0.500150 0.654960 0.499970 0.924104
Zn2   Zn    Zn3+2 0.500150 0.345040 0.499970 0.927084

loop_
_geom_bond_atom_site_label_1
_geom_bond_atom_site_label_2
_ccdc_geom_bond_type
C39   C51   A    
C16   O15   A    
C1    O1    A    
C7    C8    A    
C22   H2    S    
C23   H7    S    
C20   H40   S    
C12   C23   A    
C33   O16   A    
C29   C30   S    
O13   Zn2   S    
C18   C24   S    
C47   H33   S    
C36   C37   A    
C19   C21   S    
C5    H20   S    
C44   H30   S    
C27   H8    S    
C5    C6    A    
C20   C25   S    
C2    O4    S    
C10   C17   A    
C3    C48   S    
N3    Zn2   S    
C15   C17   A    
C46   C47   S    
C12   C37   A    
C18   C40   S    
C38   C45   A    
C4    O12   A    
C1    O11   A    
C21   C43   S    
C10   H24   S    
C8    C9    A    
C17   N1    S    
C12   H1    S    
C32   H16   S    
C28   H9    S    
C23   C34   A    
C42   H27   S    
C13   C14   A    
C26   H3    S    
C22   H42   S    
C51   H19   S    
O12   Zn1   S    
C30   H18   S    
C44   C46   S    
O11   Zn2   S    
C29   H17   S    
C38   C39   A    
C52   O3    S    
C33   O17   A    
C18   H38   S    
C4    C6    S    
C11   H12   S    
C27   H5    S    
C41   H26   S    
C43   H28   S    
C46   H31   S    
C43   O8    D    
C47   H35   S    
C35   C39   A    
C13   C33   S    
C37   C38   A    
C3    C9    A    
C2    C49   A    
O1    Zn1   S    
C31   C32   S    
C45   C49   A    
O17   Zn2   S    
C7    H21   S    
C8    H22   S    
C50   C51   A    
C35   O18   S    
C36   O2    S    
C34   C45   A    
C9    N2    S    
C15   H34   S    
C46   H32   S    
C4    O13   A    
C44   H29   S    
C28   H6    S    
C48   H37   S    
C50   O9    S    
C22   C24   S    
C16   O14   A    
N4    Zn1   S    
C32   H14   S    
C44   O9    S    
C28   N4    S    
C16   C25   S    
C31   H13   S    
C21   C25   S    
C29   H10   S    
C27   N3    S    
C14   C15   A    
C3    C5    A    
C26   H4    S    
C20   C42   S    
C6    C7    A    
C35   N1    A    
C30   N4    S    
C34   C52   A    
C41   O6    D    
C29   N3    S    
O14   Zn1   S    
C14   H23   S    
C2    N2    A    
C19   C24   S    
C25   C26   S    
C47   H36   S    
C40   O5    D    
C11   C13   A    
C36   N1    A    
C48   O10   D    
C21   H41   S    
C32   N4    S    
C52   N2    A    
C18   C20   S    
C31   N3    S    
C42   O7    D    
O16   Zn1   S    
C19   H39   S    
C10   C11   A    
C31   H15   S    
O15   Zn2   S    
C1    C24   S    
C49   C50   A    
C22   C26   S    
C27   C28   S    
C40   H25   S    
C30   H11   S    
C19   C41   S    
