data_mof_unit_26378.cif
_audit_creation_date              2013-03-05T16:02:44-0500
_audit_creation_method            fapswitch 2.2
_symmetry_space_group_name_H-M    P1
_symmetry_Int_Tables_number       1
_space_group_crystal_system       triclinic
_cell_length_a                    23.615382
_cell_length_b                    11.725926
_cell_length_c                    10.455472
_cell_angle_alpha                 90.00033
_cell_angle_beta                  90.000133
_cell_angle_gamma                 89.99723
_cell_volume                      2895.24797798

loop_
_atom_site_label
_atom_site_type_symbol
_atom_site_description
_atom_site_fract_x
_atom_site_fract_y
_atom_site_fract_z
_atom_type_partial_charge
O1    O     O_R   0.500000 0.337200 0.605810 -0.570976
O2    O     O_R   0.500000 0.662800 0.394190 -0.570935
O3    O     O_R   0.500000 0.662800 0.605810 -0.570906
O4    O     O_R   0.500000 0.337200 0.394190 -0.570957
C1    C     C_R   0.500000 0.283297 0.500000 0.846596
C2    C     C_R   0.500000 0.716703 0.500000 0.846574
O5    O     O_R   0.417880 0.500000 0.605840 -0.568841
O6    O     O_R   0.582120 0.500000 0.394160 -0.568898
O7    O     O_R   0.582120 0.500000 0.605840 -0.568904
O8    O     O_R   0.417880 0.500000 0.394160 -0.568914
C3    C     C_R   0.390607 0.499978 0.499995 0.943385
C4    C     C_R   0.609393 0.499993 0.500001 0.943320
Cu1   Cu    Cu3+1 0.500000 0.500000 0.625300 1.000731
Cu2   Cu    Cu3+1 0.500000 0.500000 0.374700 1.000760
C5    C     C_R   0.880684 0.599997 0.480934 0.711171
C6    C     C_R   0.119315 0.399675 0.480858 0.711266
C7    C     C_R   0.880674 0.399739 0.519100 0.711193
C8    C     C_R   0.119326 0.599921 0.519100 0.711098
N1    N     N_R   0.852315 0.499877 0.500018 -0.426787
N2    N     N_R   0.147685 0.499790 0.499972 -0.426787
C9    C     C_R   0.940117 0.395482 0.506650 -0.148683
C10   C     C_R   0.059883 0.604181 0.506665 -0.148659
C11   C     C_R   0.940127 0.604218 0.493376 -0.148679
C12   C     C_R   0.059873 0.395449 0.493324 -0.148704
C13   C     C_R   0.970079 0.499841 0.500009 -0.063251
C14   C     C_R   0.029921 0.499823 0.500000 -0.063259
C15   C     C_R   0.970288 0.291079 0.503701 0.242949
C16   C     C_R   0.029712 0.708584 0.503752 0.242949
C17   C     C_R   0.970308 0.708603 0.496323 0.242938
C18   C     C_R   0.029693 0.291063 0.496254 0.242938
O9    O     O_2   0.851127 0.694264 0.449184 -0.428784
O10   O     O_2   0.148870 0.305419 0.449055 -0.428734
O11   O     O_2   0.851108 0.305489 0.550850 -0.428777
O12   O     O_2   0.148892 0.694163 0.550880 -0.428825
C19   C     C_R   0.238544 0.561433 0.405440 0.243231
C20   C     C_R   0.761439 0.438303 0.405502 0.243244
C21   C     C_R   0.238568 0.438148 0.594417 0.243179
C22   C     C_R   0.761449 0.561521 0.594536 0.243247
C23   C     C_R   0.298195 0.559898 0.404235 0.263597
C24   C     C_R   0.701788 0.439920 0.404283 0.263547
C25   C     C_R   0.298221 0.439791 0.595643 0.263507
C26   C     C_R   0.701797 0.559970 0.595739 0.263572
C27   C     C_R   0.328050 0.499903 0.499969 -0.318324
C28   C     C_R   0.671950 0.499965 0.500005 -0.318365
C29   C     C_R   0.208760 0.499785 0.499940 0.014512
C30   C     C_R   0.791240 0.499898 0.500020 0.014484
C31   C     C_1   0.500000 0.161944 0.499999 -0.135812
C32   C     C_1   0.500000 0.838056 0.500001 -0.135843
C33   C     C_1   0.500000 0.059726 0.500000 0.038949
C34   C     C_1   0.500000 0.940274 0.500000 0.038954
N3    N     N_1   0.500000 0.500000 0.186410 -0.152745
N4    N     N_1   0.500000 0.500000 0.813590 -0.152832
C35   C     C_1   0.500001 0.500002 0.072015 0.059479
C36   C     C_1   0.500002 0.500003 0.927985 0.059220
N5    N     N_R   0.941154 0.183732 0.503138 0.197031
O13   O     O_R   0.911943 0.153325 0.403279 -0.185496
O14   O     O_R   0.949117 0.111146 0.595508 -0.187979
N6    N     N_R   0.058847 0.815931 0.503197 0.197033
O15   O     O_R   0.088057 0.846344 0.403338 -0.185486
O16   O     O_R   0.050886 0.888513 0.595573 -0.187991
N7    N     N_R   0.941184 0.815966 0.496907 0.197034
O17   O     O_R   0.949150 0.888560 0.404547 -0.187965
O18   O     O_R   0.911977 0.846376 0.596774 -0.185493
N8    N     N_R   0.058817 0.183700 0.496808 0.197027
O19   O     O_R   0.050838 0.111109 0.404449 -0.187974
O20   O     O_R   0.088040 0.153287 0.596650 -0.185461
N9    N     N_R   0.208199 0.625905 0.310579 0.155984
O21   O     O_R   0.166324 0.579869 0.248294 -0.319648
O22   O     O_R   0.223651 0.729463 0.282597 -0.227930
N10   N     N_R   0.791768 0.373796 0.310644 0.155965
O23   O     O_R   0.833645 0.419795 0.248335 -0.319634
O24   O     O_R   0.776298 0.270242 0.282693 -0.227993
N11   N     N_R   0.208248 0.373559 0.689210 0.155898
O25   O     O_R   0.166375 0.419511 0.751592 -0.319650
O26   O     O_R   0.223718 0.269971 0.717023 -0.227986
N12   N     N_R   0.791787 0.625989 0.689406 0.155969
O27   O     O_R   0.833657 0.579946 0.751707 -0.319632
O28   O     O_R   0.776335 0.729553 0.717373 -0.227964
O29   O     O_3   0.327612 0.627042 0.317810 -0.525124
C37   C     C_3   0.329545 0.571946 0.197634 0.134935
H1    H     H_    0.286489 0.558934 0.157197 0.178329
H2    H     H_    0.350901 0.487586 0.204844 0.139285
C38   C     C_3   0.362794 0.646427 0.105165 -0.704510
H3    H     H_    0.406098 0.661619 0.142832 0.251807
H4    H     H_    0.366000 0.604122 0.010603 0.171174
H5    H     H_    0.341083 0.729727 0.092891 0.275338
O30   O     O_3   0.672351 0.372772 0.317896 -0.525190
C39   C     C_3   0.670442 0.427795 0.197678 0.134987
H6    H     H_    0.713504 0.440711 0.157234 0.178410
H7    H     H_    0.649119 0.512194 0.204823 0.139278
C40   C     C_3   0.637166 0.353303 0.105268 -0.704528
H8    H     H_    0.593832 0.338319 0.142875 0.251725
H9    H     H_    0.634037 0.395488 0.010623 0.171143
H10   H     H_    0.658808 0.269904 0.093183 0.275388
O31   O     O_3   0.327673 0.372604 0.681971 -0.525274
C41   C     C_3   0.329539 0.427513 0.802257 0.135108
H11   H     H_    0.286467 0.440002 0.842840 0.178699
H12   H     H_    0.350682 0.512109 0.795180 0.139064
C42   C     C_3   0.363023 0.353182 0.894461 -0.704620
H13   H     H_    0.406438 0.338948 0.856907 0.251587
H14   H     H_    0.365936 0.395107 0.989302 0.171276
H15   H     H_    0.341677 0.269406 0.906125 0.275398
O32   O     O_3   0.672371 0.627139 0.682132 -0.525165
C43   C     C_3   0.670442 0.572096 0.802337 0.134963
H16   H     H_    0.713499 0.559113 0.842788 0.178375
H17   H     H_    0.649096 0.487727 0.795167 0.139293
C44   C     C_3   0.637182 0.646614 0.894757 -0.704496
H18   H     H_    0.593866 0.661721 0.857110 0.251782
H19   H     H_    0.634007 0.604387 0.989368 0.171132
H20   H     H_    0.658866 0.729952 0.906929 0.275362

loop_
_geom_bond_atom_site_label_1
_geom_bond_atom_site_label_2
_geom_bond_distance
_ccdc_geom_bond_type
O5    Cu1   1.949941 S    
O30   C39   1.413571 S    
C18   N8    1.434543 S    
C44   H19   1.108747 S    
N11   O25   1.301333 A    
O31   C41   1.413567 S    
N5    O13   1.301204 A    
O3    C2    1.274122 A    
C26   O32   1.385304 S    
C43   H17   1.112880 S    
N1    C30   1.442298 S    
C31   C33   1.198596 T    
C22   N12   1.438294 S    
C35   C36   1.505903 S    
C5    N1    1.366387 A    
C1    C31   1.422976 S    
C2    C32   1.422977 S    
O1    C1    1.274122 A    
C11   C17   1.416766 A    
C24   O30   1.385301 S    
C16   C17   1.405017 A    
C12   C14   1.415276 A    
C22   C26   1.408879 A    
Cu2   N3    1.968661 S    
C15   N5    1.434536 S    
N6    O16   1.300970 A    
C41   C42   1.521279 S    
N7    O18   1.301204 A    
O7    Cu1   1.949940 S    
C9    C13   1.415276 A    
C38   H3    1.110233 S    
N4    C36   1.196054 T    
C41   H12   1.113022 S    
C44   H18   1.110256 S    
C20   C30   1.411940 A    
N10   O23   1.301329 A    
N2    C29   1.442302 S    
O3    Cu1   1.919827 S    
O6    C4    1.280395 A    
C32   C34   1.198597 T    
C9    C15   1.416771 A    
C6    C12   1.410654 A    
C10   C16   1.416765 A    
Cu1   Cu2   2.620141 S    
C15   C18   1.405029 A    
C21   C25   1.408905 A    
C25   C27   1.411999 A    
O2    C2    1.274122 A    
C26   C28   1.412022 A    
C37   C38   1.521209 S    
C43   H16   1.111716 S    
C20   N10   1.438292 S    
O5    C3    1.280434 A    
C17   N7    1.434540 S    
N9    O21   1.301325 A    
C20   C24   1.408884 A    
N12   O27   1.301326 A    
C37   H2    1.112881 S    
O8    Cu2   1.949942 S    
C40   H8    1.110285 S    
C37   H1    1.111709 S    
C23   C27   1.412019 A    
N6    O15   1.301204 A    
C7    C9    1.410656 A    
N9    O22   1.301287 A    
N8    O20   1.301206 A    
C19   C23   1.408868 A    
C40   H9    1.108774 S    
Cu1   N4    1.968662 S    
C42   H13   1.110482 S    
C39   C40   1.521218 S    
C19   N9    1.438300 S    
C6    N2    1.366390 A    
C41   H11   1.111780 S    
C42   H15   1.110877 S    
C7    O11   1.348768 S    
C3    C27   1.477313 S    
C8    O12   1.348770 S    
C38   H4    1.108746 S    
C39   H7    1.112885 S    
N5    O14   1.300970 A    
C44   H20   1.110594 S    
O1    Cu1   1.919825 S    
N11   O26   1.301306 A    
C21   C29   1.411948 A    
C19   C29   1.411941 A    
C21   N11   1.438279 S    
O6    Cu2   1.949939 S    
C42   H14   1.108910 S    
C8    C10   1.410644 A    
N12   O28   1.301287 A    
O4    C1    1.274124 A    
C5    O9    1.348769 S    
C16   N6    1.434541 S    
C6    O10   1.348769 S    
N8    O19   1.300974 A    
C13   C14   1.413199 A    
C4    C28   1.477312 S    
C40   H10   1.110630 S    
C25   O31   1.385303 S    
C5    C11   1.410645 A    
C7    N1    1.366392 A    
C8    N2    1.366392 A    
C11   C13   1.415277 A    
O4    Cu2   1.919827 S    
N7    O17   1.300970 A    
O2    Cu2   1.919825 S    
O7    C4    1.280385 A    
C12   C18   1.416765 A    
C22   C30   1.411944 A    
O8    C3    1.280346 A    
O29   C37   1.413588 S    
C24   C28   1.412020 A    
C38   H5    1.110575 S    
C39   H6    1.111713 S    
C33   C34   1.400691 S    
C10   C14   1.415271 A    
O32   C43   1.413575 S    
N10   O24   1.301290 A    
N3    C35   1.196052 T    
C43   C44   1.521226 S    
C23   O29   1.385301 S    
