data_mof_unit_11074.cif
_audit_creation_date              2012-12-10T20:07:00-0500
_audit_creation_method            fapswitch 2.2
_symmetry_space_group_name_H-M    P1
_symmetry_Int_Tables_number       1
_space_group_crystal_system       triclinic
_cell_length_a                    19.23743
_cell_length_b                    18.443466
_cell_length_c                    10.799603
_cell_angle_alpha                 90.065099
_cell_angle_beta                  90.02309
_cell_angle_gamma                 89.476283
_cell_volume                      3831.58907328

loop_
_atom_site_label
_atom_site_type_symbol
_atom_type_description
_atom_site_fract_x
_atom_site_fract_y
_atom_site_fract_z
_atom_type_partial_charge
C1    C     C_R   0.365630 0.500374 0.499189 0.851843
C2    C     C_R   0.634259 0.499655 0.499032 0.849408
C3    C     C_R   0.708845 0.498878 0.484887 -0.013243
C4    C     C_R   0.290793 0.501475 0.486050 -0.008242
C5    C     C_R   0.963440 0.567751 0.428356 -0.186366
C6    C     C_R   0.035981 0.436119 0.414387 -0.186260
C7    C     C_R   0.035406 0.567267 0.431315 -0.181340
C8    C     C_R   0.963948 0.436431 0.416242 -0.181313
C9    C     C_R   0.072289 0.501293 0.427129 0.109959
C10   C     C_R   0.927114 0.502215 0.426213 0.109692
C11   C     C_R   0.559086 0.725556 0.469701 -0.017488
C12   C     C_R   0.441667 0.274440 0.534471 0.027857
C13   C     C_R   0.440933 0.726613 0.530714 -0.023369
C14   C     C_R   0.558558 0.273362 0.466625 -0.004707
C15   C     C_R   0.560351 0.801570 0.470300 -0.290531
C16   C     C_R   0.440618 0.198448 0.535308 -0.279529
C17   C     C_R   0.439772 0.802668 0.531375 -0.288445
C18   C     C_R   0.559782 0.197328 0.466318 -0.295436
C19   C     C_R   0.500079 0.841497 0.501076 0.127138
C20   C     C_R   0.500205 0.158568 0.500768 0.120675
C21   C     C_R   0.441497 0.962579 0.460973 -0.192441
C22   C     C_R   0.558836 0.037575 0.540862 -0.184508
C23   C     C_R   0.558744 0.961488 0.541217 -0.190934
C24   C     C_R   0.441516 0.038661 0.460996 -0.182521
C25   C     C_R   0.500201 0.077319 0.500853 0.124635
C26   C     C_R   0.500090 0.922785 0.501183 0.127912
C27   C     C_R   0.498443 0.500056 0.259515 0.888565
C28   C     C_R   0.498281 0.500039 0.740186 0.879432
C29   C     C_R   0.455892 0.631830 0.101295 0.173933
C30   C     C_R   0.442631 0.374699 0.895380 0.147127
C31   C     C_R   0.547158 0.626332 0.897302 0.150115
C32   C     C_R   0.532736 0.368115 0.101257 0.129096
C33   C     C_R   0.478496 0.697324 0.045583 0.110525
C34   C     C_R   0.457437 0.306988 0.952299 0.152185
C35   C     C_R   0.529550 0.694303 0.950900 0.150716
C36   C     C_R   0.507906 0.303028 0.047638 0.151581
C37   C     C_R   0.511369 0.564357 0.939922 -0.063964
C38   C     C_R   0.503676 0.434407 0.058962 -0.025642
C39   C     C_R   0.487261 0.565974 0.060151 -0.001149
C40   C     C_R   0.479351 0.436307 0.938748 -0.003873
C41   C     C_R   0.496003 0.500265 0.872625 -0.155890
C42   C     C_R   0.496260 0.500142 0.126598 -0.159057
C43   C     C_R   0.740059 0.446597 0.408664 -0.198391
C44   C     C_R   0.258829 0.559155 0.423424 -0.201384
C45   C     C_R   0.251383 0.443503 0.529245 -0.204055
C46   C     C_R   0.748637 0.552635 0.540950 -0.209096
C47   C     C_R   0.810839 0.449101 0.385899 -0.175087
C48   C     C_R   0.188143 0.557755 0.399924 -0.182438
C49   C     C_R   0.180053 0.443533 0.510471 -0.170700
C50   C     C_R   0.819895 0.553489 0.522261 -0.168460
C51   C     C_R   0.851521 0.502197 0.443363 0.118412
C52   C     C_R   0.147927 0.500290 0.444236 0.121685
H1    H     H_    0.709488 0.405095 0.364019 0.136052
H2    H     H_    0.288724 0.604412 0.389563 0.145125
H3    H     H_    0.275581 0.398818 0.578607 0.136866
H4    H     H_    0.724709 0.593185 0.600222 0.140740
H5    H     H_    0.833432 0.409761 0.322902 0.124370
H6    H     H_    0.165278 0.601535 0.346611 0.125406
H7    H     H_    0.150194 0.399608 0.549258 0.126057
H8    H     H_    0.850103 0.593716 0.570941 0.127025
H9    H     H_    0.936345 0.619413 0.432112 0.126718
H10   H     H_    0.063100 0.384605 0.407077 0.126641
H11   H     H_    0.061687 0.618502 0.442206 0.126638
H12   H     H_    0.937527 0.384886 0.415222 0.126450
H13   H     H_    0.605483 0.695567 0.444489 0.142772
H14   H     H_    0.395674 0.304435 0.561832 0.115069
H15   H     H_    0.394533 0.697387 0.555445 0.139511
H16   H     H_    0.604601 0.302591 0.439957 0.120721
H17   H     H_    0.607771 0.828749 0.444302 0.137684
H18   H     H_    0.393798 0.171197 0.564476 0.134210
H19   H     H_    0.392365 0.830721 0.557647 0.137702
H20   H     H_    0.606711 0.169187 0.437607 0.136435
H21   H     H_    0.395827 0.934903 0.427347 0.127531
H22   H     H_    0.604560 0.065342 0.574056 0.129877
H23   H     H_    0.604397 0.932967 0.574866 0.126695
H24   H     H_    0.395832 0.067273 0.427663 0.129457
N1    N     N_R   0.500000 0.689440 0.500000 -0.100092
N2    N     N_R   0.500000 0.310560 0.500000 -0.087793
O1    O     O_R   0.398180 0.560840 0.499970 -0.642064
O2    O     O_R   0.601820 0.439160 0.500030 -0.631541
O3    O     O_R   0.601820 0.560840 0.500030 -0.634360
O4    O     O_R   0.398180 0.439160 0.499970 -0.640074
O5    O     O_R   0.499990 0.560810 0.316770 -0.624956
O6    O     O_R   0.500010 0.439190 0.683230 -0.623347
O7    O     O_R   0.500010 0.560810 0.683230 -0.621026
O8    O     O_R   0.499990 0.439190 0.316770 -0.623830
Zn1   Zn    Zn3+2 0.500000 0.581210 0.500000 0.917559
Zn2   Zn    Zn3+2 0.500000 0.418790 0.500000 0.930400
N3    N     N_2   0.526857 0.234118 0.097385 -0.301644
H25   H     H_    0.531361 0.232472 0.192451 0.231752
C53   C     C_3   0.582408 0.196201 0.033500 -0.815985
H26   H     H_    0.580674 0.137770 0.057640 0.245424
H27   H     H_    0.633567 0.217627 0.062662 0.242267
H28   H     H_    0.577054 0.201508 0.931448 0.242161
N4    N     N_2   0.564037 0.758489 0.912179 -0.313700
H29   H     H_    0.571537 0.796273 0.981182 0.230793
C54   C     C_3   0.537833 0.790389 0.799157 -0.782513
H30   H     H_    0.484478 0.812338 0.812709 0.229560
H31   H     H_    0.536770 0.749485 0.724508 0.265008
H32   H     H_    0.572309 0.835204 0.770088 0.239543
N5    N     N_2   0.422559 0.243259 0.912601 -0.309213
H33   H     H_    0.455230 0.200002 0.894240 0.251378
C55   C     C_3   0.364508 0.223031 0.989887 -0.790988
H34   H     H_    0.382890 0.207650 0.083908 0.251410
H35   H     H_    0.337653 0.175958 0.947983 0.233970
H36   H     H_    0.326571 0.268553 0.997438 0.249754
N6    N     N_2   0.449121 0.765280 0.082361 -0.325010
H37   H     H_    0.447896 0.804745 0.015055 0.237236
C56   C     C_3   0.473252 0.791996 0.200273 -0.799734
H38   H     H_    0.529877 0.803036 0.196469 0.238204
H39   H     H_    0.462782 0.751725 0.273655 0.267910
H40   H     H_    0.445129 0.842986 0.223968 0.242312
C57   C     C_3   0.387745 0.631015 0.174074 -0.388590
C58   C     C_3   0.333379 0.583944 0.110483 -0.912562
H41   H     H_    0.282324 0.590962 0.156982 0.254127
H42   H     H_    0.327500 0.600144 0.011969 0.266799
H43   H     H_    0.348555 0.525823 0.115965 0.268241
H44   H     H_    0.394534 0.612386 0.270076 0.234576
H45   H     H_    0.364681 0.686130 0.182046 0.227707
C59   C     C_3   0.377445 0.383521 0.815876 -0.385776
C60   C     C_3   0.321497 0.426947 0.884175 -0.918765
H46   H     H_    0.311498 0.403274 0.976916 0.268021
H47   H     H_    0.338108 0.484047 0.894856 0.267780
H48   H     H_    0.272442 0.426508 0.829951 0.254147
H49   H     H_    0.387162 0.410937 0.727588 0.228854
H50   H     H_    0.355179 0.330371 0.790026 0.220703
C61   C     C_3   0.612646 0.617518 0.819200 -0.312026
C62   C     C_3   0.678122 0.631095 0.895697 -0.904023
H51   H     H_    0.724842 0.619280 0.838527 0.243058
H52   H     H_    0.680748 0.688330 0.926718 0.277807
H53   H     H_    0.679157 0.594976 0.977989 0.259949
H54   H     H_    0.618014 0.561417 0.783181 0.190966
H55   H     H_    0.611383 0.654253 0.738074 0.219489
C63   C     C_3   0.603789 0.368768 0.163298 -0.367337
C64   C     C_3   0.660910 0.379391 0.066898 -0.902957
H56   H     H_    0.712623 0.375768 0.112321 0.245443
H57   H     H_    0.658125 0.337386 0.993462 0.269792
H58   H     H_    0.655527 0.433710 0.023277 0.266126
H59   H     H_    0.608970 0.413548 0.230515 0.215647
H60   H     H_    0.614117 0.317936 0.214836 0.191646

loop_
_geom_bond_atom_site_label_1
_geom_bond_atom_site_label_2
_ccdc_geom_bond_type
C36   N3    S    
C64   H58   S    
O5    Zn1   S    
C21   C26   A    
N5    H33   S    
C21   H21   S    
C28   O6    A    
C14   C18   A    
N4    H29   S    
C33   N6    S    
C31   C61   S    
C62   H51   S    
C6    C9    A    
O1    Zn1   S    
C58   H41   S    
C64   H56   S    
C28   O7    A    
C15   C19   A    
C3    C43   A    
C32   C36   A    
C38   C40   A    
C38   C42   A    
C56   H39   S    
C63   H60   S    
O8    Zn2   S    
C47   H5    S    
C20   C25   S    
C29   C33   A    
C28   C41   S    
C64   H57   S    
C23   C26   A    
C19   C26   S    
C61   H54   S    
C60   H48   S    
C11   N1    A    
C17   C19   A    
C57   H45   S    
C11   C15   A    
C43   H1    S    
C12   C16   A    
C22   C25   A    
C12   N2    A    
N6    H37   S    
C32   C38   A    
N3    C53   S    
C18   C20   A    
N5    C55   S    
N6    C56   S    
C9    C52   S    
C10   C51   S    
C54   H31   S    
C54   H30   S    
C39   C42   A    
C4    C45   A    
O7    Zn1   S    
C18   H20   S    
C15   H17   S    
N1    Zn1   S    
C13   N1    A    
C34   N5    S    
C30   C34   A    
C5    H9    S    
C61   H55   S    
C16   H18   S    
C24   C25   A    
C56   H40   S    
C63   H59   S    
C5    C7    A    
C59   H49   S    
C24   H24   S    
C6    C8    A    
C4    C44   A    
C1    O4    A    
C12   H14   S    
C31   C37   A    
C27   O8    A    
C53   H27   S    
C58   H42   S    
C45   C49   A    
C16   C20   A    
C49   C52   A    
C29   C39   A    
C50   C51   A    
C30   C40   A    
C55   H35   S    
C7    H11   S    
C60   H46   S    
O3    Zn1   S    
C59   H50   S    
C8    H12   S    
C8    C10   A    
C40   C41   A    
C17   H19   S    
C1    O1    A    
C31   C35   A    
C22   H22   S    
C61   C62   S    
C62   H53   S    
C53   H26   S    
C54   H32   S    
C59   C60   S    
C57   C58   S    
C13   H15   S    
N2    Zn2   S    
C7    C9    A    
C29   C57   S    
O6    Zn2   S    
C23   H23   S    
C62   H52   S    
C47   C51   A    
N4    C54   S    
C48   H6    S    
C63   C64   S    
C35   N4    S    
C46   C50   A    
C3    C46   A    
C49   H7    S    
C13   C17   A    
C1    C4    S    
C50   H8    S    
C6    H10   S    
C27   O5    A    
C2    C3    S    
C5    C10   A    
O2    Zn2   S    
C44   C48   A    
C56   H38   S    
C53   H28   S    
C32   C63   S    
C27   C42   S    
C30   C59   S    
O4    Zn2   S    
C33   C35   A    
C55   H36   S    
C34   C36   A    
C14   N2    A    
C37   C41   A    
C60   H47   S    
C58   H43   S    
C2    O2    A    
C57   H44   S    
C44   H2    S    
C48   C52   A    
C45   H3    S    
C37   C39   A    
C21   C24   A    
C46   H4    S    
C55   H34   S    
C14   H16   S    
C22   C23   A    
C2    O3    A    
N3    H25   S    
C43   C47   A    
C11   H13   S    
