data_mof_unit_5250.cif
_audit_creation_date              2012-10-26T21:01:01-0400
_audit_creation_method            fapswitch 2.2
_symmetry_space_group_name_H-M    P1
_symmetry_Int_Tables_number       1
_space_group_crystal_system       triclinic
_cell_length_a                    10.846809
_cell_length_b                    10.813567
_cell_length_c                    9.554002
_cell_angle_alpha                 89.973516
_cell_angle_beta                  88.467777
_cell_angle_gamma                 90.427139
_cell_volume                      1120.18259537

loop_
_atom_site_label
_atom_site_type_symbol
_atom_type_description
_atom_site_fract_x
_atom_site_fract_y
_atom_site_fract_z
_atom_type_partial_charge
C1    C     C_R   0.497385 0.262289 0.499961 0.550030
C2    C     C_R   0.421778 0.425965 0.076774 -0.028304
C3    C     C_R   0.421263 0.426493 0.928019 -0.019244
C4    C     C_R   0.265169 0.507042 0.502124 0.549895
C5    C     C_R   0.573049 0.581029 0.923845 0.114129
C6    C     C_3   0.710152 0.590223 0.912172 -0.249130
C7    C     C_3   0.709443 0.594430 0.071247 -0.005819
C8    C     C_R   0.495271 0.737591 0.500031 0.534978
C9    C     C_R   0.734826 0.500378 0.498085 0.543115
C10   C     C_2   0.932794 0.601578 0.443855 0.143421
C11   C     C_2   0.867773 0.502316 0.490862 -0.121678
C12   C     C_R   0.482964 0.129210 0.498690 -0.005040
C13   C     C_2   0.067242 0.588818 0.419087 0.132106
C14   C     C_2   0.132719 0.524514 0.512053 -0.126207
C15   C     C_R   0.459361 0.063409 0.622162 0.024284
C16   C     C_3   0.924957 0.823822 0.483732 -0.291299
C17   C     C_3   0.702360 0.827507 0.086335 -0.294508
C18   C     C_3   0.110863 0.590556 0.169718 -0.274992
C19   C     C_2   0.412904 0.875976 0.869700 0.228343
C20   C     C_R   0.482647 0.064279 0.371097 -0.163441
C21   C     C_R   0.479841 0.935346 0.371374 -0.163666
C22   C     C_R   0.478521 0.870331 0.498929 -0.014473
C23   C     C_R   0.455309 0.936386 0.622241 0.064895
C24   C     C_3   0.506476 0.928237 0.765622 -0.103304
C25   C     C_3   0.514173 0.069645 0.763870 -0.242818
C26   C     C_R   0.571459 0.583082 0.071479 0.189324
Cu1   Cu    Cu3+1 0.499990 0.499980 0.640670 0.932460
Cu2   Cu    Cu3+1 0.500010 0.500020 0.359330 0.938649
H1    H     H_    0.610618 0.105345 0.759694 0.111080
H2    H     H_    0.485266 0.887381 0.272351 0.141090
H3    H     H_    0.597789 0.882208 0.767209 0.079951
H4    H     H_    0.452461 0.116771 0.841502 0.166896
H5    H     H_    0.779853 0.717270 0.414728 0.276608
H6    H     H_    0.875420 0.908075 0.450784 0.134054
H7    H     H_    0.024219 0.836791 0.455995 0.185194
H8    H     H_    0.912938 0.813132 0.599015 0.132634
H9    H     H_    0.849643 0.714606 0.131901 0.275749
H10   H     H_    0.726541 0.899765 0.163620 0.152595
H11   H     H_    0.600740 0.821726 0.082827 0.133846
H12   H     H_    0.360448 0.363857 0.134372 0.119614
H13   H     H_    0.740598 0.856315 0.982393 0.119525
H14   H     H_    0.210788 0.687942 0.318197 0.268244
H15   H     H_    0.148150 0.650869 0.084294 0.154742
H16   H     H_    0.012298 0.570598 0.150066 0.142508
H17   H     H_    0.162545 0.502313 0.168545 0.147038
H18   H     H_    0.434631 0.794017 0.928825 0.100731
H19   H     H_    0.359261 0.365110 0.874134 0.121002
H20   H     H_    0.752992 0.504310 0.870394 0.131703
H21   H     H_    0.741811 0.675910 0.857870 0.130689
H22   H     H_    0.754275 0.512830 0.118609 0.142117
H23   H     H_    0.912696 0.415562 0.514019 0.052226
H24   H     H_    0.087713 0.490785 0.607833 0.069750
H25   H     H_    0.491155 0.112049 0.271588 0.139061
N1    N     N_R   0.500780 0.500930 0.147930 -0.245077
N2    N     N_R   0.500780 0.500890 0.852020 -0.235967
N3    N     N_2   0.874832 0.716934 0.413419 -0.487738
N4    N     N_2   0.754862 0.710719 0.128601 -0.497395
N5    N     N_2   0.123804 0.652273 0.302787 -0.485223
O1    O     O_R   0.500000 0.319640 0.618810 -0.501879
O2    O     O_R   0.500010 0.319680 0.381230 -0.509982
O3    O     O_R   0.321940 0.499980 0.618760 -0.498247
O4    O     O_R   0.321950 0.500020 0.381180 -0.501279
O5    O     O_R   0.499990 0.680320 0.618770 -0.501940
O6    O     O_R   0.500000 0.680360 0.381190 -0.499380
O7    O     O_R   0.678050 0.499980 0.618820 -0.504168
O8    O     O_R   0.678060 0.500020 0.381240 -0.487929
O9    O     O_2   0.311280 0.922585 0.886216 -0.514149

loop_
_geom_bond_atom_site_label_1
_geom_bond_atom_site_label_2
_ccdc_geom_bond_type
C1    C12   S    
Cu2   O8    S    
C23   C24   S    
C16   N3    S    
C2    H12   S    
C19   O9    D    
C6    C7    S    
Cu1   O7    S    
C18   H16   S    
C10   N3    S    
C21   H2    S    
C8    C22   S    
C12   C15   A    
C9    O8    A    
C16   H6    S    
H14   N5    S    
C25   H4    S    
C15   C23   A    
C19   C24   S    
C19   H18   S    
C16   H7    S    
Cu1   O1    S    
C13   C14   D    
C16   H8    S    
C4    C14   S    
C9    C11   S    
C12   C20   A    
C7    C26   S    
C6    H20   S    
H5    N3    S    
Cu2   O6    S    
C3    H19   S    
C8    O6    A    
C2    C3    A    
Cu1   N2    S    
C17   H10   S    
C1    O1    A    
C6    H21   S    
C25   H1    S    
C5    C6    S    
C26   N1    A    
C9    O7    A    
C15   C25   S    
C17   H13   S    
C11   H23   S    
C10   C11   D    
C14   H24   S    
C8    O5    A    
C5    C26   A    
C18   H17   S    
C4    O4    A    
Cu2   O2    S    
C24   C25   S    
C20   H25   S    
C2    N1    A    
C1    O2    A    
C18   H15   S    
Cu1   Cu2   S    
C17   H11   S    
C22   C23   A    
Cu1   O5    S    
C7    N4    S    
Cu2   N1    S    
C13   N5    S    
Cu1   O3    S    
C24   H3    S    
C20   C21   A    
C21   C22   A    
C3    N2    A    
C4    O3    A    
C5    N2    A    
H9    N4    S    
C7    H22   S    
C17   N4    S    
C18   N5    S    
C10   C13   S    
Cu2   O4    S    
