data_mof_unit_41224.cif
_audit_creation_date              2012-12-11T16:31:35-0500
_audit_creation_method            fapswitch 2.2
_symmetry_space_group_name_H-M    P1
_symmetry_Int_Tables_number       1
_space_group_crystal_system       triclinic
_cell_length_a                    7.022079
_cell_length_b                    18.687328
_cell_length_c                    19.791607
_cell_angle_alpha                 68.607266
_cell_angle_beta                  91.623006
_cell_angle_gamma                 91.361115
_cell_volume                      2416.97324756

loop_
_atom_site_label
_atom_site_type_symbol
_atom_type_description
_atom_site_fract_x
_atom_site_fract_y
_atom_site_fract_z
_atom_type_partial_charge
O1    O     O_R   0.488990 0.443920 0.942160 -0.546185
O2    O     O_R   0.823840 0.406530 0.087600 -0.511040
O3    O     O_R   0.999650 0.556080 0.057840 -0.522406
C1    C     C_R   0.656240 0.383676 0.115931 0.813312
O4    O     O_R   0.818390 0.434590 0.944530 -0.519179
O5    O     O_R   0.994160 0.584350 0.913750 -0.549106
C2    C     C_R   0.647477 0.422655 0.922448 0.741419
O6    O     O_R   0.494480 0.415650 0.086250 -0.526880
O7    O     O_3   0.662600 0.549100 0.990070 -0.365286
V1    V     V_3+5 0.935320 0.490890 0.001840 1.568433
O8    O     O_R   0.324240 0.593470 0.912400 -0.546239
C3    C     C_R   0.154746 0.616167 0.884923 0.651903
O9    O     O_R   0.329690 0.565410 0.055470 -0.515528
C4    C     C_R   0.163738 0.583074 0.072552 0.734496
V2    V     V_3+5 0.435990 0.509110 0.998160 1.553859
O10   O     O_3   0.158840 0.450900 0.009930 -0.360440
C5    C     C_3   0.976332 0.697940 0.240997 0.488514
C6    C     C_3   0.328828 0.734181 0.230874 0.180828
C7    C     C_3   0.309621 0.786684 0.275342 -0.405021
H1    H     H_    0.046673 0.697987 0.349331 0.173639
H2    H     H_    0.435396 0.762442 0.189970 0.179341
H3    H     H_    0.352007 0.755650 0.333069 0.251005
H4    H     H_    0.405474 0.837996 0.253476 0.182789
C8    C     C_1   0.099702 0.886634 0.368266 -0.124273
C9    C     C_3   0.143520 0.730894 0.187756 -0.033850
C10   C     C_3   0.979159 0.738296 0.298561 0.131544
C11   C     C_3   0.104598 0.812803 0.273191 0.042045
C12   C     C_3   0.052548 0.861832 0.192776 -0.345453
C13   C     C_3   0.100931 0.817604 0.141661 -0.399572
C14   C     C_1   0.097170 0.855620 0.323846 0.055876
C15   C     C_1   0.163308 0.682443 0.141978 0.146488
C16   C     C_1   0.164431 0.637767 0.109749 -0.022981
H5    H     H_    0.227311 0.845363 0.109093 0.177308
H6    H     H_    0.897997 0.874957 0.187843 0.206851
H7    H     H_    0.132128 0.917582 0.175341 0.159053
C17   C     C_R   0.972737 0.757038 0.877258 -0.163478
C18   C     C_R   0.881684 0.823213 0.875388 0.323383
C19   C     C_R   0.871652 0.886831 0.811167 -0.151064
C20   C     C_R   0.951372 0.884563 0.748366 -0.203270
C21   C     C_R   0.040262 0.817461 0.747971 0.072826
C22   C     C_R   0.051518 0.752265 0.813951 0.021517
C23   C     C_R   0.120627 0.815239 0.683705 -0.144042
C24   C     C_R   0.211772 0.747499 0.685609 0.022140
C25   C     C_R   0.224327 0.682476 0.751693 0.067499
C26   C     C_R   0.143918 0.684668 0.816011 -0.135244
C27   C     C_R   0.287264 0.742370 0.621934 -0.174072
C28   C     C_R   0.376937 0.676047 0.623498 0.327712
C29   C     C_R   0.390910 0.613005 0.688058 -0.109712
C30   C     C_R   0.313866 0.615523 0.751228 -0.199909
H8    H     H_    0.981480 0.710040 0.929025 0.134093
H9    H     H_    0.943018 0.936320 0.700470 0.125781
C31   C     C_R   0.629580 0.223132 0.118361 0.207666
C32   C     C_R   0.547212 0.155735 0.114708 -0.091400
C33   C     C_R   0.474846 0.099589 0.176358 -0.145281
C34   C     C_R   0.497294 0.107925 0.243047 -0.154519
C35   C     C_R   0.574899 0.176514 0.247668 0.038508
C36   C     C_R   0.619063 0.239567 0.182989 0.032800
C37   C     C_R   0.618860 0.181523 0.315483 -0.119972
C38   C     C_R   0.674717 0.252509 0.319411 0.051241
C39   C     C_R   0.665084 0.321717 0.256402 -0.052113
C40   C     C_R   0.649862 0.314831 0.185798 -0.141267
C41   C     C_R   0.726464 0.255466 0.387684 -0.200104
C42   C     C_R   0.733027 0.323646 0.398308 -0.178984
C43   C     C_R   0.686990 0.390459 0.341902 0.377669
C44   C     C_R   0.665615 0.392657 0.269648 0.169334
H10   H     H_    0.552512 0.144061 0.065065 0.143510
H11   H     H_    0.453963 0.060142 0.290827 0.109210
H12   H     H_    0.748585 0.204805 0.435687 0.145418
H13   H     H_    0.756641 0.323221 0.452828 0.181955
O11   O     O_R   0.770890 0.084490 0.414040 -0.540671
O12   O     O_R   0.445980 0.065450 0.555510 -0.527906
O13   O     O_R   0.270670 0.915620 0.586180 -0.539933
C45   C     C_R   0.616770 0.079536 0.575844 0.711287
O14   O     O_R   0.441480 0.093500 0.412450 -0.538104
O15   O     O_R   0.266140 0.943870 0.442100 -0.540623
C46   C     C_R   0.608575 0.112586 0.383102 0.681222
O16   O     O_R   0.775410 0.056240 0.558120 -0.544306
O17   O     O_3   0.602660 0.950990 0.510100 -0.365486
V3    V     V_3+5 0.329740 0.009100 0.498130 1.464169
O18   O     O_R   0.936120 0.934420 0.444240 -0.527737
C47   C     C_R   0.101429 0.923895 0.421085 0.715561
O19   O     O_R   0.940610 0.906370 0.587310 -0.535139
C48   C     C_R   0.110024 0.883741 0.614852 0.688148
V4    V     V_3+5 0.829110 0.990690 0.501470 1.471014
O20   O     O_3   0.106080 0.049010 0.489880 -0.370003
C49   C     C_3   0.828748 0.216374 0.737194 -0.403837
C50   C     C_3   0.566786 0.297195 0.658619 0.168959
C51   C     C_3   0.562257 0.346006 0.708879 0.142675
H14   H     H_    0.933829 0.241382 0.693393 0.206728
H15   H     H_    0.676760 0.323529 0.616977 0.120306
C52   C     C_1   0.633970 0.378191 0.875876 -0.100235
C53   C     C_3   0.627882 0.213040 0.703634 0.145511
C54   C     C_3   0.827353 0.265448 0.785846 -0.385990
C55   C     C_3   0.624833 0.296031 0.788157 0.140479
C56   C     C_3   0.487715 0.225577 0.816869 -0.304061
C57   C     C_3   0.487598 0.177748 0.766993 -0.320074
C58   C     C_1   0.627932 0.341185 0.836588 0.010832
C59   C     C_1   0.631678 0.165186 0.657786 -0.004576
C60   C     C_1   0.628997 0.126144 0.620387 -0.148262
H16   H     H_    0.528806 0.117648 0.799744 0.153021
H17   H     H_    0.876457 0.157221 0.770192 0.172234
H18   H     H_    0.877309 0.229957 0.841700 0.185690
H19   H     H_    0.340438 0.244485 0.820174 0.186570
Br1   Br    Br    0.752584 0.709694 0.178779 -0.454224
Br2   Br    Br    0.737252 0.754251 0.333394 -0.465117
H20   H     H_    0.460166 0.561430 0.689251 0.184365
Br3   Br    Br    0.771401 0.826657 0.961265 -0.566263
H21   H     H_    0.802899 0.938584 0.809878 0.142260
H22   H     H_    0.276139 0.789130 0.570057 0.140481
Br4   Br    Br    0.477996 0.671354 0.536549 -0.397502
Br5   Br    Br    0.980508 0.586738 0.291820 -0.292621
H23   H     H_    0.324245 0.563996 0.799272 0.134518
Br6   Br    Br    0.625159 0.471011 0.373852 -0.232392
Br7   Br    Br    0.819903 0.267427 0.047516 -0.585164
H24   H     H_    0.415297 0.046772 0.173461 0.125566
Br8   Br    Br    0.622162 0.492597 0.196495 -0.398083
H25   H     H_    0.929705 0.314467 0.764614 0.206215
Br9   Br    Br    0.332098 0.299731 0.601333 -0.468755
H26   H     H_    0.667324 0.394133 0.687771 0.121617
Br10  Br    Br    0.319813 0.397138 0.706887 -0.523762
H27   H     H_    0.340801 0.175042 0.745336 0.183892
H28   H     H_    0.532510 0.188514 0.872910 0.156981
Br11  Br    Br    0.416724 0.634061 0.294430 -0.260120
H29   H     H_    0.984398 0.824428 0.100918 0.247554

loop_
_geom_bond_atom_site_label_1
_geom_bond_atom_site_label_2
_ccdc_geom_bond_type
C25   C30   A    
C9    C15   S    
C20   H9    S    
C50   C51   S    
C54   C55   S    
C6    H2    S    
O2    C1    A    
C56   C57   S    
O18   V4    S    
O12   V3    S    
C53   C59   S    
C32   C33   A    
C31   C32   A    
C10   C11   S    
C18   C19   A    
O14   C46   A    
C57   H27   S    
C5    C10   S    
C17   C18   A    
C5    Br1   S    
C18   Br3   S    
O13   V3    S    
O5    C3    A    
C19   C20   A    
V2    O10   S    
C13   H29   S    
C13   H5    S    
C53   C57   S    
C35   C36   A    
C6    C7    S    
C27   C28   A    
O8    V2    S    
C29   H20   S    
C42   H13   S    
C12   H7    S    
O1    V2    S    
C51   Br10  S    
O11   V4    S    
O7    V1    S    
C1    O6    A    
C6    Br11  S    
C21   C23   A    
C12   H6    S    
C38   C39   A    
O9    C4    A    
C11   C14   S    
C17   C22   A    
C6    C9    S    
C54   H25   S    
C5    Br5   S    
C10   Br2   S    
C56   H19   S    
C9    C13   S    
C51   C55   S    
C17   H8    S    
C37   C46   S    
C7    H3    S    
V4    O20   S    
C50   Br9   S    
C20   C21   A    
O12   C45   A    
O17   V3    S    
O15   C47   A    
O16   V4    S    
C37   C38   A    
C1    C40   S    
C39   C40   A    
C7    H4    S    
C8    C47   S    
C41   C42   A    
C49   C54   S    
C28   C29   A    
C2    C52   S    
C33   H24   S    
C34   C35   A    
C52   C58   T    
C51   H26   S    
C32   H10   S    
O3    C4    A    
C30   H23   S    
C56   H28   S    
C21   C22   A    
C39   C44   A    
C59   C60   T    
O6    V2    S    
O19   V4    S    
O14   V3    S    
O9    V2    S    
C24   C25   A    
O11   C46   A    
C44   Br8   S    
C27   H22   S    
C23   C24   A    
O2    V1    S    
V3    O20   S    
C7    C11   S    
C25   C26   A    
O4    C2    A    
C45   C60   S    
C33   C34   A    
C12   C13   S    
C38   C41   A    
C45   O16   A    
C43   Br6   S    
O1    C2    A    
C15   C16   T    
C23   C48   S    
C4    C16   S    
O18   C47   A    
C49   H14   S    
C54   H18   S    
O5    V1    S    
C34   H11   S    
O8    C3    A    
C36   C40   A    
C3    C26   S    
C31   Br7   S    
C28   Br4   S    
C55   C58   S    
C41   H12   S    
C5    C9    S    
C43   C44   A    
O7    V2    S    
O4    V1    S    
O3    V1    S    
C49   C53   S    
H1    C10   S    
C29   C30   A    
C57   H16   S    
C35   C37   A    
C19   H21   S    
C55   C56   S    
C24   C27   A    
C8    C14   T    
O13   C48   A    
C31   C36   A    
C42   C43   A    
O17   V4    S    
O19   C48   A    
C50   H15   S    
C11   C12   S    
C22   C26   A    
V1    O10   S    
C50   C53   S    
C49   H17   S    
O15   V3    S    
