data_mof_unit_64413.cif
_audit_creation_date              2012-12-10T16:40:38-0500
_audit_creation_method            fapswitch 2.2
_symmetry_space_group_name_H-M    P1
_symmetry_Int_Tables_number       1
_space_group_crystal_system       triclinic
_cell_length_a                    10.824502
_cell_length_b                    10.833832
_cell_length_c                    19.444225
_cell_angle_alpha                 97.470821
_cell_angle_beta                  91.725815
_cell_angle_gamma                 98.583453
_cell_volume                      2232.70726313

loop_
_atom_site_label
_atom_site_type_symbol
_atom_type_description
_atom_site_fract_x
_atom_site_fract_y
_atom_site_fract_z
_atom_type_partial_charge
Br1   Br    Br    0.574238 0.227482 0.221218 -0.418084
Br2   Br    Br    0.521257 0.773683 0.110348 -0.453953
C1    C     C_R   0.473898 0.161682 0.483437 0.952466
C2    C     C_2   0.579108 0.518109 0.022298 0.431110
C3    C     C_2   0.476238 0.527434 0.984183 -0.122570
C4    C     C_R   0.524766 0.839466 0.515890 0.752422
C5    C     C_R   0.481197 0.520437 0.764333 -0.051975
C6    C     C_2   0.534163 0.977130 0.523127 0.276394
C7    C     C_2   0.466838 0.027266 0.478392 -0.319062
C8    C     C_2   0.972238 0.536911 0.521662 -0.340902
C9    C     C_2   0.030426 0.461666 0.478421 -0.274607
C10   C     C_R   0.164179 0.472458 0.484266 0.855662
C11   C     C_R   0.836994 0.526658 0.515521 0.899461
C12   C     C_R   0.567799 0.512976 0.097137 -0.094205
C13   C     C_R   0.486605 0.513902 0.688680 0.842153
C14   C     C_R   0.513353 0.486253 0.311469 0.847982
C15   C     C_R   0.528984 0.490698 0.237090 -0.132451
C16   C     C_R   0.515955 0.603103 0.210854 -0.229481
C17   C     C_R   0.535498 0.615029 0.141489 0.278300
C18   C     C_R   0.581729 0.400929 0.122934 -0.217377
C19   C     C_R   0.562086 0.388535 0.192412 0.286792
C20   C     C_R   0.380885 0.449020 0.865813 0.460216
C21   C     C_R   0.384712 0.445562 0.793460 -0.297050
C22   C     C_R   0.572671 0.601291 0.807923 -0.213759
C23   C     C_R   0.569902 0.604738 0.879517 -0.128995
C24   C     C_R   0.475987 0.527029 0.908645 0.152462
H1    H     H_    0.492798 0.683144 0.244690 0.202810
H2    H     H_    0.652506 0.003883 0.603240 0.356449
H3    H     H_    0.228955 0.325836 0.858322 0.343535
H4    H     H_    0.753208 0.496470 0.027464 0.353038
H5    H     H_    0.641287 0.668177 0.912289 0.202193
H6    H     H_    0.406878 0.969862 0.436772 0.126156
H7    H     H_    0.024811 0.606184 0.561551 0.151578
H8    H     H_    0.980162 0.391870 0.438086 0.173658
H9    H     H_    0.312848 0.384010 0.760067 0.169147
H10   H     H_    0.647165 0.661074 0.786729 0.183631
H11   H     H_    0.387422 0.527883 0.008890 0.168403
H12   H     H_    0.604628 0.321655 0.088354 0.203519
O1    O     O_3   0.500000 0.500000 0.500000 -0.506012
O2    O     O_R   0.410860 0.431690 0.648970 -0.637952
O3    O     O_R   0.578570 0.421470 0.344370 -0.604359
O4    O     O_R   0.567340 0.590030 0.662290 -0.647562
O5    O     O_R   0.443230 0.556810 0.344370 -0.645208
O6    O     O_3   0.610167 0.055733 0.574547 -0.759835
O7    O     O_3   0.287741 0.374970 0.895562 -0.756806
O8    O     O_3   0.689058 0.500607 0.990675 -0.746696
O9    O     O_R   0.229880 0.548640 0.449830 -0.627026
O10   O     O_R   0.775840 0.445670 0.468570 -0.629991
O11   O     O_R   0.404020 0.217050 0.524780 -0.631364
O12   O     O_R   0.590260 0.788640 0.556820 -0.647689
O13   O     O_R   0.555650 0.222860 0.449830 -0.614792
O14   O     O_R   0.450070 0.771450 0.468560 -0.648165
O15   O     O_R   0.213590 0.407490 0.524780 -0.636528
O16   O     O_R   0.780700 0.598200 0.556830 -0.642238
Zn1   Zn    Zn3+2 0.407400 0.592620 0.441700 0.984635
Zn2   Zn    Zn3+2 0.384130 0.390950 0.548790 1.000220
Zn3   Zn    Zn3+2 0.607710 0.617180 0.567810 0.987535
Zn4   Zn    Zn3+2 0.600760 0.399250 0.441700 1.034769

loop_
_geom_bond_atom_site_label_1
_geom_bond_atom_site_label_2
_ccdc_geom_bond_type
C23   H5    S    
C11   O10   A    
C9    C10   S    
O10   Zn4   S    
C1    C7    S    
C3    H11   S    
O11   Zn2   S    
C18   H12   S    
C10   O15   A    
O14   Zn1   S    
O16   Zn3   S    
C18   C19   A    
C5    C13   S    
C15   C16   A    
C1    O11   A    
O13   Zn4   S    
C2    O8    S    
C4    O12   A    
Br1   C19   S    
O12   Zn3   S    
C14   O5    A    
C22   H10   S    
C10   O9    A    
C5    C21   A    
C14   O3    A    
O4    Zn3   S    
O5    Zn1   S    
H2    O6    S    
O3    Zn4   S    
C11   O16   A    
C8    H7    S    
C21   H9    S    
C2    C12   S    
C15   C19   A    
C13   O2    A    
C8    C9    D    
C5    C22   A    
C3    C24   S    
O1    Zn3   S    
C12   C18   A    
C20   O7    S    
C22   C23   A    
C6    C7    D    
O9    Zn1   S    
C16   C17   A    
C20   C24   A    
O15   Zn2   S    
O1    Zn2   S    
C1    O13   A    
C20   C21   A    
C14   C15   S    
C4    C6    S    
C7    H6    S    
C4    O14   A    
C23   C24   A    
Br2   C17   S    
O1    Zn4   S    
C12   C17   A    
H4    O8    S    
C9    H8    S    
O1    Zn1   S    
C16   H1    S    
C6    O6    S    
C13   O4    A    
H3    O7    S    
C2    C3    D    
O2    Zn2   S    
C8    C11   S    
