data_mof_unit_16322.cif
_audit_creation_date              2012-10-26T20:03:23-0400
_audit_creation_method            fapswitch 2.2
_symmetry_space_group_name_H-M    P1
_symmetry_Int_Tables_number       1
_space_group_crystal_system       triclinic
_cell_length_a                    10.612869
_cell_length_b                    12.341362
_cell_length_c                    13.155831
_cell_angle_alpha                 116.717708
_cell_angle_beta                  77.670984
_cell_angle_gamma                 101.451809
_cell_volume                      1493.2277624

loop_
_atom_site_label
_atom_site_type_symbol
_atom_type_description
_atom_site_fract_x
_atom_site_fract_y
_atom_site_fract_z
_atom_type_partial_charge
C1    C     C_R   0.510424 0.854855 0.286445 0.527677
C2    C     C_R   0.490506 0.567133 0.008540 0.016007
C3    C     C_R   0.455093 0.650313 0.123837 0.017839
C4    C     C_R   0.740112 0.000687 0.501381 0.551414
C5    C     C_R   0.451045 0.440330 0.975830 0.027530
C6    C     C_R   0.363987 0.400276 0.053610 0.052852
C7    C     C_R   0.316512 0.485474 0.161500 -0.140524
C8    C     C_R   0.360300 0.608704 0.195844 -0.119738
C9    C     C_R   0.497504 0.351752 0.868550 -0.139773
C10   C     C_R   0.366069 0.189630 0.912119 -0.143248
C11   C     C_R   0.514050 0.773128 0.163019 -0.020241
C12   C     C_3   0.018648 0.890016 0.489918 -0.115199
C13   C     C_R   0.693932 0.340746 0.319154 -0.149967
C14   C     C_R   0.323157 0.761212 0.644181 0.031477
C15   C     C_R   0.272414 0.660994 0.667410 -0.144317
C16   C     C_R   0.480256 0.145151 0.713517 0.542837
C17   C     C_R   0.327660 0.550962 0.607061 -0.004165
C18   C     C_R   0.446062 0.546156 0.529251 0.004743
C19   C     C_R   0.489035 0.650663 0.503996 0.160903
C20   C     C_R   0.521630 0.443288 0.471698 -0.013728
C21   C     C_R   0.623506 0.441465 0.381372 0.035228
C22   C     C_R   0.657595 0.541353 0.355161 -0.174027
C23   C     C_3   0.962624 0.912411 0.402311 -0.151696
C24   C     C_R   0.594913 0.644737 0.417561 -0.099159
C25   C     C_R   0.506381 0.343971 0.501763 0.034995
C26   C     C_R   0.666355 0.242521 0.347871 0.039787
C27   C     C_R   0.259815 0.999554 0.499291 0.550406
C28   C     C_3   0.981080 0.110513 0.513044 -0.113585
C29   C     C_3   0.068994 0.021397 0.412401 -0.138691
C30   C     C_3   0.122859 0.999300 0.500034 0.046140
C31   C     C_3   0.036529 0.086944 0.599597 0.010505
C32   C     C_3   0.931256 0.979079 0.589478 0.021240
C33   C     C_3   0.680877 0.784957 0.880545 -0.411169
C34   C     C_3   0.876685 0.001183 0.502678 0.045762
C35   C     C_3   0.246000 0.441399 0.619128 -0.416089
C36   C     C_3   0.081163 0.183679 0.711640 -0.403342
C37   C     C_3   0.852034 0.954694 0.689668 -0.393423
C38   C     C_R   0.323368 0.275333 0.021616 -0.134133
C39   C     C_R   0.451565 0.228256 0.834714 -0.005012
C40   C     C_R   0.586965 0.816150 0.083287 -0.115826
C41   C     C_R   0.607374 0.738008 0.966607 -0.001842
C42   C     C_R   0.561897 0.614084 0.929950 -0.108377
Cu1   Cu    Cu3+1 0.529830 0.098270 0.475420 0.914382
Cu2   Cu    Cu3+1 0.470170 0.901730 0.524580 0.899331
H1    H     H_    0.569718 0.376365 0.808882 0.116046
H2    H     H_    0.185124 0.667742 0.729243 0.097441
H3    H     H_    0.632260 0.718114 0.393894 0.186268
H4    H     H_    0.036215 0.800059 0.480654 0.115159
H5    H     H_    0.929096 0.840808 0.321348 0.102251
H6    H     H_    0.328794 0.094180 0.886722 0.117984
H7    H     H_    0.128568 0.038388 0.339514 0.116551
H8    H     H_    0.711271 0.884854 0.922042 0.122660
H9    H     H_    0.769165 0.737838 0.836579 0.125772
H10   H     H_    0.618470 0.766787 0.815402 0.141271
H11   H     H_    0.736824 0.541277 0.287634 0.106746
H12   H     H_    0.629839 0.910569 0.112074 0.124564
H13   H     H_    0.253270 0.358143 0.536688 0.137262
H14   H     H_    0.273550 0.429518 0.689919 0.120997
H15   H     H_    0.141215 0.454122 0.641788 0.125622
H16   H     H_    0.110561 0.139026 0.758293 0.130874
H17   H     H_    0.165586 0.244126 0.692985 0.134352
H18   H     H_    0.000848 0.238599 0.766042 0.127627
H19   H     H_    0.918177 0.945276 0.739409 0.115510
H20   H     H_    0.794588 0.031722 0.746692 0.136067
H21   H     H_    0.785202 0.868923 0.656781 0.149449
H22   H     H_    0.245740 0.456748 0.220023 0.104781
H23   H     H_    0.580201 0.557519 0.838863 0.104229
H24   H     H_    0.256144 0.244287 0.080332 0.102647
H25   H     H_    0.315426 0.670694 0.278262 0.150555
H26   H     H_    0.718667 0.163547 0.299030 0.117063
H27   H     H_    0.770117 0.338204 0.248832 0.087970
H28   H     H_    0.444206 0.343393 0.577179 0.131502
H29   H     H_    0.275882 0.843587 0.688786 0.126428
H30   H     H_    0.963732 0.200901 0.523222 0.116537
N1    N     N_R   0.575030 0.246270 0.438190 -0.234843
N2    N     N_R   0.425760 0.754330 0.561190 -0.240800
O1    O     O_R   0.537510 0.972500 0.318130 -0.504043
O2    O     O_R   0.487140 0.806530 0.359650 -0.524111
O3    O     O_R   0.708330 0.082950 0.479220 -0.502929
O4    O     O_R   0.657960 0.916980 0.520740 -0.520818
O5    O     O_R   0.512860 0.193470 0.640350 -0.512808
O6    O     O_R   0.462490 0.027500 0.681870 -0.505441
O7    O     O_R   0.342040 0.083020 0.479260 -0.503196
O8    O     O_R   0.291670 0.917050 0.520780 -0.516974

loop_
_geom_bond_atom_site_label_1
_geom_bond_atom_site_label_2
_ccdc_geom_bond_type
C9    H1    S    
C1    O1    A    
C41   C42   A    
C1    C11   S    
C12   H4    S    
C28   H30   S    
C7    C8    A    
C33   H8    S    
C12   C23   S    
C8    H25   S    
C35   H14   S    
C23   C29   S    
C28   C29   S    
C4    O4    A    
Cu2   O6    S    
C5    C6    A    
C23   H5    S    
C20   C25   A    
Cu1   O3    S    
C9    C39   A    
Cu1   O7    S    
C35   H15   S    
C18   C19   A    
Cu2   N2    S    
C40   H12   S    
C37   H21   S    
C6    C38   A    
C28   C34   S    
C21   C22   A    
C12   C32   S    
C27   C30   S    
Cu1   N1    S    
C1    O2    A    
C36   H18   S    
C37   H19   S    
C26   N1    A    
C33   H9    S    
C4    C34   S    
C14   H29   S    
Cu2   O4    S    
C4    O3    A    
C3    C8    A    
C13   H27   S    
Cu2   O8    S    
C10   C39   A    
C25   N1    A    
C14   N2    A    
Cu1   Cu2   S    
C5    C9    A    
C29   C30   S    
C31   C32   S    
C23   C34   S    
C16   O6    A    
C17   C18   A    
C13   C21   A    
C25   H28   S    
C32   C37   S    
C6    C7    A    
C40   C41   A    
C38   H24   S    
C42   H23   S    
C26   H26   S    
C22   C24   A    
C13   C26   A    
C2    C5    A    
C36   H17   S    
C10   H6    S    
C37   H20   S    
C29   H7    S    
C33   H10   S    
C15   C17   A    
C27   O8    A    
C19   N2    A    
C12   C30   S    
C14   C15   A    
C24   H3    S    
C28   C31   S    
C36   H16   S    
C22   H11   S    
Cu1   O1    S    
C35   H13   S    
C10   C38   A    
C33   C41   S    
C27   O7    A    
C2    C3    A    
C7    H22   S    
C30   C31   S    
C2    C42   A    
Cu1   O5    S    
Cu2   O2    S    
C16   O5    A    
C19   C24   A    
C18   C20   A    
C11   C40   A    
C3    C11   A    
C16   C39   S    
C20   C21   A    
C31   C36   S    
C17   C35   S    
C15   H2    S    
C32   C34   S    
