data_mof_unit_66132.cif
_audit_creation_date              2012-12-10T19:01:15-0500
_audit_creation_method            fapswitch 2.2
_symmetry_space_group_name_H-M    P1
_symmetry_Int_Tables_number       1
_space_group_crystal_system       triclinic
_cell_length_a                    15.885057
_cell_length_b                    14.259599
_cell_length_c                    13.381965
_cell_angle_alpha                 89.99598
_cell_angle_beta                  89.916282
_cell_angle_gamma                 89.999174
_cell_volume                      3031.20644169

loop_
_atom_site_label
_atom_site_type_symbol
_atom_type_description
_atom_site_fract_x
_atom_site_fract_y
_atom_site_fract_z
_atom_type_partial_charge
C1    C     C_R   0.500002 0.326570 0.500003 0.920822
C2    C     C_1   0.500001 0.499977 0.950478 -0.020636
C3    C     C_R   0.336100 0.499198 0.500089 0.933373
C4    C     C_R   0.663897 0.499230 0.499909 0.934768
C5    C     C_R   0.500004 0.673449 0.499997 0.932778
C6    C     C_3   0.047935 0.462950 0.601472 -0.367583
C7    C     C_3   0.050128 0.443592 0.412903 -0.357119
C8    C     C_3   0.949429 0.469260 0.602229 -0.365941
C9    C     C_3   0.951742 0.436554 0.416959 -0.285734
C10   C     C_1   0.751806 0.501927 0.499565 -0.144310
C11   C     C_1   0.248190 0.502100 0.500409 -0.115795
C12   C     C_1   0.500014 0.141350 0.500006 0.013014
C13   C     C_3   0.082657 0.507493 0.501318 -0.036642
C14   C     C_3   0.917389 0.507084 0.498369 0.005591
C15   C     C_3   0.950793 0.609827 0.477453 0.663298
C16   C     C_3   0.050340 0.611155 0.487081 0.760037
C17   C     C_1   0.826339 0.504493 0.498845 0.037358
C18   C     C_1   0.173663 0.504832 0.501034 0.135447
C19   C     C_1   0.500009 0.225917 0.500007 -0.200945
C20   C     C_2   0.087084 0.468042 0.310651 1.072698
C21   C     C_2   0.090375 0.490197 0.699696 0.979769
C22   C     C_2   0.908258 0.434926 0.315135 1.051071
C23   C     C_1   0.500019 0.042289 0.500001 0.030783
C24   C     C_2   0.908673 0.514875 0.693769 1.039367
C25   C     C_1   0.500021 0.957727 0.499997 0.032030
C26   C     C_1   0.500018 0.858667 0.499993 0.016555
C27   C     C_1   0.500012 0.774100 0.499992 -0.196975
C28   C     C_1   0.500002 0.499977 0.169449 0.110871
C29   C     C_1   0.500000 0.499978 0.830551 0.110057
C30   C     C_1   0.500003 0.499976 0.049522 -0.020979
H1    H     H_    0.927429 0.394998 0.607165 0.171454
H2    H     H_    0.077765 0.717146 0.399773 0.365912
H3    H     H_    0.855066 0.684099 0.526748 0.350450
H4    H     H_    0.932401 0.705564 0.374370 0.354651
H5    H     H_    0.937287 0.364894 0.445651 0.123863
H6    H     H_    0.063342 0.386756 0.596539 0.153502
H7    H     H_    0.073833 0.371263 0.428079 0.154761
H8    H     H_    0.081383 0.545540 0.184544 0.355724
H9    H     H_    0.178342 0.565632 0.773103 0.355471
H10   H     H_    0.823254 0.490054 0.219704 0.349833
H11   H     H_    0.901256 0.623772 0.789618 0.360623
H12   H     H_    0.045329 0.655066 0.626929 0.402706
N1    N     N_1   0.500000 0.499980 0.261870 -0.057249
N2    N     N_1   0.500000 0.499980 0.738130 -0.057590
O1    O     O_R   0.500000 0.373720 0.576470 -0.597984
O2    O     O_R   0.050675 0.537192 0.250406 -0.699838
O3    O     O_2   0.069398 0.449943 0.776538 -0.587280
O4    O     O_R   0.155529 0.556091 0.703126 -0.768658
O5    O     O_2   0.926043 0.372422 0.256130 -0.616740
O6    O     O_R   0.846916 0.500826 0.289078 -0.724124
O7    O     O_2   0.853582 0.472276 0.738873 -0.606645
O8    O     O_R   0.933614 0.603007 0.728128 -0.767505
O9    O     O_3   0.078268 0.668716 0.566386 -0.704264
O10   O     O_3   0.086695 0.648197 0.399437 -0.718970
O11   O     O_3   0.914736 0.673882 0.545830 -0.770439
O12   O     O_R   0.500000 0.373720 0.423530 -0.596746
O13   O     O_3   0.927389 0.636325 0.379695 -0.689884
O14   O     O_R   0.377150 0.500010 0.576490 -0.601717
O15   O     O_R   0.377150 0.500010 0.423510 -0.597428
O16   O     O_R   0.622850 0.500010 0.576490 -0.601831
O17   O     O_R   0.622850 0.500010 0.423510 -0.600245
O18   O     O_R   0.500000 0.626290 0.576440 -0.595252
O19   O     O_R   0.500000 0.626290 0.423560 -0.595803
O20   O     O_2   0.148745 0.425159 0.280353 -0.624337
Zn1   Zn    Zn3+2 0.500000 0.500010 0.602090 1.005913
Zn2   Zn    Zn3+2 0.500000 0.500010 0.397910 1.008635

loop_
_geom_bond_atom_site_label_1
_geom_bond_atom_site_label_2
_ccdc_geom_bond_type
C24   O8    S    
H4    O13   S    
C6    C8    S    
C9    C14   S    
O12   Zn2   S    
C11   C18   T    
H3    O11   S    
O14   Zn1   S    
C12   C23   S    
H11   O8    S    
C22   O6    S    
C2    C30   T    
C21   O4    S    
C20   O20   D    
C4    O16   A    
C24   O7    D    
C28   C30   S    
N2    Zn1   S    
O19   Zn2   S    
C29   N2    T    
C16   O9    S    
C6    C13   S    
C15   O13   S    
C14   C17   S    
C1    O1    A    
C26   C27   T    
C13   C18   S    
N1    Zn2   S    
H10   O6    S    
O17   Zn2   S    
C12   C19   T    
H2    O10   S    
C8    C24   S    
C1    O12   A    
C6    H6    S    
O16   Zn1   S    
C2    C29   S    
H12   O9    S    
O1    Zn1   S    
C16   O10   S    
C9    C22   S    
H8    O2    S    
C1    C19   S    
C10   C17   T    
C4    C10   S    
C15   C16   S    
C3    O14   A    
C7    C13   S    
C23   C25   T    
C3    C11   S    
C5    O19   A    
C9    H5    S    
C7    C20   S    
C13   C16   S    
C22   O5    D    
C7    C9    S    
C3    O15   A    
C14   C15   S    
H9    O4    S    
C8    C14   S    
C28   N1    T    
O18   Zn1   S    
C21   O3    D    
C25   C26   S    
C5    C27   S    
C6    C21   S    
C4    O17   A    
C20   O2    S    
C8    H1    S    
C5    O18   A    
O15   Zn2   S    
C7    H7    S    
C15   O11   S    
