data_mof_unit_30194.cif
_audit_creation_date              2012-12-10T20:27:14-0500
_audit_creation_method            fapswitch 2.2
_symmetry_space_group_name_H-M    P1
_symmetry_Int_Tables_number       1
_space_group_crystal_system       triclinic
_cell_length_a                    10.786369
_cell_length_b                    10.748583
_cell_length_c                    9.945262
_cell_angle_alpha                 90.42101
_cell_angle_beta                  102.19713
_cell_angle_gamma                 90.20152
_cell_volume                      1126.96194142

loop_
_atom_site_label
_atom_site_type_symbol
_atom_type_description
_atom_site_fract_x
_atom_site_fract_y
_atom_site_fract_z
_atom_type_partial_charge
C1    C     C_R   0.512309 0.260934 0.502390 0.902177
C2    C     C_R   0.571671 0.582291 0.090140 -0.063430
C3    C     C_R   0.576614 0.579375 0.948170 0.168476
C4    C     C_R   0.259795 0.506675 0.443838 0.986997
C5    C     C_R   0.448471 0.402627 0.919262 0.088755
C6    C     C_3   0.325969 0.328394 0.892498 -0.070867
C7    C     C_3   0.320831 0.345266 0.043104 -0.048104
C8    C     C_R   0.502702 0.740452 0.500899 0.891964
C9    C     C_R   0.740081 0.505697 0.555608 0.907918
C10   C     C_2   0.123510 0.517779 0.412698 -0.393986
C11   C     C_2   0.061992 0.578191 0.496725 0.253424
C12   C     C_R   0.542263 0.130232 0.510639 -0.093673
C13   C     C_2   0.873834 0.532469 0.581976 -0.294397
C14   C     C_2   0.927494 0.557799 0.475633 -0.197344
C15   C     C_R   0.534423 0.066573 0.629738 0.068611
C16   C     C_R   0.569042 0.064029 0.398414 -0.166411
C17   C     C_R   0.559444 0.934735 0.396263 -0.168431
C18   C     C_R   0.522536 0.872970 0.506094 -0.127885
C19   C     C_R   0.517790 0.939263 0.626142 0.071606
C20   C     C_3   0.410129 0.952887 0.700772 0.282481
C21   C     C_3   0.441380 0.089042 0.716749 -0.546442
C22   C     C_R   0.448120 0.403638 0.059514 0.110013
H1    H     H_    0.874423 0.552320 0.369750 0.172729
H2    H     H_    0.361542 0.150122 0.668326 0.210795
H3    H     H_    0.634001 0.710243 0.826113 0.246809
H4    H     H_    0.740097 0.594571 0.880616 0.210275
H5    H     H_    0.217147 0.972552 0.656505 0.232281
H6    H     H_    0.280168 0.976923 0.515922 0.194629
H7    H     H_    0.493084 0.116796 0.821504 0.218151
H8    H     H_    0.628835 0.649066 0.158654 0.153207
H9    H     H_    0.344031 0.230294 0.873561 0.168649
H10   H     H_    0.249002 0.413948 0.060910 0.186571
H11   H     H_    0.926630 0.535651 0.687578 0.198507
H12   H     H_    0.071267 0.468031 0.322579 0.144043
H13   H     H_    0.586774 0.111617 0.308705 0.188561
H14   H     H_    0.573259 0.884525 0.305771 0.186541
I1    I     I_    0.151418 0.371965 0.762428 -0.349573
I2    I     I_    0.310752 0.170357 0.142366 -0.337199
I3    I     I_    0.145109 0.694961 0.665762 -0.276544
I4    I     I_    0.428780 0.867872 0.898047 -0.324422
N1    N     N_R   0.499160 0.499140 0.142600 -0.128097
N2    N     N_R   0.499160 0.499180 0.856960 -0.096675
N3    N     N_3   0.672706 0.653436 0.907889 -0.452979
N4    N     N_3   0.285794 0.932034 0.610118 -0.406932
O1    O     O_R   0.500020 0.316790 0.614700 -0.616048
O2    O     O_R   0.500000 0.316760 0.385350 -0.598157
O3    O     O_R   0.317820 0.500020 0.571850 -0.548721
O4    O     O_R   0.317800 0.499980 0.342510 -0.609216
O5    O     O_R   0.500000 0.683240 0.614650 -0.612684
O6    O     O_R   0.499980 0.683210 0.385300 -0.622136
O7    O     O_R   0.682200 0.500020 0.657490 -0.639569
O8    O     O_R   0.682180 0.499980 0.428150 -0.624995
Zn1   Zn    Zn3+2 0.500010 0.500020 0.653140 0.994853
Zn2   Zn    Zn3+2 0.499990 0.499980 0.346860 0.975892

loop_
_geom_bond_atom_site_label_1
_geom_bond_atom_site_label_2
_ccdc_geom_bond_type
C14   H1    S    
O4    Zn2   S    
C5    N2    A    
C3    N2    A    
C13   H11   S    
C6    C7    S    
C17   H14   S    
C7    C22   S    
C19   C20   S    
C9    O7    A    
C12   C15   A    
C2    H8    S    
O3    Zn1   S    
C3    N3    S    
O2    Zn2   S    
C2    C3    A    
C6    I1    S    
O1    Zn1   S    
C10   H12   S    
C13   C14   D    
C11   I3    S    
N1    Zn2   S    
C1    C12   S    
C1    O1    A    
O6    Zn2   S    
C9    O8    A    
C21   H7    S    
O5    Zn1   S    
H5    N4    S    
H3    N3    S    
C20   N4    S    
C7    I2    S    
O8    Zn2   S    
H4    N3    S    
C6    H9    S    
C16   H13   S    
C5    C6    S    
C1    O2    A    
C11   C14   S    
N2    Zn1   S    
C22   N1    A    
C10   C11   D    
C2    N1    A    
C4    C10   S    
C8    O6    A    
C15   C21   S    
C20   C21   S    
C17   C18   A    
C18   C19   A    
C4    O4    A    
C21   H2    S    
C9    C13   S    
C7    H10   S    
C15   C19   A    
C20   I4    S    
C8    O5    A    
H6    N4    S    
C8    C18   S    
C5    C22   A    
C12   C16   A    
C16   C17   A    
O7    Zn1   S    
C4    O3    A    
