data_mof_unit_46945.cif
_audit_creation_date              2012-12-11T14:17:26-0500
_audit_creation_method            fapswitch 2.2
_symmetry_space_group_name_H-M    P1
_symmetry_Int_Tables_number       1
_space_group_crystal_system       triclinic
_cell_length_a                    6.94491
_cell_length_b                    13.682783
_cell_length_c                    20.453093
_cell_angle_alpha                 102.277058
_cell_angle_beta                  90.360956
_cell_angle_gamma                 90.738957
_cell_volume                      1898.88225382

loop_
_atom_site_label
_atom_site_type_symbol
_atom_type_description
_atom_site_fract_x
_atom_site_fract_y
_atom_site_fract_z
_atom_type_partial_charge
O1    O     O_R   0.506860 0.599390 0.449240 -0.543239
O2    O     O_R   0.180220 0.594600 0.586780 -0.524844
O3    O     O_R   0.004500 0.400610 0.550760 -0.525973
C1    C     C_R   0.348915 0.609703 0.615263 0.798984
O4    O     O_R   0.177490 0.611290 0.451970 -0.540714
O5    O     O_R   0.001750 0.417420 0.414990 -0.566072
C2    C     C_R   0.346861 0.637922 0.435801 0.831775
O6    O     O_R   0.509610 0.582580 0.585010 -0.549305
O7    O     O_3   0.337420 0.436370 0.488020 -0.379935
V1    V     V_3+5 0.064680 0.511800 0.502220 1.549076
O8    O     O_R   0.671710 0.405400 0.413220 -0.515074
C3    C     C_R   0.838707 0.386522 0.385824 0.632499
O9    O     O_R   0.674440 0.388710 0.548030 -0.547896
C4    C     C_R   0.843256 0.362464 0.565176 0.747915
V2    V     V_3+5 0.564010 0.488200 0.497780 1.553339
O10   O     O_3   0.841140 0.563630 0.511980 -0.375137
C5    C     C_R   0.951375 0.121001 0.616112 -0.095496
H1    H     H_    0.950878 0.170618 0.523461 0.161892
H2    H     H_    0.995418 0.999990 0.700014 0.126963
H3    H     H_    0.998369 0.046744 0.592392 0.164201
C6    C     C_R   0.855844 0.285898 0.605448 -0.100441
C7    C     C_R   0.821345 0.317499 0.930922 -0.141370
C8    C     C_R   0.809238 0.392145 0.894164 -0.230719
C9    C     C_R   0.829109 0.371322 0.825007 0.626826
C10   C     C_R   0.856601 0.271935 0.788645 -0.044293
C11   C     C_R   0.881021 0.195762 0.826190 -0.035079
C12   C     C_R   0.867715 0.245439 0.716879 0.084580
C13   C     C_R   0.924486 0.147146 0.685623 0.097959
C14   C     C_R   0.954192 0.075315 0.723692 -0.130011
C15   C     C_R   0.928856 0.098372 0.792399 -0.077215
C16   C     C_R   0.822827 0.311856 0.674455 -0.112047
C17   C     C_R   0.922367 0.190835 0.576623 -0.121966
C18   C     C_R   0.859613 0.218224 0.897035 -0.101927
H4    H     H_    0.760933 0.383956 0.692768 0.207430
H5    H     H_    0.787518 0.469122 0.919680 0.152320
H6    H     H_    0.951107 0.038874 0.818935 0.112683
C19   C     C_2   0.998427 0.292095 0.283797 -0.247813
C20   C     C_2   0.837016 0.328537 0.315954 0.491704
H7    H     H_    0.136644 0.307196 0.309338 0.148339
C21   C     C_2   0.002248 0.238628 0.212239 0.585849
C22   C     C_2   0.865155 0.171552 0.183909 0.404353
C23   C     C_2   0.248974 0.748292 0.798649 -0.294101
C24   C     C_2   0.352637 0.834493 0.814990 -0.134795
H8    H     H_    0.176427 0.722081 0.838847 0.148447
C25   C     C_2   0.217895 0.685835 0.730050 -0.016609
C26   C     C_2   0.363906 0.668199 0.685161 -0.311495
H9    H     H_    0.506903 0.696831 0.701383 0.125825
C27   C     C_R   0.352662 0.892215 0.397037 0.591412
C28   C     C_R   0.356597 0.717478 0.398925 -0.293850
C29   C     C_R   0.354238 0.692855 0.078161 -0.387300
C30   C     C_R   0.326385 0.618044 0.113204 0.640608
C31   C     C_R   0.309843 0.641270 0.182464 0.544790
C32   C     C_R   0.333020 0.741795 0.219433 -0.090215
C33   C     C_R   0.338753 0.819973 0.182894 -0.060205
C34   C     C_R   0.343266 0.766905 0.291038 0.052616
C35   C     C_R   0.337961 0.869018 0.325953 -0.122946
C36   C     C_R   0.317731 0.944978 0.289471 -0.027852
C37   C     C_R   0.321639 0.920904 0.218988 -0.074178
C38   C     C_R   0.364567 0.693180 0.329470 -0.240086
C39   C     C_R   0.353342 0.816676 0.432760 0.534360
C40   C     C_R   0.354565 0.793131 0.111175 -0.173666
H10   H     H_    0.391504 0.616028 0.307544 0.233960
H11   H     H_    0.365810 0.672571 0.024127 0.164730
O11   O     O_R   0.203230 0.917310 0.915020 -0.564465
O12   O     O_R   0.535500 0.888690 0.048040 -0.543370
O13   O     O_R   0.711080 0.082610 0.085000 -0.489717
C41   C     C_R   0.366882 0.866070 0.067913 0.756873
O14   O     O_R   0.532630 0.905370 0.913230 -0.538723
O15   O     O_R   0.708190 0.099410 0.949230 -0.532052
C42   C     C_R   0.363369 0.887554 0.885821 0.741192
O16   O     O_R   0.206120 0.900510 0.050790 -0.562688
O17   O     O_3   0.375360 0.063570 0.011990 -0.339984
V3    V     V_3+5 0.648170 0.988200 0.997780 1.585274
O18   O     O_R   0.038240 0.111390 0.951940 -0.541930
C43   C     C_R   0.869576 0.137630 0.934821 0.788568
O19   O     O_R   0.041120 0.094710 0.086750 -0.527308
C44   C     C_R   0.873506 0.114864 0.113761 0.746975
V4    V     V_3+5 0.148810 0.011930 0.002180 1.577182
O20   O     O_3   0.871750 0.936430 0.988010 -0.404195
F1    F     F_    0.665592 0.320734 0.282480 -0.586890
F2    F     F_    0.157255 0.256225 0.175843 -0.587454
F3    F     F_    0.720436 0.146502 0.221895 -0.622353
C45   C     C_2   0.435112 0.885985 0.764214 0.333069
H12   H     H_    0.395410 0.863250 0.711817 0.092834
O21   O     O_2   0.545121 0.957365 0.781010 -0.535305
C46   C     C_2   0.027244 0.634516 0.718927 0.495430
H13   H     H_    0.900432 0.672945 0.741452 0.033976
O22   O     O_2   0.011493 0.547366 0.689351 -0.512265
F4    F     F_    0.356039 0.840452 0.500728 -0.661652
C47   C     C_2   0.277011 0.050203 0.323568 0.506740
H14   H     H_    0.363562 0.111265 0.312609 0.121793
O23   O     O_2   0.139381 0.069235 0.360770 -0.505300
F5    F     F_    0.371926 0.987396 0.433021 -0.625870
F6    F     F_    0.251919 0.565018 0.210839 -0.629459
F7    F     F_    0.308889 0.521618 0.079333 -0.619578
C48   C     C_2   0.263357 0.000193 0.185053 0.412879
H15   H     H_    0.114540 0.001295 0.170008 -0.002093
O24   O     O_2   0.377500 0.064286 0.175919 -0.443266
C49   C     C_2   0.797713 0.349082 0.004720 0.524477
H16   H     H_    0.754678 0.425064 0.026294 0.088283
O25   O     O_2   0.827812 0.292866 0.042492 -0.515326
F8    F     F_    0.835452 0.451815 0.796361 -0.695870

loop_
_geom_bond_atom_site_label_1
_geom_bond_atom_site_label_2
_ccdc_geom_bond_type
C34   C35   A    
C34   C38   A    
C24   C45   S    
C1    O6    A    
C36   C37   A    
C1    C26   S    
C32   C33   A    
C6    C16   A    
C19   C20   D    
C28   C39   A    
C4    C6    S    
C13   C14   A    
O19   V4    S    
C19   C21   S    
C22   C44   S    
C46   O22   D    
V2    O10   S    
C5    H3    S    
O12   V3    S    
C35   C36   A    
O13   C44   A    
C37   C48   S    
O17   V4    S    
O8    V2    S    
C18   C43   S    
C49   H16   S    
C24   C42   S    
O12   C41   A    
C48   O24   D    
C8    C9    A    
C31   F6    S    
O1    V2    S    
O11   C42   A    
O7    V1    S    
C41   O16   A    
O9    C4    A    
C3    C20   S    
C29   H11   S    
C23   H8    S    
C27   C39   A    
C32   C34   A    
C6    C17   A    
C27   F5    S    
C12   C16   A    
C30   C31   A    
C9    C10   A    
C2    C28   S    
C36   C47   S    
O4    C2    A    
C46   H13   S    
O14   V3    S    
C39   F4    S    
O13   V3    S    
C23   C25   S    
O2    C1    A    
C14   C15   A    
C40   C41   S    
C11   C18   A    
C47   O23   D    
C45   H12   S    
C48   H15   S    
C29   C30   A    
V3    O20   S    
C16   H4    S    
O19   C44   A    
O15   V3    S    
O3    C4    A    
C21   C22   D    
C45   O21   D    
C11   C15   A    
O6    V2    S    
C8    H5    S    
O9    V2    S    
C5    C17   A    
H1    C17   S    
C23   C24   D    
O2    V1    S    
C31   C32   A    
C33   C37   A    
C27   C35   A    
C7    C18   A    
C26   H9    S    
C38   H10   S    
C7    C49   S    
C49   O25   D    
O1    C2    A    
C5    C13   A    
O11   V4    S    
C21   F2    S    
O17   V3    S    
O5    V1    S    
O8    C3    A    
C33   C40   A    
C10   C12   A    
C28   C38   A    
C15   H6    S    
C25   C46   S    
C10   C11   A    
O4    V1    S    
C19   H7    S    
O3    V1    S    
V1    O10   S    
O5    C3    A    
V4    O20   S    
C47   H14   S    
C20   F1    S    
C22   F3    S    
O15   C43   A    
C9    F8    S    
O7    V2    S    
C25   C26   D    
O18   C43   A    
O14   C42   A    
O18   V4    S    
C12   C13   A    
C29   C40   A    
C7    C8    A    
O16   V4    S    
C30   F7    S    
H2    C14   S    
