data_mof_unit_64999.cif
_audit_creation_date              2012-12-10T20:01:42-0500
_audit_creation_method            fapswitch 2.2
_symmetry_space_group_name_H-M    P1
_symmetry_Int_Tables_number       1
_space_group_crystal_system       triclinic
_cell_length_a                    14.146317
_cell_length_b                    14.920188
_cell_length_c                    16.742238
_cell_angle_alpha                 89.569761
_cell_angle_beta                  95.934133
_cell_angle_gamma                 89.995157
_cell_volume                      3514.67618952

loop_
_atom_site_label
_atom_site_type_symbol
_atom_type_description
_atom_site_fract_x
_atom_site_fract_y
_atom_site_fract_z
_atom_type_partial_charge
Br1   Br    Br    0.651085 0.352756 0.741310 -0.415848
Br2   Br    Br    0.349711 0.354186 0.260848 -0.401993
Br3   Br    Br    0.616920 0.231391 0.374981 -0.305757
Br4   Br    Br    0.641104 0.735702 0.648356 -0.354443
C1    C     C_R   0.500100 0.327641 0.500480 1.065600
C2    C     C_R   0.558196 0.898813 0.583733 0.405094
C3    C     C_R   0.505987 0.047992 0.531427 -0.255372
C4    C     C_R   0.495521 0.951475 0.531611 -0.314804
C5    C     C_R   0.111535 0.558614 0.550740 0.377158
C6    C     C_R   0.888557 0.560141 0.449938 0.377621
C7    C     C_R   0.210741 0.556809 0.548978 0.009671
C8    C     C_R   0.789346 0.558287 0.451632 0.018080
C9    C     C_R   0.198768 0.443146 0.451053 0.011096
C10   C     C_R   0.801128 0.441750 0.548393 0.021945
C11   C     C_R   0.099135 0.441298 0.449336 0.375966
C12   C     C_R   0.500205 0.672253 0.501421 0.903916
C13   C     C_R   0.900758 0.439836 0.550127 0.378292
C14   C     C_R   0.053371 0.499947 0.500049 -0.197275
C15   C     C_R   0.946623 0.499970 0.500038 -0.198230
C16   C     C_R   0.513604 0.499739 0.653469 0.944169
C17   C     C_R   0.486391 0.501784 0.346536 0.907518
C18   C     C_R   0.525249 0.509336 0.739726 -0.227079
C19   C     C_R   0.474812 0.511109 0.260134 -0.234351
C20   C     C_R   0.476900 0.578607 0.776388 0.411951
C21   C     C_R   0.523168 0.580173 0.222438 0.392749
C22   C     C_R   0.484363 0.582486 0.859393 -0.117280
C23   C     C_R   0.453488 0.193737 0.571490 0.419617
C24   C     C_R   0.516781 0.583148 0.139364 -0.116042
C25   C     C_R   0.541221 0.520865 0.905927 0.169921
C26   C     C_R   0.460723 0.520917 0.093766 0.168928
C27   C     C_R   0.594035 0.456934 0.869859 -0.166896
C28   C     C_R   0.407724 0.457288 0.130753 -0.169045
C29   C     C_R   0.585369 0.449660 0.786806 0.227107
C30   C     C_R   0.415497 0.450829 0.213921 0.233074
C31   C     C_R   0.454503 0.100561 0.582044 0.333432
C32   C     C_R   0.432246 0.912056 0.470929 0.494621
C33   C     C_R   0.437421 0.820717 0.457854 0.405968
C34   C     C_R   0.501542 0.231828 0.510151 -0.347807
C35   C     C_R   0.500785 0.768076 0.509264 -0.425348
C36   C     C_R   0.554042 0.179552 0.461363 0.200834
C37   C     C_R   0.559580 0.806796 0.572744 0.243713
C38   C     C_R   0.558418 0.087585 0.472833 0.465053
H1    H     H_    0.255059 0.601355 0.587389 0.193146
H2    H     H_    0.440345 0.648164 0.678909 0.342302
H3    H     H_    0.981492 0.386708 0.400613 0.366007
H4    H     H_    0.018313 0.383802 0.598324 0.363505
H5    H     H_    0.414985 0.998736 0.646149 0.371852
H6    H     H_    0.359471 0.021353 0.442215 0.351215
H7    H     H_    0.379458 0.214923 0.662557 0.401519
H8    H     H_    0.406642 0.728484 0.377054 0.327020
H9    H     H_    0.622750 0.977321 0.445292 0.353526
H10   H     H_    0.607942 0.999051 0.650919 0.364119
H11   H     H_    0.005820 0.613116 0.599552 0.366559
H12   H     H_    0.745094 0.603954 0.413658 0.192503
H13   H     H_    0.994374 0.616102 0.401767 0.364810
H14   H     H_    0.233696 0.398585 0.412700 0.204859
H15   H     H_    0.766111 0.396077 0.586280 0.203403
H16   H     H_    0.555483 0.634240 0.109887 0.196994
H17   H     H_    0.445672 0.633707 0.888116 0.195263
H18   H     H_    0.637919 0.409780 0.906618 0.203663
H19   H     H_    0.364357 0.409755 0.094701 0.203014
H20   H     H_    0.557628 0.650821 0.318627 0.325885
N1    N     N_2   0.542165 0.519887 0.989601 -0.138726
N2    N     N_2   0.460076 0.519435 0.010144 -0.143343
N3    N     N_R   0.252470 0.499980 0.500000 -0.176343
N4    N     N_R   0.747530 0.500020 0.500000 -0.174054
O1    O     O_R   0.579480 0.369070 0.499990 -0.601774
O2    O     O_3   0.422150 0.643428 0.734227 -0.714438
O3    O     O_3   0.050650 0.381510 0.397436 -0.691790
O4    O     O_3   0.949145 0.378515 0.601422 -0.694192
O5    O     O_3   0.402765 0.063748 0.640080 -0.724955
O6    O     O_3   0.368199 0.961088 0.419895 -0.638079
O7    O     O_3   0.407147 0.249931 0.620296 -0.711756
O8    O     O_3   0.379929 0.785901 0.393633 -0.650616
O9    O     O_3   0.611216 0.038502 0.423362 -0.653608
O10   O     O_3   0.620406 0.934470 0.644569 -0.658704
O11   O     O_3   0.075745 0.618378 0.602665 -0.696897
O12   O     O_R   0.420520 0.630930 0.500010 -0.619403
O13   O     O_3   0.924449 0.621431 0.398652 -0.696326
O14   O     O_R   0.420520 0.369060 0.499990 -0.570171
O15   O     O_R   0.579480 0.630940 0.500010 -0.593066
O16   O     O_R   0.588340 0.499180 0.616130 -0.578678
O17   O     O_R   0.411660 0.500820 0.383870 -0.600872
O18   O     O_R   0.429390 0.499170 0.616130 -0.606300
O19   O     O_R   0.570610 0.500830 0.383870 -0.602189
O20   O     O_3   0.576863 0.645622 0.263714 -0.713333
Zn1   Zn    Zn3+2 0.606140 0.500010 0.500000 1.026615
Zn2   Zn    Zn3+2 0.393860 0.499990 0.500000 1.016312

loop_
_geom_bond_atom_site_label_1
_geom_bond_atom_site_label_2
_ccdc_geom_bond_type
C11   C14   A    
C26   C28   A    
C33   O8    S    
C25   N1    S    
C16   O16   A    
C1    O1    A    
Br1   C29   S    
C3    C4    S    
C35   C37   A    
C9    N3    A    
C21   C24   A    
H20   O20   S    
C38   O9    S    
C32   C33   A    
C20   C22   A    
C28   H19   S    
C26   N2    S    
H8    O8    S    
Br4   C37   S    
C23   C34   A    
O16   Zn1   S    
C14   C15   S    
C4    C32   A    
C3    C38   A    
C18   C29   A    
C21   O20   S    
C17   O17   A    
C2    C37   A    
C27   C29   A    
C7    H1    S    
C22   H17   S    
C12   O12   A    
C9    H14   S    
Br2   C30   S    
C36   C38   A    
O17   Zn2   S    
C31   O5    S    
C13   O4    S    
C1    C34   S    
O14   Zn2   S    
C10   C13   A    
H6    O6    S    
O19   Zn1   S    
C17   C19   S    
C11   O3    S    
C17   O19   A    
H3    O3    S    
N4    Zn1   S    
C2    C4    A    
C23   C31   A    
C8    N4    A    
C28   C30   A    
C27   H18   S    
H11   O11   S    
H13   O13   S    
C6    C15   A    
C19   C30   A    
C10   N4    A    
C5    O11   S    
C1    O14   A    
C5    C7    A    
H5    O5    S    
O15   Zn1   S    
C6    C8    A    
C16   C18   S    
Br3   C36   S    
C9    C11   A    
C18   C20   A    
H2    O2    S    
N3    Zn2   S    
O12   Zn2   S    
C10   H15   S    
C3    C31   A    
O18   Zn2   S    
H9    O9    S    
H10   O10   S    
C6    O13   S    
C2    O10   S    
C24   H16   S    
O1    Zn1   S    
C16   O18   A    
C33   C35   A    
C34   C36   A    
C24   C26   A    
C12   O15   A    
C13   C15   A    
H7    O7    S    
C19   C21   A    
H4    O4    S    
C20   O2    S    
C12   C35   S    
N1    N2    D    
C7    N3    A    
C5    C14   A    
C22   C25   A    
C25   C27   A    
C23   O7    S    
C8    H12   S    
C32   O6    S    
