data_mof_unit_55256.cif
_audit_creation_date              2012-12-11T15:20:22-0500
_audit_creation_method            fapswitch 2.2
_symmetry_space_group_name_H-M    P1
_symmetry_Int_Tables_number       1
_space_group_crystal_system       triclinic
_cell_length_a                    12.901944
_cell_length_b                    13.022674
_cell_length_c                    15.252465
_cell_angle_alpha                 117.054027
_cell_angle_beta                  63.284477
_cell_angle_gamma                 97.513486
_cell_volume                      2029.86705562

loop_
_atom_site_label
_atom_site_type_symbol
_atom_type_description
_atom_site_fract_x
_atom_site_fract_y
_atom_site_fract_z
_atom_type_partial_charge
C1    C     C_R   0.000371 0.833542 0.055414 -0.134076
C2    C     C_R   0.299806 0.596245 0.791152 -0.143695
C3    C     C_R   0.259846 0.413923 0.044470 -0.158854
C4    C     C_R   0.677619 0.478756 0.219776 -0.112464
C5    C     C_R   0.061783 0.278512 0.683981 -0.126580
C6    C     C_R   0.363423 0.430084 0.968945 0.153992
C7    C     C_R   0.053836 0.167814 0.676511 0.074197
C8    C     C_R   0.295848 0.571449 0.694576 0.091851
C9    C     C_R   0.004154 0.153088 0.047468 0.036593
C10   C     C_R   0.182602 0.966637 0.377941 0.508674
C11   C     C_R   0.172937 0.061878 0.475267 -0.342326
C12   C     C_R   0.667871 0.557916 0.323145 0.066672
C13   C     C_R   0.104248 0.059648 0.576091 0.116403
C14   C     C_R   0.068977 0.954204 0.577853 -0.166432
C15   C     C_R   0.076835 0.860150 0.482573 -0.268463
C16   C     C_R   0.756696 0.518205 0.891197 -0.164363
C17   C     C_R   0.120304 0.870815 0.384853 0.062297
C18   C     C_R   0.567683 0.659599 0.525291 -0.220746
C19   C     C_R   0.475853 0.658602 0.617875 -0.163169
C20   C     C_R   0.374709 0.609155 0.611993 0.071479
C21   C     C_R   0.357553 0.583913 0.520024 -0.286370
C22   C     C_R   0.448356 0.588473 0.427574 0.549024
C23   C     C_R   0.664021 0.455772 0.921631 0.160924
C24   C     C_R   0.559772 0.609559 0.425579 -0.047129
C25   C     C_2   0.478172 0.385021 0.936840 -0.205830
C26   C     C_2   0.571677 0.431294 0.887849 -0.192456
C27   C     C_2   0.830202 0.960764 0.097771 0.463862
C28   C     C_R   0.019292 0.698712 0.301882 -0.169530
C29   C     C_2   0.816812 0.038935 0.197704 -0.118015
C30   C     C_R   0.676907 0.419285 0.987864 -0.142920
C31   C     C_R   0.099040 0.798947 0.207085 -0.121953
C32   C     C_R   0.780317 0.566651 0.314988 -0.120657
C33   C     C_R   0.899260 0.748132 0.958576 -0.111029
C34   C     C_R   0.081211 0.793687 0.301417 0.096756
C35   C     C_R   0.911310 0.853803 0.035518 -0.074349
C36   C     C_3   0.439798 0.653349 0.314904 0.142078
C37   C     C_3   0.397920 0.624675 0.227842 -0.279080
C38   C     C_3   0.425801 0.716362 0.186331 -0.920423
C39   C     C_R   0.339455 0.513393 0.946771 -0.117521
C40   C     C_R   0.977722 0.178299 0.780171 -0.131134
C41   C     C_R   0.198978 0.511399 0.695136 -0.143141
C42   C     C_R   0.049682 0.256477 0.090221 -0.122745
C43   C     C_R   0.948615 0.172424 0.995950 -0.096128
H1    H     H_    0.030138 0.895665 0.113722 0.098556
H2    H     H_    0.023943 0.946474 0.653515 0.118425
H3    H     H_    0.608888 0.447556 0.195222 0.155296
H4    H     H_    0.036808 0.784449 0.489783 0.134693
H5    H     H_    0.648200 0.687347 0.530436 0.133569
H6    H     H_    0.490014 0.685788 0.689627 0.118185
H7    H     H_    0.276615 0.554339 0.516445 0.138581
H8    H     H_    0.481448 0.336616 0.977656 0.128836
H9    H     H_    0.570002 0.475402 0.842931 0.127395
H10   H     H_    0.864372 0.029725 0.237388 0.067549
H11   H     H_    0.780950 0.546349 0.828372 0.093307
H12   H     H_    0.948169 0.109646 0.803758 0.087451
H13   H     H_    0.003628 0.657787 0.353858 0.091916
H14   H     H_    0.630391 0.355421 0.013966 0.095354
H15   H     H_    0.154735 0.852650 0.171752 0.169643
H16   H     H_    0.807131 0.619782 0.378288 0.096807
H17   H     H_    0.834178 0.730586 0.928692 0.098701
H18   H     H_    0.399025 0.550490 0.894577 0.093872
H19   H     H_    0.285296 0.041576 0.288979 0.321757
H20   H     H_    0.532551 0.672481 0.283275 0.118007
H21   H     H_    0.385624 0.731819 0.389925 0.104737
H22   H     H_    0.441006 0.539548 0.157548 0.212732
H23   H     H_    0.160056 0.492150 0.640369 0.088063
H24   H     H_    0.302203 0.618621 0.263209 0.200252
H25   H     H_    0.389460 0.803499 0.256020 0.279519
H26   H     H_    0.386853 0.697520 0.129422 0.273406
H27   H     H_    0.521644 0.715962 0.141607 0.262597
H28   H     H_    0.788287 0.922231 0.980010 0.299889
H29   H     H_    0.086119 0.277149 0.147074 0.095131
H30   H     H_    0.891333 0.115236 0.965674 0.127720
H31   H     H_    0.352454 0.656608 0.825947 0.089154
H32   H     H_    0.249271 0.358625 0.082705 0.102507
H33   H     H_    0.111288 0.303666 0.619258 0.099109
H34   H     H_    0.211326 0.139829 0.472167 0.124839
N1    N     N_R   0.037310 0.720000 0.995790 -0.034002
N2    N     N_R   0.824890 0.517960 0.936420 -0.041366
N3    N     N_R   0.003210 0.648190 0.211380 -0.038558
N4    N     N_R   0.774330 0.457010 0.995840 -0.045769
N5    N     N_R   0.053760 0.709140 0.151960 -0.051540
N6    N     N_R   0.853860 0.498840 0.211410 -0.041879
N7    N     N_R   0.974240 0.667310 0.936390 -0.036097
N8    N     N_R   0.225670 0.542990 0.004160 -0.045013
N9    N     N_R   0.946240 0.290860 0.848040 -0.039964
N10   N     N_R   0.146140 0.501160 0.788590 -0.039533
N11   N     N_R   0.025760 0.332690 0.063610 -0.039632
N12   N     N_R   0.962690 0.280000 0.004210 -0.044953
N13   N     N_R   0.209210 0.553840 0.847990 -0.039243
N14   N     N_R   0.175110 0.482040 0.063580 -0.040105
N15   N     N_R   0.996790 0.351810 0.788620 -0.041167
N16   N     N_R   0.790790 0.446160 0.152010 -0.047336
Ni1   Ni    Ni4+2 0.130310 0.630310 0.999970 0.215080
Ni2   Ni    Ni4+2 0.869690 0.369690 0.000030 0.223716
Ni3   Ni    Ni4+2 0.985640 0.509470 0.863740 0.209758
Ni4   Ni    Ni4+2 0.014360 0.490530 0.136260 0.211602
O1    O     O_3   0.247307 0.968367 0.277986 -0.800557
O2    O     O_3   0.428596 0.557294 0.337182 -0.683676
O3    O     O_3   0.762046 0.980560 0.057533 -0.750544

loop_
_geom_bond_atom_site_label_1
_geom_bond_atom_site_label_2
_ccdc_geom_bond_type
C43   H30   S    
C38   H27   S    
N5    Ni1   S    
N3    Ni4   S    
C27   C29   D    
C36   H21   S    
C19   C20   A    
C15   H4    S    
C3    C6    A    
C28   H13   S    
C4    H3    S    
C9    C42   A    
C8    C20   S    
C31   N5    A    
C18   C24   A    
C31   H15   S    
C36   C37   S    
N1    Ni1   S    
N4    Ni2   S    
C6    C25   S    
C10   C17   A    
N6    N16   A    
C30   H14   S    
N15   Ni3   S    
C3    N14   A    
C18   C19   A    
N7    Ni3   S    
C23   C26   S    
C40   N9    A    
C10   O1    S    
C11   H34   S    
H19   O1    S    
C37   H22   S    
C7    C40   A    
C4    C12   A    
C36   H20   S    
C3    H32   S    
N11   Ni4   S    
C2    H31   S    
N11   N12   A    
C38   H26   S    
C28   C34   A    
N16   Ni2   S    
C13   C14   A    
C12   C32   A    
C1    N1    A    
C41   N10   A    
C21   H7    S    
N13   Ni1   S    
C14   H2    S    
N8    N14   A    
C39   H18   S    
C27   O3    S    
C9    C43   A    
C23   C30   A    
C8    C41   A    
N3    N5    A    
N9    Ni2   S    
N2    N4    A    
C27   C35   S    
C25   C26   D    
N12   Ni2   S    
C25   H8    S    
C37   C38   S    
C26   H9    S    
N8    Ni1   S    
C19   H6    S    
C1    H1    S    
C40   H12   S    
N10   Ni3   S    
C42   H29   S    
C31   C34   A    
C43   N12   A    
N14   Ni4   S    
C38   H25   S    
C16   C23   A    
C22   C24   A    
C42   N11   A    
C17   C34   S    
C39   N8    A    
C1    C35   A    
C5    C7    A    
C15   C17   A    
C32   N6    A    
C22   O2    S    
C6    C39   A    
C2    C8    A    
C18   H5    S    
C41   H23   S    
C33   H17   S    
H28   O3    S    
C12   C24   S    
C16   N2    A    
C5    H33   S    
N2    Ni3   S    
N9    N15   A    
C11   C13   A    
C29   H10   S    
C30   N4    A    
C37   H24   S    
C33   C35   A    
C36   O2    S    
C28   N3    A    
C33   N7    A    
C16   H11   S    
C5    N15   A    
C10   C11   A    
C4    N16   A    
N1    N7    A    
C7    C13   S    
C20   C21   A    
C2    N13   A    
N6    Ni4   S    
N10   N13   A    
C14   C15   A    
C32   H16   S    
C21   C22   A    
