data_mof_unit_33191.cif
_audit_creation_date              2012-12-10T19:45:04-0500
_audit_creation_method            fapswitch 2.2
_symmetry_space_group_name_H-M    P1
_symmetry_Int_Tables_number       1
_space_group_crystal_system       triclinic
_cell_length_a                    15.089466
_cell_length_b                    10.94636
_cell_length_c                    13.902906
_cell_angle_alpha                 90.418105
_cell_angle_beta                  89.685615
_cell_angle_gamma                 86.075907
_cell_volume                      2290.92273466

loop_
_atom_site_label
_atom_site_type_symbol
_atom_type_description
_atom_site_fract_x
_atom_site_fract_y
_atom_site_fract_z
_atom_type_partial_charge
C1    C     C_R   0.497927 0.262541 0.498849 0.867484
C2    C     C_R   0.522467 0.889824 0.688260 0.047603
C3    C     C_R   0.537254 0.078458 0.236472 -0.217114
C4    C     C_R   0.458020 0.923898 0.758665 -0.187373
C5    C     C_R   0.516351 0.108915 0.141142 0.014994
C6    C     C_R   0.469027 0.888708 0.854698 -0.008418
C7    C     C_R   0.431575 0.162355 0.120646 -0.236820
C8    C     C_R   0.545564 0.817270 0.880657 -0.218547
C9    C     C_R   0.504927 0.931455 0.414981 -0.285776
C10   C     C_R   0.500888 0.067724 0.583755 -0.260223
C11   C     C_R   0.507793 0.870994 0.503206 -0.071328
C12   C     C_R   0.503049 0.737287 0.501000 0.819704
C13   C     C_R   0.497483 0.128358 0.495958 -0.034550
C14   C     C_R   0.510087 0.940830 0.589629 0.063396
C15   C     C_R   0.497319 0.058599 0.409446 0.077609
C16   C     C_R   0.328752 0.502704 0.500618 0.835640
C17   C     C_R   0.670699 0.493845 0.499755 0.842821
C18   C     C_R   0.567187 0.435105 0.792314 0.383708
C19   C     C_R   0.443080 0.580406 0.205668 0.378855
C20   C     C_R   0.432136 0.560719 0.795716 0.069478
C21   C     C_R   0.566088 0.433276 0.204916 0.072592
C22   C     C_R   0.432111 0.561740 0.898014 -0.093908
C23   C     C_R   0.060077 0.279198 0.546520 -0.027759
C24   C     C_R   0.569043 0.435804 0.102089 -0.088356
C25   C     C_R   0.501924 0.500503 0.948258 0.056948
C26   C     C_R   0.500208 0.498638 0.051463 0.057952
C27   C     C_R   0.573907 0.443244 0.895544 -0.071674
C28   C     C_R   0.432294 0.565179 0.103981 -0.141589
C29   C     C_R   0.363162 0.623980 0.951025 -0.202477
C30   C     C_R   0.641768 0.382198 0.048979 -0.192272
C31   C     C_R   0.361526 0.625574 0.051430 0.011952
C32   C     C_R   0.648215 0.393704 0.948716 0.014468
C33   C     C_R   0.806190 0.597754 0.487084 -0.183378
C34   C     C_R   0.937370 0.714450 0.474192 -0.047018
C35   C     C_R   0.192751 0.395584 0.523666 -0.194064
C36   C     C_R   0.767110 0.488113 0.499610 -0.108008
C37   C     C_R   0.231434 0.505025 0.503878 -0.125561
C38   C     C_R   0.819212 0.377170 0.511236 -0.039887
C39   C     C_R   0.177559 0.614263 0.491719 -0.017361
C40   C     C_R   0.912820 0.380860 0.517354 0.026054
C41   C     C_R   0.084161 0.610717 0.496015 0.034735
C42   C     C_R   0.952156 0.493615 0.504569 0.049749
C43   C     C_R   0.045525 0.497803 0.508936 0.048371
C44   C     C_R   0.898216 0.602321 0.486560 0.056240
C45   C     C_R   0.369446 0.188678 0.194468 0.202025
C46   C     C_R   0.100003 0.389932 0.527174 0.052624
C47   C     C_R   0.967651 0.275986 0.540185 -0.179197
C48   C     C_R   0.028345 0.718208 0.486780 -0.177289
C49   C     C_3   0.611965 0.218624 0.767595 -0.594906
C50   C     C_3   0.347879 0.737099 0.292623 -0.523645
C51   C     C_2   0.352854 0.615828 0.747007 0.900462
C52   C     C_2   0.643902 0.375947 0.255275 0.898556
C53   C     C_2   0.278908 0.681613 0.095387 0.858932
C54   C     C_2   0.738114 0.368836 0.906107 0.829768
C55   C     C_2   0.775964 0.258896 0.511370 0.777055
C56   C     C_R   0.613074 0.786551 0.813182 0.247904
C57   C     C_2   0.217213 0.730534 0.468050 0.767174
C58   C     C_2   0.111584 0.165804 0.577495 0.822973
C59   C     C_2   0.887397 0.828761 0.442490 0.835585
C60   C     C_3   0.266036 0.357040 0.156278 -0.584072
C61   C     C_3   0.740576 0.760176 0.920277 -0.592941
C62   C     C_3   0.288420 0.096846 0.409730 -0.666467
C63   C     C_3   0.738398 0.900944 0.656134 -0.663638
C64   C     C_2   0.582338 0.082007 0.063087 0.865784
C65   C     C_2   0.400836 0.927810 0.927906 0.894929
C66   C     C_R   0.392950 0.166150 0.291004 0.287521
C67   C     C_R   0.602710 0.825592 0.716790 0.235501
C68   C     C_R   0.477333 0.108845 0.312151 0.059351
Cu1   Cu    Cu3+1 0.500010 0.499980 0.597420 1.028225
Cu2   Cu    Cu3+1 0.499990 0.500020 0.402580 1.004301
H1    H     H_    0.763096 0.680064 0.480011 0.157169
H2    H     H_    0.552695 0.785212 0.953848 0.184245
H3    H     H_    0.600820 0.031206 0.252742 0.202686
H4    H     H_    0.398686 0.978516 0.737843 0.195748
H5    H     H_    0.683269 0.366642 0.722056 0.294986
H6    H     H_    0.655458 0.192747 0.828799 0.240468
H7    H     H_    0.633316 0.157237 0.707045 0.245956
H8    H     H_    0.542314 0.203261 0.787962 0.233490
H9    H     H_    0.450289 0.769258 0.197471 0.253666
H10   H     H_    0.307682 0.806739 0.251062 0.222512
H11   H     H_    0.363548 0.782352 0.360816 0.235539
H12   H     H_    0.236478 0.314347 0.533181 0.172960
H13   H     H_    0.308892 0.657091 0.307029 0.265324
H14   H     H_    0.292629 0.767152 0.690011 0.357520
H15   H     H_    0.697713 0.232455 0.328676 0.344908
H16   H     H_    0.188421 0.826078 0.100323 0.346476
H17   H     H_    0.834728 0.427102 0.820471 0.340814
H18   H     H_    0.773015 0.088246 0.458060 0.338190
H19   H     H_    0.207392 0.883302 0.387341 0.336260
H20   H     H_    0.208514 0.088393 0.661181 0.344999
H21   H     H_    0.793982 0.908116 0.355098 0.340791
H22   H     H_    0.255786 0.177538 0.114980 0.269117
H23   H     H_    0.504088 0.879337 0.348601 0.184847
H24   H     H_    0.301191 0.383761 0.090071 0.224282
H25   H     H_    0.290067 0.408351 0.219142 0.243796
H26   H     H_    0.193849 0.381063 0.147759 0.265021
H27   H     H_    0.729709 0.677157 0.786333 0.311567
H28   H     H_    0.799404 0.696401 0.934440 0.253862
H29   H     H_    0.700265 0.767785 0.987268 0.237783
H30   H     H_    0.763848 0.851155 0.901545 0.214385
H31   H     H_    0.288530 0.273798 0.355056 0.273141
H32   H     H_    0.216887 0.102068 0.390662 0.247810
H33   H     H_    0.294809 0.102684 0.489004 0.246673
H34   H     H_    0.495918 0.120006 0.649586 0.167851
H35   H     H_    0.319587 0.007028 0.385550 0.226282
H36   H     H_    0.659373 0.785455 0.582336 0.238453
H37   H     H_    0.800635 0.867584 0.619109 0.247487
H38   H     H_    0.754944 0.922862 0.731791 0.242961
H39   H     H_    0.710642 0.985129 0.619993 0.242399
H40   H     H_    0.706368 0.018245 0.025498 0.344168
H41   H     H_    0.282093 0.016865 0.957085 0.351185
H42   H     H_    0.308213 0.672157 0.914505 0.180909
H43   H     H_    0.697785 0.337038 0.085602 0.193950
H44   H     H_    0.938730 0.191183 0.557835 0.218388
H45   H     H_    0.054902 0.807226 0.486273 0.235634
H46   H     H_    0.412662 0.181940 0.046988 0.190197
N1    N     N_R   0.499960 0.499900 0.743810 -0.242463
N2    N     N_R   0.500040 0.500100 0.256190 -0.233816
N3    N     N_2   0.620120 0.344839 0.739830 -0.371077
N4    N     N_2   0.429144 0.702017 0.242140 -0.429397
N5    N     N_2   0.280525 0.227112 0.170978 -0.441114
N6    N     N_2   0.690086 0.712919 0.841706 -0.410239
N7    N     N_2   0.330880 0.197426 0.366301 -0.450921
N8    N     N_2   0.675660 0.807038 0.651752 -0.460134
O1    O     O_R   0.500000 0.319630 0.582270 -0.558840
O2    O     O_R   0.354401 0.730667 0.705218 -0.738706
O3    O     O_2   0.714821 0.423725 0.251199 -0.574241
O4    O     O_R   0.638191 0.266366 0.304029 -0.762851
O5    O     O_2   0.236287 0.623626 0.151809 -0.620312
O6    O     O_R   0.246152 0.798178 0.066692 -0.739413
O7    O     O_2   0.784144 0.277807 0.929870 -0.582400
O8    O     O_R   0.772443 0.453337 0.843628 -0.786368
O9    O     O_2   0.708085 0.248174 0.557776 -0.631489
O10   O     O_R   0.811040 0.160960 0.455027 -0.723801
O11   O     O_2   0.279413 0.765139 0.514310 -0.617851
O12   O     O_R   0.500000 0.680370 0.417730 -0.566207
O13   O     O_R   0.182084 0.800702 0.391807 -0.757244
O14   O     O_2   0.092453 0.066257 0.546276 -0.569185
O15   O     O_R   0.179047 0.171893 0.645605 -0.750908
O16   O     O_2   0.907729 0.927752 0.473546 -0.559559
O17   O     O_R   0.821372 0.824150 0.372551 -0.745936
O18   O     O_2   0.563197 0.105989 0.979677 -0.635510
O19   O     O_R   0.667120 0.030249 0.084688 -0.759305
O20   O     O_2   0.413021 0.903147 0.012673 -0.610259
O21   O     O_R   0.322745 0.994338 0.900462 -0.755640
O22   O     O_R   0.499990 0.319660 0.417730 -0.558445
O23   O     O_R   0.500010 0.680340 0.582270 -0.556562
O24   O     O_R   0.370260 0.499960 0.582280 -0.546315
O25   O     O_R   0.629740 0.500040 0.417720 -0.563259
O26   O     O_R   0.370250 0.499990 0.417740 -0.608425
O27   O     O_R   0.629750 0.500010 0.582260 -0.573059
O28   O     O_2   0.283547 0.564059 0.750160 -0.579012

loop_
_geom_bond_atom_site_label_1
_geom_bond_atom_site_label_2
_ccdc_geom_bond_type
C58   O15   S    
C7    H46   S    
C40   C47   A    
C66   C68   A    
C22   C29   A    
C23   C58   S    
C29   H42   S    
C61   H28   S    
Cu2   O26   S    
C67   N8    S    
C8    C56   A    
H20   O15   S    
C52   O4    S    
C39   C41   A    
C62   H35   S    
C17   O27   A    
C54   O7    D    
H31   N7    S    
C50   N4    S    
C7    C45   A    
C12   O23   A    
C35   C37   A    
C1    O1    A    
C20   C51   S    
Cu1   Cu2   S    
H41   O21   S    
C11   C14   A    
C39   C57   S    
C33   C36   A    
C49   H8    S    
Cu1   N1    S    
C62   N7    S    
C35   H12   S    
C6    C65   S    
C38   C55   S    
C3    C68   A    
C19   N2    A    
C22   C25   A    
H40   O19   S    
Cu2   O22   S    
C17   C36   S    
C30   C32   A    
C4    H4    S    
C16   C37   S    
C3    C5    A    
C58   O14   D    
C40   C42   A    
Cu1   O1    S    
C23   C46   A    
Cu2   O12   S    
C41   C43   A    
C1    O22   A    
C61   H29   S    
Cu2   O25   S    
C42   C44   A    
C2    C14   S    
C32   C54   S    
C20   N1    A    
C52   O3    D    
C50   H13   S    
C63   N8    S    
H14   O2    S    
C8    H2    S    
C23   C47   A    
C47   H44   S    
Cu1   O27   S    
H5    N3    S    
C21   N2    A    
C4    C6    A    
C2    C67   A    
C10   C14   A    
C5    C7    A    
C65   O20   D    
H16   O6    S    
C6    C8    A    
C45   N5    S    
C25   C26   A    
C55   O9    D    
C5    C64   S    
C61   N6    S    
C56   N6    S    
H17   O8    S    
C63   H39   S    
C2    C4    A    
H27   N6    S    
H9    N4    S    
C49   H6    S    
C57   O13   S    
C31   C53   S    
C19   C28   A    
C9    C11   A    
C18   N1    A    
C48   H45   S    
C60   H26   S    
C20   C22   A    
C19   N4    S    
H19   O13   S    
C13   C15   A    
C34   C59   S    
Cu1   O23   S    
C61   H30   S    
C53   O5    D    
C42   C43   A    
C63   H37   S    
C56   C67   A    
C9    H23   S    
C62   H33   S    
C34   C44   A    
C27   C32   A    
C33   C44   A    
C28   C31   A    
C17   O25   A    
C18   C27   A    
C24   C26   A    
C51   O2    S    
C10   C13   A    
C50   H10   S    
C51   O28   D    
C11   C12   S    
C64   O19   S    
C25   C27   A    
C55   O10   S    
C54   O8    S    
C34   C48   A    
C26   C28   A    
C16   O24   A    
C36   C38   A    
C9    C15   A    
H18   O10   S    
C37   C39   A    
H22   N5    S    
C38   C40   A    
C49   N3    S    
C64   O18   D    
C59   O16   D    
Cu2   N2    S    
C15   C68   S    
C10   H34   S    
C41   C48   A    
C49   H7    S    
C60   N5    S    
C3    H3    S    
C43   C46   A    
C24   C30   A    
C33   H1    S    
C60   H25   S    
C1    C13   S    
C59   O17   S    
C29   C31   A    
C12   O12   A    
C21   C24   A    
H36   N8    S    
C45   C66   A    
Cu1   O24   S    
C66   N7    S    
C57   O11   D    
H15   O4    S    
C16   O26   A    
C53   O6    S    
H21   O17   S    
C63   H38   S    
C35   C46   A    
C65   O21   S    
C18   N3    S    
C21   C52   S    
C50   H11   S    
C62   H32   S    
C30   H43   S    
C60   H24   S    
