data_mof_unit_37734.cif
_audit_creation_date              2012-12-10T16:56:31-0500
_audit_creation_method            fapswitch 2.2
_symmetry_space_group_name_H-M    P1
_symmetry_Int_Tables_number       1
_space_group_crystal_system       triclinic
_cell_length_a                    7.85219
_cell_length_b                    8.673427
_cell_length_c                    15.662036
_cell_angle_alpha                 89.894218
_cell_angle_beta                  86.803388
_cell_angle_gamma                 93.698452
_cell_volume                      1062.77561637

loop_
_atom_site_label
_atom_site_type_symbol
_atom_type_description
_atom_site_fract_x
_atom_site_fract_y
_atom_site_fract_z
_atom_type_partial_charge
C1    C     C_R   0.545410 0.794252 0.498279 0.941654
C2    C     C_R   0.454402 0.205593 0.502502 0.935434
C3    C     C_R   0.502761 0.495939 0.661797 0.862692
C4    C     C_R   0.497047 0.503865 0.338306 0.862418
C5    C     C_2   0.568301 0.957695 0.498718 -0.358212
C6    C     C_2   0.430623 0.041857 0.503700 -0.374447
C7    C     C_3   0.449916 0.641346 0.018999 0.142411
C8    C     C_3   0.541623 0.351929 0.981941 0.144760
C9    C     C_3   0.610955 0.600734 0.965343 0.383731
C10   C     C_3   0.380686 0.392592 0.035796 0.388623
C11   C     C_1   0.508036 0.482612 0.750787 -0.138029
C12   C     C_1   0.490137 0.515198 0.249499 -0.110074
C13   C     C_3   0.339681 0.518500 0.972031 0.156968
C14   C     C_3   0.651891 0.474728 0.028887 0.152946
C15   C     C_3   0.501754 0.478810 0.918171 -0.150922
C16   C     C_3   0.490227 0.514806 0.082523 -0.151542
C17   C     C_1   0.508080 0.474735 0.826381 0.204757
C18   C     C_1   0.486948 0.521057 0.174072 0.210485
H1    H     H_    0.698218 0.008086 0.495316 0.163118
H2    H     H_    0.300198 0.990921 0.507944 0.181234
N1    N     N_2   0.950320 0.457950 0.477300 0.165176
N2    N     N_2   0.049680 0.542050 0.522700 0.159964
O1    O     O_R   0.389250 0.738570 0.505570 -0.649558
O2    O     O_R   0.610750 0.261430 0.494430 -0.665607
O3    O     O_R   0.678390 0.711630 0.491020 -0.568386
O4    O     O_R   0.321610 0.288370 0.508980 -0.598640
O5    O     O_R   0.355460 0.513480 0.630490 -0.664925
O6    O     O_R   0.644540 0.486520 0.369510 -0.625134
O7    O     O_R   0.644600 0.486540 0.615950 -0.574266
O8    O     O_R   0.355400 0.513460 0.384050 -0.552720
Zn1   Zn    Zn3+2 0.306940 0.517990 0.509710 1.028261
Zn2   Zn    Zn3+2 0.693060 0.482010 0.490290 1.038832
O9    O     O_3   0.726665 0.696797 0.913995 -0.572171
C19   C     C_3   0.815454 0.805599 0.964018 0.195392
H3    H     H_    0.899545 0.748404 0.007193 0.203462
H4    H     H_    0.726589 0.874230 0.003257 0.200999
C20   C     C_3   0.925267 0.914207 0.903837 -0.713028
H5    H     H_    0.851099 0.946873 0.849061 0.283717
H6    H     H_    0.965290 0.021743 0.936646 0.213258
H7    H     H_    0.041079 0.857940 0.879733 0.268340
O10   O     O_3   0.267784 0.298852 0.089882 -0.571774
C21   C     C_3   0.173924 0.188590 0.043274 0.189409
H8    H     H_    0.259018 0.117954 0.003036 0.201726
H9    H     H_    0.086847 0.244891 0.001344 0.203987
C22   C     C_3   0.068453 0.083603 0.107396 -0.703258
H10   H     H_    0.963662 0.146259 0.138875 0.269794
H11   H     H_    0.012397 0.980144 0.075909 0.211329
H12   H     H_    0.150873 0.043961 0.157298 0.281654
Br1   Br    Br    0.378482 0.836904 0.059962 -0.510801
Br2   Br    Br    0.608457 0.154995 0.940822 -0.510956
Br3   Br    Br    0.858446 0.449174 0.087913 -0.466921
Br4   Br    Br    0.132393 0.543159 0.913405 -0.485499
O11   O     O_3   0.036914 0.382977 0.415387 -0.507790
C23   C     C_3   0.944979 0.243409 0.399478 0.208374
H13   H     H_    0.824698 0.264201 0.368822 0.184478
H14   H     H_    0.919795 0.176200 0.459800 0.123419
C24   C     C_3   0.052497 0.148697 0.338262 -0.846670
H15   H     H_    0.170073 0.117534 0.368648 0.254934
H16   H     H_    0.978171 0.041134 0.320885 0.218689
H17   H     H_    0.089769 0.217224 0.279478 0.291483
O12   O     O_3   0.961566 0.642537 0.570355 -0.526275
C25   C     C_3   0.058057 0.695623 0.638037 0.195541
H18   H     H_    0.184032 0.747437 0.615401 0.178563
H19   H     H_    0.070943 0.600328 0.684355 0.184479
C26   C     C_3   0.965254 0.822766 0.683546 -0.844388
H20   H     H_    0.845661 0.773674 0.717269 0.282016
H21   H     H_    0.049772 0.879523 0.730104 0.221309
H22   H     H_    0.933127 0.911324 0.636723 0.252179

loop_
_geom_bond_atom_site_label_1
_geom_bond_atom_site_label_2
_ccdc_geom_bond_type
C1    O3    A    
C9    C14   S    
O2    Zn2   S    
C1    O1    A    
C20   H5    S    
C5    H1    S    
C14   C16   S    
C4    C12   S    
C19   C20   S    
C6    H2    S    
O10   C21   S    
C14   Br3   S    
C7    C13   S    
C26   H22   S    
C7    C9    S    
O3    Zn2   S    
C3    O5    A    
O9    C19   S    
C9    C15   S    
O4    Zn1   S    
C2    O4    A    
C16   C18   S    
C10   C16   S    
N1    N2    D    
C23   C24   S    
C10   O10   S    
C9    O9    S    
C24   H15   S    
O12   C25   S    
C21   H9    S    
C8    C14   S    
C1    C5    S    
C5    C6    D    
N1    O11   S    
C8    C10   S    
C7    C16   S    
C4    O6    A    
C19   H3    S    
C8    C15   S    
C19   H4    S    
C13   C15   S    
C2    O2    A    
O8    Zn1   S    
C20   H6    S    
N1    Zn2   S    
C23   H14   S    
C24   H16   S    
O7    Zn2   S    
N2    Zn1   S    
O5    Zn1   S    
C20   H7    S    
C13   Br4   S    
C8    Br2   S    
N2    O12   S    
O6    Zn2   S    
C3    C11   S    
C7    Br1   S    
C3    O7    A    
C26   H20   S    
C21   H8    S    
C22   H11   S    
C12   C18   T    
C15   C17   S    
C23   H13   S    
C11   C17   T    
C24   H17   S    
C25   H19   S    
C22   H12   S    
C25   C26   S    
C22   H10   S    
C10   C13   S    
C4    O8    A    
C25   H18   S    
C2    C6    S    
O11   C23   S    
C26   H21   S    
C21   C22   S    
O1    Zn1   S    
