data_mof_unit_31739.cif
_audit_creation_date              2012-12-10T18:14:44-0500
_audit_creation_method            fapswitch 2.2
_symmetry_space_group_name_H-M    P1
_symmetry_Int_Tables_number       1
_space_group_crystal_system       triclinic
_cell_length_a                    10.72279
_cell_length_b                    9.407496
_cell_length_c                    27.804495
_cell_angle_alpha                 89.993061
_cell_angle_beta                  89.736783
_cell_angle_gamma                 90.002444
_cell_volume                      2804.73780323

loop_
_atom_site_label
_atom_site_type_symbol
_atom_type_description
_atom_site_fract_x
_atom_site_fract_y
_atom_site_fract_z
_atom_type_partial_charge
C1    C     C_R   0.259788 0.499793 0.500127 0.895008
C2    C     C_R   0.384008 0.482607 0.974733 0.043984
C3    C     C_R   0.609706 0.533547 0.974076 0.052887
C4    C     C_R   0.499537 0.499985 0.407452 0.843330
C5    C     C_R   0.496343 0.510071 0.949143 0.072492
C6    C     C_R   0.274929 0.452944 0.948010 -0.198688
C7    C     C_R   0.275686 0.454315 0.898039 -0.135848
C8    C     C_R   0.385009 0.484967 0.872624 -0.028961
C9    C     C_R   0.495527 0.513447 0.898023 -0.044183
C10   C     C_R   0.605409 0.544679 0.872181 -0.026514
C11   C     C_R   0.603169 0.544900 0.821714 0.550436
C12   C     C_R   0.508951 0.627173 0.278601 -0.084028
C13   C     C_R   0.386939 0.485686 0.822112 0.552704
C14   C     C_R   0.435264 0.614553 0.719682 -0.074442
C15   C     C_R   0.438052 0.610477 0.669595 -0.211327
C16   C     C_R   0.740070 0.499791 0.500057 0.806846
C17   C     C_R   0.563604 0.395157 0.672307 0.337600
C18   C     C_R   0.560469 0.400451 0.722480 -0.112558
C19   C     C_R   0.496467 0.509616 0.746256 0.271776
C20   C     C_R   0.384514 0.484664 0.025889 0.037799
C21   C     C_R   0.499427 0.500069 0.050776 0.074329
C22   C     C_R   0.612275 0.520015 0.024973 0.027310
C23   C     C_R   0.498502 0.498588 0.253634 0.351889
C24   C     C_R   0.273571 0.472251 0.053229 -0.186442
C25   C     C_R   0.728519 0.511238 0.100890 0.001827
C26   C     C_R   0.716945 0.571145 0.947037 -0.201374
C27   C     C_R   0.714781 0.575635 0.897127 -0.136933
C28   C     C_R   0.501414 0.499945 0.592497 0.896381
C29   C     C_R   0.725229 0.520625 0.050780 -0.245199
C30   C     C_3   0.072222 0.576726 0.454512 0.172040
C31   C     C_3   0.071018 0.579292 0.545315 0.163839
C32   C     C_3   0.927958 0.575229 0.454495 -0.403043
C33   C     C_3   0.926731 0.576822 0.545482 -0.382117
C34   C     C_R   0.501256 0.495860 0.101943 -0.050079
C35   C     C_3   0.070892 0.343963 0.500714 -0.334009
C36   C     C_3   0.121811 0.499064 0.500176 -0.012557
C37   C     C_3   0.877942 0.499164 0.500129 0.026569
C38   C     C_3   0.928307 0.344293 0.500474 -0.370445
C39   C     C_3   0.626413 0.083678 0.510189 -0.185454
C40   C     C_3   0.626363 0.916274 0.510318 -0.188212
C41   C     C_3   0.415886 0.083851 0.538690 -0.173666
C42   C     C_3   0.415779 0.916098 0.538659 -0.184200
C43   C     C_3   0.457863 0.083665 0.454376 -0.191639
C44   C     C_3   0.458034 0.916373 0.454356 -0.184135
C45   C     C_R   0.388372 0.481790 0.127789 -0.026250
C46   C     C_R   0.390025 0.480773 0.178135 0.547607
C47   C     C_R   0.610500 0.513475 0.178211 0.562261
C48   C     C_R   0.487570 0.370712 0.279000 -0.087899
C49   C     C_R   0.487795 0.371082 0.329132 -0.182084
C50   C     C_R   0.508815 0.627938 0.328761 -0.195419
C51   C     C_2   0.853237 0.496780 0.123224 0.918592
C52   C     C_R   0.275797 0.470474 0.103064 -0.112484
C53   C     C_R   0.615276 0.506140 0.127330 -0.091295
C54   C     C_R   0.498679 0.499742 0.354498 -0.019798
C55   C     C_R   0.501315 0.500740 0.645376 -0.119730
Cl1   Cl    Cl    0.652557 0.259281 0.645187 -0.641520
Cl2   Cl    Cl    0.132564 0.501371 0.399749 -0.625999
Cl3   Cl    Cl    0.130740 0.507950 0.600567 -0.618141
Cu1   Cu    Cu3+1 0.499860 0.642410 0.500020 0.921355
Cu2   Cu    Cu3+1 0.499860 0.357590 0.500020 0.946961
H1    H     H_    0.517243 0.728642 0.347299 0.143472
H2    H     H_    0.891235 0.688010 0.546351 0.145378
H3    H     H_    0.517234 0.726346 0.259077 0.141839
H4    H     H_    0.891758 0.520751 0.421885 0.214231
H5    H     H_    0.890229 0.522860 0.578273 0.232164
H6    H     H_    0.105644 0.283758 0.468922 0.202993
H7    H     H_    0.104173 0.286159 0.533122 0.206236
H8    H     H_    0.894929 0.285857 0.468165 0.177000
H9    H     H_    0.893318 0.286608 0.532820 0.199862
H10   H     H_    0.662261 0.123548 0.545140 0.195794
H11   H     H_    0.661688 0.876776 0.545434 0.159869
H12   H     H_    0.479464 0.271049 0.259788 0.141072
H13   H     H_    0.692677 0.120981 0.482009 0.136427
H14   H     H_    0.692971 0.878551 0.482320 0.141753
H15   H     H_    0.444684 0.121805 0.574809 0.194066
H16   H     H_    0.444407 0.877987 0.574787 0.161689
H17   H     H_    0.362758 0.123581 0.445948 0.154473
H18   H     H_    0.363060 0.876237 0.445833 0.153615
H19   H     H_    0.520190 0.120703 0.424889 0.145111
H20   H     H_    0.520611 0.879558 0.424923 0.144252
H21   H     H_    0.319171 0.122937 0.533161 0.142859
H22   H     H_    0.319040 0.877133 0.533062 0.143546
H23   H     H_    0.803929 0.601126 0.963420 0.148166
H24   H     H_    0.187976 0.461017 0.122224 0.203726
H25   H     H_    0.389562 0.692493 0.649709 0.180735
H26   H     H_    0.386046 0.699588 0.737893 0.162931
H27   H     H_    0.189730 0.430432 0.879363 0.191786
H28   H     H_    0.187332 0.424821 0.964505 0.141123
H29   H     H_    0.182348 0.466790 0.037334 0.151187
H30   H     H_    0.479306 0.270750 0.347944 0.145157
H31   H     H_    0.966304 0.383827 0.166637 0.352496
H32   H     H_    0.799781 0.603563 0.878140 0.192916
H33   H     H_    0.608637 0.320084 0.743215 0.179795
H34   H     H_    0.814082 0.519817 0.032470 0.150327
H35   H     H_    0.104048 0.689368 0.455118 0.109251
H36   H     H_    0.102272 0.692066 0.543832 0.106654
H37   H     H_    0.893056 0.686637 0.453336 0.144297
N1    N     N_R   0.499694 0.497519 0.202097 -0.473524
N2    N     N_R   0.495219 0.514468 0.797807 -0.462299
N3    N     N_3   0.500250 0.143650 0.501060 -0.130528
N4    N     N_3   0.500250 0.856350 0.501060 -0.126557
O1    O     O_R   0.317570 0.620260 0.500030 -0.605504
O2    O     O_2   0.281921 0.456202 0.797469 -0.506360
O3    O     O_2   0.714386 0.539734 0.203848 -0.492872
O4    O     O_2   0.707961 0.575372 0.796681 -0.511024
O5    O     O_2   0.936348 0.580396 0.112705 -0.600541
O6    O     O_R   0.877430 0.383381 0.154342 -0.710181
O7    O     O_R   0.317570 0.379740 0.500030 -0.584166
O8    O     O_R   0.499900 0.620250 0.430280 -0.593994
O9    O     O_R   0.499900 0.379750 0.430280 -0.596456
O10   O     O_R   0.682190 0.620260 0.500010 -0.603473
O11   O     O_R   0.682190 0.379740 0.500010 -0.594259
O12   O     O_R   0.499860 0.620280 0.569750 -0.600341
O13   O     O_R   0.499860 0.379720 0.569750 -0.543850
O14   O     O_2   0.282578 0.465228 0.203092 -0.511470

loop_
_geom_bond_atom_site_label_1
_geom_bond_atom_site_label_2
_ccdc_geom_bond_type
C10   C27   A    
C24   C52   A    
C4    O8    A    
C26   H23   S    
C40   H11   S    
C41   C42   S    
Cu2   O13   S    
C35   C36   S    
C42   H22   S    
C49   H30   S    
C24   H29   S    
C33   H5    S    
C7    C8    A    
C45   C46   A    
C12   C23   A    
C26   C27   A    
C50   C54   A    
C47   N1    A    
C46   O14   S    
C31   Cl3   S    
C22   C29   A    
C25   C53   A    
C29   H34   S    
C43   H19   S    
C49   C54   A    
C30   Cl2   S    
C6    H28   S    
C32   H37   S    
C30   H35   S    
C11   N2    A    
C18   C19   A    
C52   H24   S    
C40   N4    S    
C7    H27   S    
C20   C24   A    
C33   H2    S    
C11   O4    S    
Cu1   O10   S    
C31   C33   S    
C23   C48   A    
C13   O2    S    
C9    C10   A    
C17   C55   A    
Cu2   O7    S    
C16   C37   S    
C47   C53   A    
C46   N1    A    
C38   H9    S    
Cu1   Cu2   S    
C21   C22   A    
C2    C6    A    
C48   H12   S    
C28   C55   S    
C25   C29   A    
C2    C20   A    
Cu1   N4    S    
H31   O6    S    
C44   H20   S    
C35   C38   S    
C43   N3    S    
C32   H4    S    
C28   O12   A    
C39   C40   S    
C12   H3    S    
C19   N2    S    
C8    C9    A    
C21   C34   A    
C35   H6    S    
C3    C5    A    
C33   C37   S    
C15   H25   S    
C15   C55   A    
C13   N2    A    
C43   C44   S    
C25   C51   S    
C5    C9    A    
C37   C38   S    
Cu2   O11   S    
C41   H15   S    
C35   H7    S    
Cu1   O12   S    
C41   H21   S    
C17   C18   A    
C41   N3    S    
C27   H32   S    
C34   C45   A    
C32   C37   S    
C17   Cl1   S    
C14   H26   S    
C28   O13   A    
C48   C49   A    
C38   H8    S    
C2    C5    A    
C42   N4    S    
C16   O11   A    
C18   H33   S    
C4    O9    A    
C47   O3    S    
C4    C54   S    
C14   C15   A    
Cu1   O1    S    
C14   C19   A    
C3    C26   A    
Cu2   N3    S    
C12   C50   A    
C44   N4    S    
C6    C7    A    
C43   H17   S    
C42   H16   S    
C45   C52   A    
C30   C36   S    
C44   H18   S    
C30   C32   S    
C39   N3    S    
C51   O5    D    
Cu1   O8    S    
C39   H10   S    
C40   H14   S    
C39   H13   S    
Cu2   O9    S    
C10   C11   A    
C1    O7    A    
C8    C13   A    
C23   N1    S    
C20   C21   A    
C16   O10   A    
C34   C53   A    
C51   O6    S    
C50   H1    S    
C31   C36   S    
C3    C22   A    
C1    O1    A    
C31   H36   S    
C1    C36   S    
