data_mof_unit_47832.cif
_audit_creation_date              2012-12-10T17:02:32-0500
_audit_creation_method            fapswitch 2.2
_symmetry_space_group_name_H-M    P1
_symmetry_Int_Tables_number       1
_space_group_crystal_system       triclinic
_cell_length_a                    10.834945
_cell_length_b                    10.94878
_cell_length_c                    9.745506
_cell_angle_alpha                 110.232903
_cell_angle_beta                  97.987346
_cell_angle_gamma                 90.951005
_cell_volume                      1071.63883922

loop_
_atom_site_label
_atom_site_type_symbol
_atom_type_description
_atom_site_fract_x
_atom_site_fract_y
_atom_site_fract_z
_atom_type_partial_charge
C1    C     C_R   0.496879 0.253913 0.442071 0.880085
C2    C     C_R   0.514122 0.746162 0.557694 0.883926
C3    C     C_2   0.508606 0.115053 0.413334 -0.437447
C4    C     C_2   0.533146 0.885393 0.586155 -0.443495
C5    C     C_2   0.570879 0.071979 0.515298 0.409831
C6    C     C_2   0.567236 0.930124 0.483590 0.415105
C7    C     C_2   0.508029 0.512920 0.081336 -0.055455
C8    C     C_2   0.492887 0.485919 0.918234 -0.043317
C9    C     C_R   0.261738 0.484903 0.498592 0.797382
C10   C     C_R   0.738026 0.516102 0.501676 0.800793
C11   C     C_R   0.144115 0.510318 0.768646 -0.136279
C12   C     C_R   0.855750 0.495961 0.233578 -0.130820
C13   C     C_R   0.103698 0.573163 0.903716 -0.144078
C14   C     C_R   0.895814 0.434041 0.098163 -0.154126
C15   C     C_R   0.995459 0.639576 0.907744 -0.156813
C16   C     C_R   0.003321 0.366357 0.093046 -0.164188
C17   C     C_R   0.922239 0.633418 0.775888 -0.135606
C18   C     C_R   0.076487 0.370828 0.224388 -0.129239
C19   C     C_R   0.956676 0.560220 0.637161 0.081250
C20   C     C_R   0.042725 0.443650 0.363676 0.080106
C21   C     C_R   0.077077 0.513697 0.634555 0.079845
C22   C     C_R   0.922623 0.490725 0.366739 0.080222
C23   C     C_R   0.874285 0.532798 0.502202 -0.240936
C24   C     C_R   0.125252 0.470333 0.498664 -0.239144
Cu1   Cu    Cu3+1 0.521920 0.521810 0.644910 0.957708
Cu2   Cu    Cu3+1 0.478080 0.478190 0.355090 0.957024
H1    H     H_    0.031986 0.313413 0.987546 0.128160
H2    H     H_    0.966290 0.692874 0.012844 0.131350
H3    H     H_    0.225035 0.454754 0.770365 0.138617
H4    H     H_    0.775161 0.552189 0.233315 0.141319
H5    H     H_    0.157298 0.571507 0.005405 0.152679
H6    H     H_    0.842436 0.437347 0.997143 0.149251
H7    H     H_    0.839559 0.687969 0.783691 0.140625
H8    H     H_    0.158492 0.315273 0.215634 0.142663
H9    H     H_    0.521685 0.953100 0.694773 0.149190
H10   H     H_    0.468013 0.046428 0.305120 0.150209
H11   H     H_    0.428008 0.406508 0.844365 0.152449
H12   H     H_    0.573653 0.591404 0.154886 0.184674
H13   H     H_    0.615618 0.629838 0.935340 0.183989
H14   H     H_    0.383495 0.370887 0.064911 0.184767
N1    N     N_2   0.445130 0.445420 0.137360 -0.289704
N2    N     N_2   0.554870 0.554580 0.862640 -0.282764
O1    O     O_R   0.511700 0.332340 0.577400 -0.516975
O2    O     O_R   0.488300 0.667660 0.422600 -0.514667
O3    O     O_R   0.474680 0.295500 0.332650 -0.590167
O4    O     O_R   0.525320 0.704500 0.667350 -0.590334
O5    O     O_R   0.338170 0.518410 0.622370 -0.582168
O6    O     O_R   0.661830 0.481590 0.377630 -0.579174
O7    O     O_R   0.301150 0.481570 0.377630 -0.576221
O8    O     O_R   0.698850 0.518430 0.622370 -0.572034
O9    O     O_3   0.582609 0.844649 0.344425 -0.568529
C25   C     C_3   0.702403 0.870125 0.315119 -0.387070
H15   H     H_    0.776991 0.867002 0.404642 0.154294
H16   H     H_    0.709911 0.965127 0.298170 0.171842
H17   H     H_    0.718337 0.793058 0.211172 0.170141
O10   O     O_3   0.622681 0.158636 0.654427 -0.558421
C26   C     C_3   0.750191 0.137572 0.683543 -0.319792
H18   H     H_    0.801059 0.141125 0.593044 0.148962
H19   H     H_    0.762363 0.043755 0.702490 0.147340
H20   H     H_    0.793323 0.216774 0.786306 0.193163

loop_
_geom_bond_atom_site_label_1
_geom_bond_atom_site_label_2
_ccdc_geom_bond_type
Cu1   N2    S    
C19   C23   A    
C9    C24   S    
C15   C17   A    
C10   C23   S    
C11   C13   A    
Cu1   O5    S    
C5    O10   S    
C2    C4    S    
C25   H17   S    
Cu2   O6    S    
C8    N2    D    
Cu1   O1    S    
C16   H1    S    
C7    N1    D    
C15   H2    S    
C4    H9    S    
Cu2   O2    S    
C7    C8    S    
C2    O4    A    
C18   H8    S    
C1    O3    A    
C26   H18   S    
C17   H7    S    
C3    H10   S    
C16   C18   A    
H14   N1    S    
C19   C21   A    
C7    H12   S    
C25   H16   S    
C9    O5    A    
H13   N2    S    
C18   C20   A    
C13   C15   A    
C10   O6    A    
C5    C6    S    
C6    O9    S    
C14   C16   A    
C26   H19   S    
C8    H11   S    
C20   C22   A    
C11   C21   A    
O9    C25   S    
C10   O8    A    
C12   C22   A    
C9    O7    A    
C25   H15   S    
C11   H3    S    
C4    C6    D    
C21   C24   A    
C14   H6    S    
O10   C26   S    
C13   H5    S    
Cu1   O8    S    
C17   C19   A    
C26   H20   S    
C3    C5    D    
Cu2   O3    S    
C12   H4    S    
Cu1   Cu2   S    
C22   C23   A    
Cu1   O4    S    
C1    O1    A    
C2    O2    A    
C20   C24   A    
Cu2   N1    S    
C12   C14   A    
C1    C3    S    
Cu2   O7    S    
