data_mof_unit_5650.cif
_audit_creation_date              2012-12-10T18:04:45-0500
_audit_creation_method            fapswitch 2.2
_symmetry_space_group_name_H-M    P1
_symmetry_Int_Tables_number       1
_space_group_crystal_system       triclinic
_cell_length_a                    19.503574
_cell_length_b                    17.725388
_cell_length_c                    12.630701
_cell_angle_alpha                 90.267113
_cell_angle_beta                  99.299746
_cell_angle_gamma                 89.896543
_cell_volume                      4309.09845751

loop_
_atom_site_label
_atom_site_type_symbol
_atom_type_description
_atom_site_fract_x
_atom_site_fract_y
_atom_site_fract_z
_atom_type_partial_charge
C1    C     C_R   0.412882 0.104432 0.445136 0.852295
C2    C     C_R   0.781639 0.785875 0.644940 0.122144
C3    C     C_R   0.280470 0.716346 0.644008 0.143984
C4    C     C_R   0.276763 0.277777 0.650124 0.124063
C5    C     C_R   0.347978 0.744002 0.668691 -0.255289
C6    C     C_R   0.342914 0.247031 0.678160 -0.252078
C7    C     C_R   0.844633 0.249139 0.670296 -0.240515
C8    C     C_R   0.849125 0.757893 0.669915 -0.261329
C9    C     C_R   0.378535 0.778235 0.589562 -0.207075
C10   C     C_R   0.376686 0.216909 0.599234 -0.212337
C11   C     C_R   0.876134 0.281198 0.590737 -0.211627
C12   C     C_R   0.412054 0.896377 0.444122 0.859168
C13   C     C_R   0.879705 0.722881 0.590872 -0.201276
C14   C     C_R   0.677967 0.187261 0.513888 -0.281583
C15   C     C_R   0.681518 0.816707 0.514181 -0.284740
C16   C     C_R   0.179477 0.685803 0.513853 -0.280400
C17   C     C_R   0.182285 0.317604 0.515089 -0.287451
C18   C     C_R   0.676141 0.165120 0.702581 0.214889
C19   C     C_R   0.677236 0.835905 0.703816 0.224620
C20   C     C_R   0.178649 0.662154 0.702471 0.214015
C21   C     C_R   0.171082 0.328628 0.703679 0.224489
C22   C     C_R   0.364352 0.834415 0.409153 -0.116798
C23   C     C_R   0.912117 0.603674 0.444414 0.852479
C24   C     C_R   0.368167 0.169390 0.413289 -0.118975
C25   C     C_R   0.863022 0.335933 0.409386 -0.110220
C26   C     C_R   0.865131 0.666253 0.409955 -0.116087
C27   C     C_R   0.641537 0.012416 0.130070 -0.284786
C28   C     C_R   0.142314 0.505151 0.129919 -0.284706
C29   C     C_R   0.378209 0.006297 0.760820 0.329865
C30   C     C_R   0.878623 0.491558 0.762651 0.344738
C31   C     C_R   0.352646 0.020508 0.855401 -0.351901
C32   C     C_R   0.855276 0.468170 0.855818 -0.375718
C33   C     C_R   0.590433 0.898362 0.557292 0.850880
C34   C     C_R   0.911774 0.396749 0.444100 0.853607
C35   C     C_R   0.590052 0.101819 0.557247 0.860188
C36   C     C_R   0.089951 0.397904 0.557038 0.852955
C37   C     C_R   0.090357 0.601603 0.557326 0.857547
C38   C     C_R   0.397601 0.022445 0.952853 0.190945
C39   C     C_R   0.902555 0.458249 0.949931 0.186103
C40   C     C_R   0.469786 0.008728 0.953954 -0.031471
C41   C     C_R   0.972675 0.480388 0.952258 -0.003226
C42   C     C_R   0.493880 0.002148 0.854166 0.101120
C43   C     C_R   0.995179 0.494156 0.853030 0.101969
C44   C     C_R   0.519892 0.005193 0.048039 0.014390
C45   C     C_R   0.744436 0.217575 0.536452 0.079225
C46   C     C_R   0.021842 0.487458 0.047232 0.004326
C47   C     C_R   0.591538 0.008426 0.039430 0.065481
C48   C     C_R   0.093046 0.496258 0.039012 0.062130
C49   C     C_R   0.613134 0.006359 0.940460 -0.256275
C50   C     C_R   0.114584 0.498417 0.939773 -0.250944
C51   C     C_R   0.564682 0.000835 0.849085 -0.101613
C52   C     C_R   0.065902 0.498862 0.847896 -0.101731
C53   C     C_R   0.502580 0.995768 0.150510 -0.126014
C54   C     C_R   0.002928 0.491899 0.149859 -0.113395
C55   C     C_R   0.621368 0.009474 0.229273 0.556766
C56   C     C_R   0.748552 0.788089 0.536668 0.085324
C57   C     C_R   0.121655 0.506377 0.229111 0.552933
C58   C     C_R   0.742647 0.196397 0.727055 -0.280067
C59   C     C_R   0.745926 0.808585 0.727333 -0.221710
C60   C     C_R   0.245899 0.691731 0.726318 -0.275749
C61   C     C_R   0.238240 0.297740 0.730399 -0.227164
C62   C     C_R   0.646457 0.154958 0.593816 -0.095010
C63   C     C_R   0.648310 0.846695 0.594394 -0.148449
C64   C     C_R   0.147843 0.653625 0.593920 -0.095078
C65   C     C_R   0.146538 0.344789 0.594095 -0.147954
C66   C     C_R   0.335431 0.828721 0.300208 -0.191937
C67   C     C_R   0.246532 0.714828 0.535934 0.082059
C68   C     C_R   0.344117 0.181587 0.303780 -0.196032
C69   C     C_R   0.832693 0.332070 0.301057 -0.201988
C70   C     C_R   0.836738 0.672365 0.300815 -0.190448
C71   C     C_R   0.281306 0.778956 0.267243 -0.155986
C72   C     C_R   0.293317 0.235344 0.271912 -0.153194
C73   C     C_R   0.778588 0.282422 0.267872 -0.163818
C74   C     C_R   0.784067 0.723864 0.267832 -0.153215
C75   C     C_R   0.252229 0.738714 0.343156 -0.171994
C76   C     C_R   0.262309 0.273071 0.348572 -0.179219
C77   C     C_R   0.750240 0.241232 0.343569 -0.165257
C78   C     C_R   0.248056 0.286349 0.540509 0.081959
C79   C     C_R   0.755562 0.765204 0.343838 -0.182323
C80   C     C_R   0.279527 0.745279 0.453924 0.098612
C81   C     C_R   0.284331 0.259636 0.459531 0.100668
C82   C     C_R   0.777640 0.247606 0.454407 0.100487
C83   C     C_R   0.781982 0.757779 0.454701 0.099327
C84   C     C_R   0.341649 0.785955 0.484402 0.083931
C85   C     C_R   0.344026 0.215315 0.490937 0.082992
C86   C     C_R   0.839925 0.287957 0.484896 0.078038
C87   C     C_R   0.843183 0.715649 0.485367 0.086484
C88   C     C_3   0.586504 0.196752 0.805581 -0.751798
C89   C     C_R   0.777518 0.220717 0.644982 0.144772
C90   C     C_3   0.664429 0.830942 0.896918 -0.831778
C91   C     C_3   0.090513 0.694602 0.807965 -0.754481
C92   C     C_3   0.151562 0.319633 0.893699 -0.822966
C93   C     C_3   0.279882 0.947497 0.650104 -0.765091
C94   C     C_3   0.781245 0.557325 0.662238 -0.772519
C95   C     C_3   0.315641 0.006679 0.077169 -0.833542
C96   C     C_3   0.905846 0.336857 0.034025 -0.794201
H1    H     H_    0.667862 0.006831 0.933708 0.153568
H2    H     H_    0.085050 0.503080 0.773796 0.230100
H3    H     H_    0.375976 0.742317 0.750090 0.150688
H4    H     H_    0.367436 0.243521 0.761370 0.146245
H5    H     H_    0.872070 0.248528 0.752093 0.145721
H6    H     H_    0.876684 0.758974 0.751624 0.148758
H7    H     H_    0.766908 0.202146 0.810226 0.132750
H8    H     H_    0.771647 0.802633 0.809397 0.146429
H9    H     H_    0.270875 0.696220 0.809279 0.134083
H10   H     H_    0.260614 0.287156 0.813070 0.144541
H11   H     H_    0.649590 0.186714 0.433366 0.173733
H12   H     H_    0.169188 0.502627 0.933173 0.149457
H13   H     H_    0.653553 0.816611 0.433342 0.168343
H14   H     H_    0.150646 0.686468 0.433581 0.173210
H15   H     H_    0.157347 0.321516 0.432805 0.171546
H16   H     H_    0.353529 0.864073 0.240755 0.153891
H17   H     H_    0.363618 0.148619 0.242664 0.167363
H18   H     H_    0.849451 0.369266 0.242611 0.168604
H19   H     H_    0.854186 0.636187 0.241092 0.155406
H20   H     H_    0.707433 0.204739 0.312725 0.151450
H21   H     H_    0.713834 0.803222 0.313458 0.139224
H22   H     H_    0.209431 0.702088 0.312619 0.153854
H23   H     H_    0.696259 0.017341 0.124271 0.166682
H24   H     H_    0.222245 0.313162 0.318704 0.140581
H25   H     H_    0.259754 0.774023 0.182955 0.141620
H26   H     H_    0.275727 0.245436 0.187389 0.140767
H27   H     H_    0.756336 0.278509 0.183749 0.142149
H28   H     H_    0.763100 0.729315 0.183448 0.141624
H29   H     H_    0.430800 0.799626 0.612025 0.166531
H30   H     H_    0.428214 0.194302 0.624250 0.169233
H31   H     H_    0.928708 0.301594 0.613496 0.166563
H32   H     H_    0.931530 0.700378 0.613660 0.163997
H33   H     H_    0.673033 0.131854 0.857828 0.215958
H34   H     H_    0.196909 0.511767 0.124301 0.166653
H35   H     H_    0.609831 0.251886 0.833876 0.224239
H36   H     H_    0.558063 0.173906 0.867767 0.238138
H37   H     H_    0.548688 0.205502 0.730969 0.241449
H38   H     H_    0.585202 0.834014 0.766408 0.242623
H39   H     H_    0.625296 0.843948 0.949243 0.252119
H40   H     H_    0.711426 0.865198 0.925649 0.245280
H41   H     H_    0.676679 0.769744 0.903932 0.237365
H42   H     H_    0.176068 0.627488 0.857401 0.214514
H43   H     H_    0.114906 0.749170 0.836609 0.226186
H44   H     H_    0.062402 0.671860 0.870612 0.237629
H45   H     H_    0.451082 0.982930 0.164538 0.196799
H46   H     H_    0.052183 0.704400 0.734202 0.243193
H47   H     H_    0.076206 0.326068 0.758136 0.240373
H48   H     H_    0.110923 0.333215 0.943129 0.250721
H49   H     H_    0.198984 0.351977 0.926750 0.245273
H50   H     H_    0.161891 0.257996 0.899330 0.233877
H51   H     H_    0.309779 0.058761 0.644024 0.226469
H52   H     H_    0.255005 0.943574 0.564766 0.242347
H53   H     H_    0.239203 0.960115 0.699890 0.212455
H54   H     H_    0.304056 0.892358 0.674505 0.262140
H55   H     H_    0.806838 0.445642 0.643478 0.226491
H56   H     H_    0.949586 0.492215 0.162378 0.177556
H57   H     H_    0.753701 0.564386 0.578814 0.244346
H58   H     H_    0.808024 0.610878 0.688599 0.260058
H59   H     H_    0.742458 0.544790 0.715204 0.214714
H60   H     H_    0.361271 0.107199 0.041030 0.222823
H61   H     H_    0.308702 0.024070 0.159318 0.245075
H62   H     H_    0.328185 0.945482 0.078295 0.244012
H63   H     H_    0.266114 0.016797 0.022068 0.239570
H64   H     H_    0.829506 0.417858 0.037726 0.218117
H65   H     H_    0.888667 0.305679 0.100909 0.237002
H66   H     H_    0.963502 0.334762 0.045278 0.253371
H67   H     H_    0.297997 0.032965 0.852257 0.166684
H68   H     H_    0.884086 0.308192 0.957486 0.232679
H69   H     H_    0.656756 0.996058 0.379303 0.385340
H70   H     H_    0.156900 0.497170 0.379781 0.384941
H71   H     H_    0.801299 0.452592 0.852824 0.155926
H72   H     H_    0.583982 0.997999 0.774849 0.230298
N1    N     N_R   0.552340 0.000000 0.237260 -0.166407
N2    N     N_2   0.830931 0.496409 0.665448 -0.240600
N3    N     N_2   0.371500 0.050086 0.044564 -0.317446
N4    N     N_2   0.881777 0.414255 0.033261 -0.323263
N5    N     N_R   0.052340 0.500000 0.237260 -0.163070
N6    N     N_R   0.448170 0.000000 0.762060 -0.150877
N7    N     N_R   0.948170 0.500000 0.762060 -0.149660
N8    N     N_2   0.640363 0.144238 0.787410 -0.297253
N9    N     N_2   0.636499 0.849815 0.786828 -0.295843
N10   N     N_2   0.143240 0.641294 0.787729 -0.302858
N11   N     N_2   0.127381 0.340831 0.783288 -0.288855
N12   N     N_2   0.331800 0.006455 0.661939 -0.238154
O1    O     O_R   0.448200 0.076800 0.373930 -0.606731
O2    O     O_R   0.585240 0.076800 0.457600 -0.615136
O3    O     O_R   0.085240 0.423200 0.457600 -0.635558
O4    O     O_R   0.085240 0.576800 0.457600 -0.615459
O5    O     O_R   0.551780 0.923190 0.626070 -0.645963
O6    O     O_R   0.551780 0.076810 0.626070 -0.614075
O7    O     O_R   0.051780 0.423190 0.626070 -0.641748
O8    O     O_R   0.051780 0.576810 0.626070 -0.616263
O9    O     O_3   0.673214 0.016566 0.316375 -0.787087
O10   O     O_3   0.173229 0.516341 0.315933 -0.788938
O11   O     O_R   0.448200 0.923200 0.373930 -0.617372
O12   O     O_R   0.948200 0.576800 0.373930 -0.617302
O13   O     O_R   0.948200 0.423200 0.373930 -0.608037
O14   O     O_R   0.414750 0.076790 0.542400 -0.608108
O15   O     O_R   0.414750 0.923210 0.542400 -0.580089
O16   O     O_R   0.914750 0.576790 0.542400 -0.580305
O17   O     O_R   0.914750 0.423210 0.542400 -0.608159
O18   O     O_R   0.585240 0.923200 0.457600 -0.635284
Zn1   Zn    Zn3+2 0.522330 0.000000 0.387520 0.936388
Zn2   Zn    Zn3+2 0.022330 0.500000 0.387520 0.936361
Zn3   Zn    Zn3+2 0.477660 0.000000 0.612480 0.933970
Zn4   Zn    Zn3+2 0.977660 0.500000 0.612480 0.936230

loop_
_geom_bond_atom_site_label_1
_geom_bond_atom_site_label_2
_ccdc_geom_bond_type
C74   H28   S    
C10   C85   A    
C8    C13   A    
C90   H39   S    
C95   H62   S    
C15   H13   S    
C83   C87   A    
C45   C82   A    
C78   C81   A    
C29   N6    A    
C72   C76   A    
C37   C64   S    
C93   H54   S    
C16   H14   S    
C38   N3    S    
C39   C41   A    
C28   C57   A    
C35   O2    A    
C7    C11   A    
O7    Zn4   S    
C76   H24   S    
H55   N2    S    
C95   H63   S    
C59   H8    S    
C55   O9    S    
C54   N5    A    
O11   Zn1   S    
C88   H37   S    
C94   H57   S    
C28   H34   S    
C27   C55   A    
C43   C52   A    
C23   C26   S    
C37   O8    A    
C11   C86   A    
C14   C62   A    
C91   N10   S    
C12   C22   S    
C6    H4    S    
C96   H65   S    
C93   H52   S    
C4    C78   A    
C32   C39   A    
O5    Zn3   S    
C22   C66   A    
C77   C82   A    
C13   H32   S    
C93   H53   S    
H51   N12   S    
C18   C58   A    
C30   N2    S    
C5    H3    S    
C19   C63   A    
C94   H59   S    
O4    Zn2   S    
C29   N12   S    
C23   O16   A    
C70   C74   A    
C50   C52   A    
C41   C46   A    
H33   N8    S    
C69   C73   A    
O18   Zn1   S    
H47   N11   S    
C20   C60   A    
C77   H20   S    
C45   C89   A    
C24   C85   A    
C19   N9    S    
C21   C61   A    
C44   C47   A    
C80   C84   A    
C68   H17   S    
N1    Zn1   S    
C91   H46   S    
C21   C65   A    
C3    C60   A    
C48   C50   A    
C90   N9    S    
N5    Zn2   S    
C50   H12   S    
C41   C43   A    
C13   C87   A    
C51   H72   S    
C75   H22   S    
C43   N7    A    
C17   H15   S    
C23   O12   A    
C93   N12   S    
C14   C45   A    
C46   C48   A    
H64   N4    S    
C31   H67   S    
C69   H18   S    
C71   C75   A    
C67   C80   A    
C92   H50   S    
C30   C32   A    
O1    Zn1   S    
C47   C49   A    
C33   O5    A    
C42   N6    A    
C36   O3    A    
C1    O1    A    
C2    C59   A    
C26   C87   A    
C20   N10   S    
C49   C51   A    
C82   C86   A    
O14   Zn3   S    
C4    C61   A    
N6    Zn3   S    
C9    H29   S    
C96   H68   S    
O6    Zn3   S    
C68   C72   A    
H70   O10   S    
C22   C84   A    
C20   C64   A    
C11   H31   S    
C5    C9    A    
C39   N4    S    
C92   N11   S    
C90   H40   S    
H69   O9    S    
C66   C71   A    
C40   C44   A    
C33   C63   S    
C46   C54   A    
C44   C53   A    
O17   Zn4   S    
C16   C67   A    
C61   H10   S    
C57   N5    A    
C34   O13   A    
C4    C6    A    
C14   H11   S    
C27   H23   S    
C74   C79   A    
C7    H5    S    
C26   C70   A    
C12   O15   A    
C91   H43   S    
C25   C69   A    
C88   H36   S    
O16   Zn4   S    
H42   N10   S    
C30   N7    A    
C90   H41   S    
C56   C83   A    
C75   C80   A    
C27   C47   A    
C12   O11   A    
C28   C48   A    
C73   C77   A    
C72   H26   S    
C92   H49   S    
C95   H61   S    
C71   H25   S    
C3    C67   A    
O2    Zn1   S    
N7    Zn4   S    
C40   C42   A    
C3    C5    A    
C76   C81   A    
C6    C10   A    
C54   H56   S    
O15   Zn3   S    
C42   C51   A    
C53   N1    A    
C70   H19   S    
O13   Zn2   S    
C25   C34   S    
H60   N3    S    
C17   C65   A    
O3    Zn2   S    
C88   N8    S    
C31   C38   A    
C36   O7    A    
C19   C59   A    
C15   C56   A    
C36   C65   S    
C1    O14   A    
C57   O10   S    
C29   C31   A    
C73   H27   S    
C2    C56   A    
C94   N2    S    
C38   C40   A    
C94   H58   S    
C37   O4    A    
C34   O17   A    
C25   C86   A    
C8    H6    S    
C33   O18   A    
C35   O6    A    
C79   H21   S    
C52   H2    S    
C17   C78   A    
C96   H66   S    
C35   C62   S    
C53   H45   S    
O12   Zn2   S    
H38   N9    S    
C92   H48   S    
C58   C89   A    
C24   C68   A    
C9    C84   A    
C49   H1    S    
C91   H44   S    
C79   C83   A    
C21   N11   S    
C1    C24   S    
C96   N4    S    
C32   H71   S    
C2    C8    A    
C15   C63   A    
O8    Zn4   S    
C18   C62   A    
C58   H7    S    
C16   C64   A    
C88   H35   S    
C66   H16   S    
C10   H30   S    
C95   N3    S    
C55   N1    A    
C81   C85   A    
C60   H9    S    
C18   N8    S    
C7    C89   A    
