data_mof_unit_14066.cif
_audit_creation_date              2013-03-05T15:45:31-0500
_audit_creation_method            fapswitch 2.2
_symmetry_space_group_name_H-M    P1
_symmetry_Int_Tables_number       1
_space_group_crystal_system       triclinic
_cell_length_a                    9.913533
_cell_length_b                    11.089315
_cell_length_c                    13.347715
_cell_angle_alpha                 95.366651
_cell_angle_beta                  81.717162
_cell_angle_gamma                 111.477244
_cell_volume                      1349.91251654

loop_
_atom_site_label
_atom_site_type_symbol
_atom_site_description
_atom_site_fract_x
_atom_site_fract_y
_atom_site_fract_z
_atom_type_partial_charge
O1    O     O_R   0.426290 0.668220 0.490680 -0.494023
O2    O     O_R   0.659360 0.703290 0.520190 -0.553824
C1    C     C_R   0.555551 0.744917 0.510438 0.771825
O3    O     O_R   0.326580 0.473880 0.629020 -0.492668
O4    O     O_R   0.559660 0.508940 0.658530 -0.584851
C2    C     C_R   0.420824 0.476788 0.690287 0.824179
Cu1   Cu    Cu3+1 0.362000 0.479240 0.482530 1.116086
Cu2   Cu    Cu3+1 0.638000 0.520760 0.517470 1.121498
O5    O     O_R   0.340640 0.296710 0.479810 -0.565967
O6    O     O_R   0.573710 0.331780 0.509320 -0.539956
O7    O     O_R   0.440340 0.491060 0.341470 -0.570843
O8    O     O_R   0.673420 0.526120 0.370980 -0.525950
C3    C     C_R   0.442176 0.254826 0.495066 0.832595
C4    C     C_R   0.578264 0.515746 0.309222 0.877786
C5    C     C_R   0.799012 0.526055 0.049516 0.362809
H1    H     H_    0.809391 0.423468 0.855862 0.205635
C6    C     C_R   0.622513 0.518342 0.198354 -0.257142
C7    C     C_R   0.225381 0.424188 0.841305 0.176056
C8    C     C_R   0.173549 0.378674 0.940074 0.346640
C9    C     C_R   0.272317 0.372962 0.003339 0.257471
C10   C     C_R   0.423532 0.414236 0.967539 -0.057903
C11   C     C_R   0.464669 0.421138 0.861675 -0.034896
C12   C     C_R   0.536721 0.451113 0.032022 0.103963
C13   C     C_R   0.681913 0.469024 0.989740 -0.050899
C14   C     C_R   0.706362 0.431302 0.887944 -0.111143
C15   C     C_R   0.599677 0.408649 0.824395 -0.042179
C16   C     C_R   0.511432 0.481154 0.135454 -0.203803
C17   C     C_R   0.769287 0.551370 0.154204 0.347574
C18   C     C_R   0.369705 0.439382 0.798434 -0.248548
H2    H     H_    0.404958 0.479075 0.168402 0.223859
H3    H     H_    0.625085 0.380047 0.746734 0.180630
C19   C     C_2   0.579387 0.882428 0.533363 0.280147
C20   C     C_2   0.506234 0.938843 0.487639 0.333913
H4    H     H_    0.327013 0.055982 0.443207 0.175425
C21   C     C_2   0.412202 0.115826 0.488324 -0.439586
C22   C     C_2   0.500321 0.067441 0.525696 0.443033
N1    N     N_2   0.845330 0.551960 0.543750 -0.119559
C23   C     C_2   0.925079 0.489804 0.492626 0.337821
H5    H     H_    0.098151 0.365521 0.416154 0.237485
N2    N     N_2   0.154690 0.448120 0.456210 -0.274401
C24   C     C_2   0.085586 0.521629 0.501393 0.511342
N3    N     N_R   0.887931 0.624756 0.211726 0.177839
O9    O     O_R   0.879425 0.722864 0.270479 -0.330253
O10   O     O_R   0.013007 0.608768 0.193012 -0.213963
O11   O     O_3   0.436605 0.873949 0.404861 -0.732041
H6    H     H_    0.441135 0.938795 0.357108 0.343212
O12   O     O_3   0.669310 0.950678 0.605774 -0.641475
H7    H     H_    0.702813 0.890807 0.637239 0.361840
O13   O     O_3   0.163328 0.631925 0.554169 -0.608239
H8    H     H_    0.131643 0.702372 0.538579 0.330381
N4    N     N_R   0.859115 0.387452 0.421497 0.099980
O14   O     O_R   0.885226 0.409423 0.325456 -0.295093
O15   O     O_R   0.816368 0.268219 0.448356 -0.302590
N5    N     N_R   0.890433 0.623950 0.631746 0.211989
O16   O     O_R   0.865208 0.730997 0.653599 -0.312167
O17   O     O_R   0.920358 0.569645 0.703326 -0.305818
O18   O     O_3   0.943202 0.567157 0.007142 -0.631286
H9    H     H_    0.949638 0.592939 0.937116 0.363048
N6    N     N_R   0.133548 0.461580 0.787533 0.134090
O19   O     O_R   0.162453 0.584280 0.777152 -0.268228
O20   O     O_R   0.037981 0.374871 0.735937 -0.334526
N7    N     N_R   0.215762 0.308661 0.097451 0.141735
O21   O     O_R   0.266644 0.224248 0.122412 -0.320136
O22   O     O_R   0.110921 0.331251 0.157232 -0.223721
O23   O     O_3   0.027365 0.339823 0.977693 -0.609526
H10   H     H_    0.967956 0.331889 0.922322 0.355622
O24   O     O_3   0.586076 0.135818 0.600390 -0.597848
H11   H     H_    0.532118 0.183397 0.645697 0.307543

loop_
_geom_bond_atom_site_label_1
_geom_bond_atom_site_label_2
_geom_bond_distance
_ccdc_geom_bond_type
O4    Cu2   1.927611 S    
N7    O22   1.301539 A    
Cu1   N2    2.032793 S    
C3    C21   1.455575 S    
N1    C23   1.312020 D    
C11   C18   1.428336 A    
C12   C16   1.398298 A    
C20   O11   1.386518 S    
N3    O9    1.301646 A    
N5    O16   1.299369 A    
C21   C22   1.348589 D    
Cu2   O8    1.938735 S    
C19   C20   1.349429 D    
C2    C18   1.503308 S    
C8    C9    1.403369 A    
O2    C1    1.298772 A    
O18   H9    0.989393 S    
C22   O24   1.386519 S    
O11   H6    0.989552 S    
N6    O19   1.300395 A    
C7    C18   1.417230 A    
C10   C11   1.414292 A    
C13   C14   1.397482 A    
C16   H2    1.076305 S    
Cu1   O7    1.927612 S    
C5    O18   1.381712 S    
C4    C6    1.481507 S    
C5    C17   1.409539 A    
N7    O21   1.301623 A    
N3    O10   1.301825 A    
O3    Cu1   1.938737 S    
O4    C2    1.304601 A    
N1    N5    1.389731 S    
C24   O13   1.375217 S    
C5    C13   1.420928 A    
O7    C4    1.306964 A    
O8    C4    1.307462 A    
C8    O23   1.382581 S    
C10   C12   1.429527 A    
C9    N7    1.439679 S    
C1    C19   1.464406 S    
H4    C21   1.085199 S    
C19   O12   1.385295 S    
N5    O17   1.297532 A    
N6    O20   1.301333 A    
Cu2   N1    2.032633 S    
C12   C13   1.416796 A    
O24   H11   0.991971 S    
C6    C16   1.398802 A    
O12   H7    0.990611 S    
Cu1   O5    1.953941 S    
C7    N6    1.426966 S    
Cu1   Cu2   2.705720 S    
C20   C22   1.487368 S    
C9    C10   1.420263 A    
C23   C24   1.518172 S    
O3    C2    1.317511 A    
O23   H10   0.988006 S    
C11   C15   1.410340 A    
C17   N3    1.441373 S    
H1    C14   1.079873 S    
O13   H8    0.990547 S    
O5    C3    1.299810 A    
H5    N2    1.028496 S    
C7    C8    1.412858 A    
N2    C24   1.302089 D    
C23   N4    1.432153 S    
N4    O15   1.300366 A    
C14   C15   1.387530 A    
O1    Cu1   1.951692 S    
C6    C17   1.414808 A    
C15   H3    1.077196 S    
Cu2   O6    1.951695 S    
O2    Cu2   1.953938 S    
N4    O14   1.298587 A    
O1    C1    1.300896 A    
O6    C3    1.300399 A    
