data_mof_unit_17722.cif
_audit_creation_date              2012-12-11T14:56:43-0500
_audit_creation_method            fapswitch 2.2
_symmetry_space_group_name_H-M    P1
_symmetry_Int_Tables_number       1
_space_group_crystal_system       triclinic
_cell_length_a                    10.547248
_cell_length_b                    10.677611
_cell_length_c                    17.143828
_cell_angle_alpha                 80.659451
_cell_angle_beta                  90.101207
_cell_angle_gamma                 119.325653
_cell_volume                      1654.1935279

loop_
_atom_site_label
_atom_site_type_symbol
_atom_type_description
_atom_site_fract_x
_atom_site_fract_y
_atom_site_fract_z
_atom_type_partial_charge
C1    C     C_R   0.223036 0.854685 0.128744 0.549948
C2    C     C_1   0.651433 0.345383 0.707535 -0.031600
C3    C     C_R   0.528722 0.759875 0.781395 -0.122787
C4    C     C_R   0.639350 0.285214 0.084382 0.563255
C5    C     C_R   0.527531 0.758055 0.701988 -0.134406
C6    C     C_R   0.653936 0.853296 0.652284 0.033277
C7    C     C_R   0.772971 0.967369 0.680393 -0.128996
C8    C     C_R   0.771663 0.973362 0.760673 -0.144088
C9    C     C_R   0.651900 0.864794 0.811967 0.033557
C10   C     C_R   0.099402 0.900225 0.786663 -0.131918
C11   C     C_R   0.088873 0.899339 0.707089 -0.124223
C12   C     C_R   0.817086 0.444271 0.256537 -0.164895
C13   C     C_R   0.117330 0.804697 0.671863 0.033994
C14   C     C_R   0.146125 0.703007 0.718755 -0.137198
C15   C     C_R   0.160645 0.706679 0.799029 -0.129185
C16   C     C_R   0.640901 0.858732 0.125372 0.564910
C17   C     C_R   0.146335 0.812097 0.831672 0.031664
C18   C     C_R   0.686343 0.809384 0.357179 0.543810
C19   C     C_R   0.723566 0.455439 0.383133 0.555687
C20   C     C_R   0.103139 0.809793 0.359057 0.553488
C21   C     C_R   0.675183 0.806252 0.581667 0.546129
C22   C     C_R   0.679069 0.382904 0.624538 0.564534
C23   C     C_R   0.801927 0.413944 0.181018 -0.151125
C24   C     C_R   0.090083 0.798990 0.589559 0.554021
C25   C     C_R   0.215232 0.857641 0.902672 0.543647
C26   C     C_R   0.636994 0.284227 0.860858 0.554561
C27   C     C_R   0.637470 0.870989 0.894777 0.555754
C28   C     C_R   0.556881 0.381995 0.185751 0.017868
C29   C     C_R   0.568971 0.406143 0.264607 0.014487
C30   C     C_R   0.699232 0.430746 0.301326 -0.029654
C31   C     C_2   0.428953 0.368574 0.142957 0.622992
C32   C     C_2   0.443144 0.400982 0.306607 0.637116
C33   C     C_R   0.668267 0.369925 0.148016 -0.012239
C34   C     C_1   0.669387 0.849346 0.205454 0.001399
C35   C     C_1   0.679889 0.838763 0.274920 0.000029
C36   C     C_1   0.180221 0.825725 0.211124 -0.024255
C37   C     C_1   0.150485 0.819015 0.279681 -0.024774
C38   C     C_1   0.643413 0.323073 0.778069 -0.029400
Cr1   Cr    Cr6+3 0.402240 0.783890 0.019450 1.050697
Cr2   Cr    Cr6+3 0.382360 0.097900 0.991800 1.062273
Cr3   Cr    Cr6+3 0.715380 0.118170 0.988700 1.034458
Cr4   Cr    Cr6+3 0.936650 0.882420 0.465510 1.065840
Cr5   Cr    Cr6+3 0.605770 0.565620 0.493360 1.060917
Cr6   Cr    Cr6+3 0.921340 0.550490 0.496380 1.025278
H1    H     H_    0.058389 0.973783 0.673294 0.137465
H2    H     H_    0.082893 0.979092 0.811181 0.132738
H3    H     H_    0.357580 0.431210 0.042920 0.325411
H4    H     H_    0.317082 0.492930 0.313906 0.339439
H5    H     H_    0.160435 0.623929 0.693184 0.121663
H6    H     H_    0.191681 0.633872 0.834126 0.121596
H7    H     H_    0.920335 0.472504 0.281307 0.150866
H8    H     H_    0.892461 0.414449 0.150916 0.160956
H9    H     H_    0.431685 0.677290 0.818708 0.136293
H10   H     H_    0.432819 0.671793 0.681344 0.131892
H11   H     H_    0.870495 0.044845 0.641729 0.129996
H12   H     H_    0.864455 0.059208 0.782716 0.124107
O1    O     O_R   0.521780 0.757110 0.108900 -0.457425
O2    O     O_R   0.805020 0.410040 0.421340 -0.504751
O3    O     O_R   0.049240 0.685450 0.403290 -0.527443
O4    O     O_R   0.275160 0.783810 0.101120 -0.498010
O5    O     O_R   0.077520 0.903010 0.551800 -0.510011
O6    O     O_R   0.802980 0.872780 0.546830 -0.509690
O7    O     O_R   0.578090 0.681300 0.569920 -0.522204
O8    O     O_R   0.608530 0.436370 0.586530 -0.488411
O9    O     O_R   0.798770 0.401880 0.597100 -0.508934
O10   O     O_R   0.043450 0.677890 0.566230 -0.504992
O11   O     O_3   0.821250 0.666180 0.485090 -0.292749
O12   O     O_R   0.513330 0.228330 0.898660 -0.494324
O13   O     O_R   0.237900 0.972600 0.090980 -0.487868
O14   O     O_R   0.511190 0.220540 0.061620 -0.471218
O15   O     O_R   0.736920 0.257720 0.063840 -0.523301
O16   O     O_R   0.710450 0.984050 0.081720 -0.500084
O17   O     O_R   0.524090 0.765520 0.933110 -0.513103
O18   O     O_R   0.277300 0.791600 0.938160 -0.515162
O19   O     O_R   0.240210 0.981010 0.915190 -0.521820
O20   O     O_2   0.304549 0.286275 0.173839 -0.485864
O21   O     O_R   0.452125 0.449259 0.066319 -0.672017
O22   O     O_2   0.366781 0.297277 0.359335 -0.473083
O23   O     O_R   0.739230 0.266130 0.888050 -0.515137
O24   O     O_R   0.406755 0.509830 0.282068 -0.674655
O25   O     O_R   0.712580 0.991850 0.918770 -0.506444
O26   O     O_3   0.499990 0.999980 0.999980 -0.269165
O27   O     O_R   0.083770 0.911170 0.376030 -0.458227
O28   O     O_R   0.808770 0.880340 0.383890 -0.497947
O29   O     O_R   0.584340 0.689460 0.394160 -0.499969
O30   O     O_R   0.614320 0.443940 0.423590 -0.463263

loop_
_geom_bond_atom_site_label_1
_geom_bond_atom_site_label_2
_ccdc_geom_bond_type
C24   O5    A    
C11   C13   A    
Cr6   O10   S    
C16   O16   A    
C7    H11   S    
C19   O30   A    
C8    H12   S    
C4    O14   A    
C23   H8    S    
Cr5   O7    S    
C7    C8    A    
C12   C23   A    
Cr2   O14   S    
C28   C29   A    
C34   C35   T    
C29   C32   S    
C5    C6    A    
Cr1   O18   S    
C14   H5    S    
Cr1   O4    S    
Cr6   O3    S    
Cr1   O1    S    
C25   O18   A    
C15   H6    S    
C16   C34   S    
Cr6   O2    S    
C8    C9    A    
C23   C33   A    
C10   H2    S    
C18   O28   A    
C18   C35   S    
Cr4   O6    S    
C24   O10   A    
Cr3   O15   S    
C13   C14   A    
Cr6   O9    S    
Cr5   O8    S    
C31   O21   S    
C19   O2    A    
C18   O29   A    
Cr2   O13   S    
Cr5   O29   S    
Cr2   O26   S    
C5    H10   S    
C27   O25   A    
Cr4   O28   S    
C1    O4    A    
C26   C38   S    
C6    C21   S    
C32   O22   D    
C1    O13   A    
C13   C24   S    
C25   O19   A    
C22   O9    A    
C2    C22   S    
C29   C30   A    
C3    C9    A    
C32   O24   S    
C2    C38   T    
Cr3   O25   S    
C20   O3    A    
Cr4   O5    S    
C21   O6    A    
Cr3   O16   S    
C28   C33   A    
Cr4   O11   S    
C11   H1    S    
H3    O21   S    
C12   H7    S    
C9    C27   S    
C15   C17   A    
C4    C33   S    
C36   C37   T    
C12   C30   A    
Cr5   O30   S    
C28   C31   S    
Cr4   O27   S    
Cr1   O26   S    
C3    C5    A    
Cr3   O23   S    
C6    C7    A    
C26   O23   A    
Cr2   O19   S    
C17   C25   S    
H4    O24   S    
C26   O12   A    
C20   C37   S    
C3    H9    S    
C31   O20   D    
Cr3   O26   S    
C16   O1    A    
Cr1   O17   S    
C21   O7    A    
C10   C11   A    
C22   O8    A    
Cr5   O11   S    
Cr2   O12   S    
C20   O27   A    
C14   C15   A    
Cr6   O11   S    
C10   C17   A    
C27   O17   A    
C19   C30   S    
C4    O15   A    
C1    C36   S    
