data_mof_unit_62310.cif
_audit_creation_date              2012-12-10T20:32:48-0500
_audit_creation_method            fapswitch 2.2
_symmetry_space_group_name_H-M    P1
_symmetry_Int_Tables_number       1
_space_group_crystal_system       triclinic
_cell_length_a                    28.082074
_cell_length_b                    28.082074
_cell_length_c                    34.365032
_cell_angle_alpha                 90.000554
_cell_angle_beta                  90.000554
_cell_angle_gamma                 89.99991
_cell_volume                      27100.3632088

loop_
_atom_site_label
_atom_site_type_symbol
_atom_type_description
_atom_site_fract_x
_atom_site_fract_y
_atom_site_fract_z
_atom_type_partial_charge
C1    C     C_R   0.801192 0.698808 0.750000 0.157063
C2    C     C_R   0.198724 0.698725 0.750000 0.161914
C3    C     C_1   0.265180 0.765180 0.250000 -0.060894
C4    C     C_1   0.234907 0.265093 0.750000 -0.058872
C5    C     C_1   0.765181 0.734819 0.250000 -0.060905
C6    C     C_1   0.265094 0.765094 0.750000 -0.058867
C7    C     C_1   0.734820 0.234820 0.250000 -0.060894
C8    C     C_1   0.765094 0.265094 0.250000 -0.058867
C9    C     C_1   0.234820 0.734820 0.750000 -0.060894
C10   C     C_1   0.734907 0.765093 0.250000 -0.058872
C11   C     C_1   0.265181 0.234819 0.750000 -0.060905
C12   C     C_1   0.234906 0.734906 0.250000 -0.058867
C13   C     C_R   0.698808 0.801191 0.250000 0.157061
C14   C     C_1   0.765179 0.265180 0.750000 -0.060894
C15   C     C_1   0.265093 0.234907 0.250000 -0.058872
C16   C     C_1   0.734820 0.765180 0.750000 -0.060905
C17   C     C_R   0.087248 0.498528 0.979682 0.121649
C18   C     C_R   0.912753 0.498449 0.020319 0.121668
C19   C     C_R   0.498451 0.912754 0.979679 0.121669
C20   C     C_R   0.498528 0.087248 0.020320 0.121648
C21   C     C_R   0.912752 0.501472 0.979680 0.121648
C22   C     C_R   0.087246 0.501549 0.020321 0.121669
C23   C     C_R   0.501551 0.087247 0.979681 0.121668
C24   C     C_R   0.301276 0.198723 0.750000 0.161938
C25   C     C_R   0.501472 0.912752 0.020318 0.121649
C26   C     C_R   0.587248 0.998528 0.479682 0.121649
C27   C     C_R   0.412753 0.998449 0.520319 0.121668
C28   C     C_R   0.998451 0.412754 0.479679 0.121669
C29   C     C_R   0.998528 0.587248 0.520320 0.121648
C30   C     C_R   0.412752 0.001472 0.479680 0.121648
C31   C     C_R   0.587246 0.001549 0.520321 0.121669
C32   C     C_R   0.001551 0.587247 0.479681 0.121668
C33   C     C_R   0.001472 0.412752 0.520318 0.121649
C34   C     C_R   0.957227 0.491375 0.917998 -0.059307
C35   C     C_R   0.198808 0.698808 0.250000 0.157059
C36   C     C_R   0.042780 0.491411 0.082003 -0.059300
C37   C     C_R   0.491414 0.042781 0.917998 -0.059304
C38   C     C_R   0.491374 0.957227 0.082001 -0.059309
C39   C     C_R   0.042773 0.508626 0.917999 -0.059309
C40   C     C_R   0.957219 0.508586 0.082002 -0.059305
C41   C     C_R   0.508589 0.957220 0.917997 -0.059301
C42   C     C_R   0.508625 0.042773 0.082002 -0.059307
C43   C     C_R   0.457227 0.991375 0.417998 -0.059307
C44   C     C_R   0.542780 0.991411 0.582003 -0.059300
C45   C     C_R   0.991414 0.542781 0.417998 -0.059304
C46   C     C_R   0.801275 0.301276 0.750000 0.161914
C47   C     C_R   0.991374 0.457227 0.582001 -0.059309
C48   C     C_R   0.542773 0.008626 0.417999 -0.059309
C49   C     C_R   0.457219 0.008586 0.582002 -0.059305
C50   C     C_R   0.008589 0.457220 0.417997 -0.059301
C51   C     C_R   0.008625 0.542773 0.582002 -0.059307
C52   C     C_R   1.000000 0.500000 0.897948 -0.104492
C53   C     C_R   1.000000 0.499999 0.102053 -0.104486
C54   C     C_R   0.500001 0.000000 0.897947 -0.104486
C55   C     C_R   0.499999 1.000000 0.102052 -0.104492
C56   C     C_R   0.500000 0.000000 0.397948 -0.104492
C57   C     C_R   0.301192 0.198808 0.250000 0.157062
C58   C     C_R   0.499999 0.999999 0.602052 -0.104486
C59   C     C_R   0.000001 0.500000 0.397947 -0.104486
C60   C     C_R   1.000000 0.500000 0.602052 -0.104492
C61   C     C_R   0.043892 0.501950 0.958812 -0.007344
C62   C     C_R   0.956106 0.501910 0.041189 -0.007338
C63   C     C_R   0.501912 0.956107 0.958811 -0.007340
C64   C     C_R   0.501950 0.043892 0.041189 -0.007345
C65   C     C_R   0.956108 0.498050 0.958811 -0.007345
C66   C     C_R   0.043893 0.498088 0.041189 -0.007340
C67   C     C_R   0.498090 0.043894 0.958811 -0.007338
C68   C     C_R   0.698724 0.801276 0.750000 0.161920
C69   C     C_R   0.498050 0.956108 0.041188 -0.007344
C70   C     C_R   0.543892 0.001950 0.458812 -0.007344
C71   C     C_R   0.456106 0.001910 0.541188 -0.007338
C72   C     C_R   0.001912 0.456107 0.458811 -0.007340
C73   C     C_R   0.001950 0.543892 0.541189 -0.007345
C74   C     C_R   0.456108 0.998050 0.458811 -0.007345
C75   C     C_R   0.543893 0.998088 0.541189 -0.007340
C76   C     C_R   0.998090 0.543894 0.458811 -0.007338
C77   C     C_R   0.998050 0.456108 0.541188 -0.007343
C78   C     C_R   0.500000 0.000000 0.855615 0.806079
C79   C     C_R   0.839989 0.702440 0.775335 -0.159909
C80   C     C_R   0.500000 1.000000 0.144385 0.806054
C81   C     C_R   0.000000 0.500000 0.855615 0.806055
C82   C     C_R   1.000000 0.500000 0.144385 0.806079
C83   C     C_R   0.000000 0.500000 0.355615 0.806079
C84   C     C_R   1.000000 0.500000 0.644385 0.806055
C85   C     C_R   0.500000 0.000000 0.355615 0.806055
C86   C     C_R   0.500000 1.000000 0.644385 0.806079
C87   C     C_R   0.408991 0.908991 0.750000 0.777346
C88   C     C_R   0.590993 0.090993 0.250000 0.793611
C89   C     C_R   0.908991 0.591009 0.750000 0.777368
C90   C     C_R   0.162515 0.300227 0.222078 -0.174604
C91   C     C_R   0.090993 0.409007 0.250000 0.793628
C92   C     C_R   0.591009 0.091009 0.750000 0.777346
C93   C     C_R   0.409007 0.909007 0.250000 0.793611
C94   C     C_R   0.091009 0.408991 0.750000 0.777359
C95   C     C_R   0.909008 0.590992 0.250000 0.793617
C96   C     C_R   0.408991 0.091009 0.250000 0.777368
C97   C     C_R   0.590993 0.909007 0.750000 0.793628
C98   C     C_R   0.908991 0.408991 0.250000 0.777346
C99   C     C_R   0.090993 0.590993 0.750000 0.793611
C100  C     C_R   0.591009 0.908991 0.250000 0.777359
C101  C     C_R   0.702437 0.160015 0.775339 -0.159899
C102  C     C_R   0.409007 0.090992 0.750000 0.793617
C103  C     C_R   0.091009 0.591009 0.250000 0.777346
C104  C     C_R   0.909007 0.409007 0.750000 0.793611
C105  C     C_R   1.000000 0.500000 0.979413 -0.017300
C106  C     C_R   1.000000 0.500000 0.020587 -0.017315
C107  C     C_R   0.500000 0.000000 0.979413 -0.017315
C108  C     C_R   0.500000 0.000000 0.020587 -0.017300
C109  C     C_R   0.500000 0.000000 0.479413 -0.017300
C110  C     C_R   0.500000 1.000000 0.520587 -0.017315
C111  C     C_R   0.000000 0.500000 0.479413 -0.017315
C112  C     C_R   0.198724 0.301276 0.250000 0.161920
C113  C     C_R   0.300157 0.837552 0.222136 -0.174620
C114  C     C_R   1.000000 0.500000 0.520587 -0.017300
C115  C     C_R   0.916892 0.468665 0.896617 0.139816
C116  C     C_R   0.894382 0.491872 0.865253 -0.112117
C117  C     C_R   0.858869 0.468689 0.843948 -0.126996
C118  C     C_R   0.845325 0.422363 0.853789 -0.098172
C119  C     C_R   0.867166 0.399178 0.885031 -0.121593
C120  C     C_R   0.902818 0.422147 0.906371 -0.101386
C121  C     C_R   0.083132 0.468733 0.103383 0.139782
C122  C     C_R   0.105626 0.491959 0.134746 -0.112163
C123  C     C_R   0.141158 0.468804 0.156051 -0.127022
C124  C     C_R   0.160014 0.297562 0.775337 -0.159909
C125  C     C_R   0.154736 0.422488 0.146210 -0.098232
C126  C     C_R   0.132911 0.399285 0.114969 -0.121647
C127  C     C_R   0.097241 0.422225 0.093629 -0.101381
C128  C     C_R   0.468741 0.083136 0.896617 0.139780
C129  C     C_R   0.491970 0.105629 0.865256 -0.112177
C130  C     C_R   0.468822 0.141165 0.843953 -0.127013
C131  C     C_R   0.422507 0.154749 0.853793 -0.098265
C132  C     C_R   0.399299 0.132924 0.885031 -0.121679
C133  C     C_R   0.422234 0.097249 0.906369 -0.101365
C134  C     C_R   0.468666 0.916892 0.103381 0.139817
C135  C     C_R   0.837452 0.699740 0.222048 -0.174604
C136  C     C_R   0.491875 0.894381 0.134745 -0.112122
C137  C     C_R   0.468694 0.858867 0.156050 -0.126998
C138  C     C_R   0.422367 0.845324 0.146210 -0.098164
C139  C     C_R   0.399179 0.867166 0.114969 -0.121593
C140  C     C_R   0.422147 0.902818 0.093629 -0.101385
C141  C     C_R   0.083108 0.531334 0.896618 0.139817
C142  C     C_R   0.105619 0.508125 0.865255 -0.112121
C143  C     C_R   0.141132 0.531306 0.843950 -0.126998
C144  C     C_R   0.154676 0.577633 0.853790 -0.098164
C145  C     C_R   0.132834 0.600821 0.885031 -0.121593
C146  C     C_R   0.297564 0.839985 0.775339 -0.159899
C147  C     C_R   0.097182 0.577853 0.906371 -0.101385
C148  C     C_R   0.916864 0.531259 0.103383 0.139780
C149  C     C_R   0.894371 0.508030 0.134744 -0.112177
C150  C     C_R   0.858835 0.531178 0.156047 -0.127012
C151  C     C_R   0.845250 0.577493 0.146207 -0.098265
C152  C     C_R   0.867076 0.600701 0.114969 -0.121679
C153  C     C_R   0.902751 0.577766 0.093631 -0.101365
C154  C     C_R   0.531267 0.916867 0.896617 0.139782
C155  C     C_R   0.508041 0.894374 0.865254 -0.112164
C156  C     C_R   0.531196 0.858842 0.843949 -0.127022
C157  C     C_R   0.699842 0.162447 0.222136 -0.174624
C158  C     C_R   0.577512 0.845263 0.853790 -0.098232
C159  C     C_R   0.600715 0.867089 0.885031 -0.121647
C160  C     C_R   0.577775 0.902759 0.906371 -0.101381
C161  C     C_R   0.531335 0.083108 0.103383 0.139816
C162  C     C_R   0.508128 0.105618 0.134747 -0.112117
C163  C     C_R   0.531311 0.141131 0.156052 -0.126996
C164  C     C_R   0.577637 0.154675 0.146211 -0.098172
C165  C     C_R   0.600822 0.132834 0.114969 -0.121593
C166  C     C_R   0.577853 0.097182 0.093629 -0.101386
C167  C     C_R   0.416892 0.968665 0.396617 0.139816
C168  C     C_R   0.839985 0.297563 0.224660 -0.159899
C169  C     C_R   0.394381 0.991872 0.365253 -0.112117
C170  C     C_R   0.358868 0.968689 0.343948 -0.126996
C171  C     C_R   0.345325 0.922363 0.353789 -0.098172
C172  C     C_R   0.367166 0.899178 0.385031 -0.121593
C173  C     C_R   0.402818 0.922147 0.406371 -0.101386
C174  C     C_R   0.583132 0.968733 0.603383 0.139783
C175  C     C_R   0.605626 0.991959 0.634746 -0.112163
C176  C     C_R   0.641158 0.968804 0.656051 -0.127022
C177  C     C_R   0.654736 0.922488 0.646210 -0.098232
C178  C     C_R   0.632911 0.899285 0.614969 -0.121647
C179  C     C_R   0.162448 0.699843 0.777864 -0.174620
C180  C     C_R   0.597241 0.922225 0.593629 -0.101381
C181  C     C_R   0.968741 0.583136 0.396617 0.139780
C182  C     C_R   0.991970 0.605629 0.365256 -0.112176
C183  C     C_R   0.968822 0.641165 0.343953 -0.127013
C184  C     C_R   0.922507 0.654749 0.353793 -0.098265
C185  C     C_R   0.899299 0.632924 0.385031 -0.121679
C186  C     C_R   0.922234 0.597249 0.406369 -0.101365
C187  C     C_R   0.968666 0.416892 0.603381 0.139817
C188  C     C_R   0.991875 0.394381 0.634745 -0.112122
C189  C     C_R   0.968694 0.358867 0.656050 -0.126998
C190  C     C_R   0.702438 0.839986 0.224663 -0.159909
C191  C     C_R   0.922367 0.345324 0.646210 -0.098164
C192  C     C_R   0.899179 0.367166 0.614969 -0.121593
C193  C     C_R   0.922147 0.402818 0.593629 -0.101385
C194  C     C_R   0.583108 0.031334 0.396618 0.139817
C195  C     C_R   0.605619 0.008125 0.365255 -0.112121
C196  C     C_R   0.641132 0.031306 0.343950 -0.126998
C197  C     C_R   0.654676 0.077633 0.353790 -0.098164
C198  C     C_R   0.632834 0.100821 0.385031 -0.121593
C199  C     C_R   0.597182 0.077853 0.406371 -0.101385
C200  C     C_R   0.416864 0.031259 0.603383 0.139780
C201  C     C_R   0.300260 0.162547 0.777952 -0.174603
C202  C     C_R   0.394371 0.008030 0.634744 -0.112177
C203  C     C_R   0.358835 0.031178 0.656047 -0.127012
C204  C     C_R   0.345250 0.077493 0.646207 -0.098265
C205  C     C_R   0.367076 0.100701 0.614969 -0.121679
C206  C     C_R   0.402751 0.077766 0.593631 -0.101365
C207  C     C_R   0.031267 0.416867 0.396617 0.139782
C208  C     C_R   0.008041 0.394374 0.365254 -0.112164
C209  C     C_R   0.031196 0.358842 0.343949 -0.127022
C210  C     C_R   0.077512 0.345264 0.353790 -0.098232
C211  C     C_R   0.100715 0.367089 0.385031 -0.121647
C212  C     C_R   0.160015 0.702436 0.224661 -0.159899
C213  C     C_R   0.077775 0.402759 0.406371 -0.101381
C214  C     C_R   0.031335 0.583108 0.603383 0.139816
C215  C     C_R   0.008128 0.605618 0.634747 -0.112117
C216  C     C_R   0.031311 0.641131 0.656052 -0.126996
C217  C     C_R   0.077637 0.654675 0.646211 -0.098172
C218  C     C_R   0.100822 0.632834 0.614969 -0.121593
C219  C     C_R   0.077853 0.597182 0.593629 -0.101386
C220  C     C_R   0.698808 0.198808 0.750000 0.157059
C221  C     C_R   0.837553 0.300158 0.777863 -0.174624
C222  C     C_R   0.297559 0.160011 0.224665 -0.159909
C223  C     C_R   0.699773 0.837485 0.777922 -0.174604
C224  C     C_R   0.339989 0.202441 0.275334 -0.159909
C225  C     C_R   0.662515 0.800227 0.722078 -0.174604
C226  C     C_R   0.202437 0.660015 0.275340 -0.159899
C227  C     C_R   0.800157 0.337552 0.722136 -0.174620
C228  C     C_R   0.660014 0.797562 0.275337 -0.159909
C229  C     C_R   0.337452 0.199740 0.722048 -0.174603
C230  C     C_R   0.797564 0.339985 0.275339 -0.159899
C231  C     C_R   0.301275 0.801276 0.250000 0.161915
C232  C     C_R   0.199842 0.662447 0.722137 -0.174624
C233  C     C_R   0.339985 0.797563 0.724660 -0.159899
C234  C     C_R   0.662448 0.199843 0.277864 -0.174620
C235  C     C_R   0.202438 0.339986 0.724663 -0.159909
C236  C     C_R   0.800260 0.662548 0.277952 -0.174604
C237  C     C_R   0.660014 0.202436 0.724661 -0.159899
C238  C     C_R   0.337552 0.800158 0.277863 -0.174624
C239  C     C_R   0.797559 0.660011 0.724665 -0.159909
C240  C     C_R   0.199773 0.337485 0.277922 -0.174604
C241  C     C_R   0.875171 0.667315 0.775363 -0.190653
C242  C     C_R   0.198808 0.301192 0.750000 0.157061
C243  C     C_R   0.127301 0.335305 0.222086 -0.208471
C244  C     C_R   0.667311 0.124832 0.775368 -0.190648
C245  C     C_R   0.335236 0.872765 0.222144 -0.208488
C246  C     C_R   0.124831 0.332688 0.775366 -0.190653
C247  C     C_R   0.872667 0.664663 0.222057 -0.208470
C248  C     C_R   0.332690 0.875168 0.775368 -0.190642
C249  C     C_R   0.664763 0.127235 0.222145 -0.208486
C250  C     C_R   0.875168 0.332689 0.224632 -0.190648
C251  C     C_R   0.127235 0.664764 0.777856 -0.208488
C252  C     C_R   0.667312 0.875169 0.224634 -0.190652
C253  C     C_R   0.801276 0.698724 0.250000 0.161938
C254  C     C_R   0.335337 0.127333 0.777943 -0.208471
C255  C     C_R   0.124832 0.667310 0.224632 -0.190642
C256  C     C_R   0.872765 0.335237 0.777855 -0.208486
C257  C     C_R   0.332685 0.124829 0.224636 -0.190653
C258  C     C_R   0.664695 0.872699 0.777914 -0.208471
C259  C     C_R   0.375171 0.167315 0.275363 -0.190653
C260  C     C_R   0.627301 0.835305 0.722086 -0.208471
C261  C     C_R   0.167311 0.624832 0.275368 -0.190648
C262  C     C_R   0.835236 0.372765 0.722144 -0.208488
C263  C     C_R   0.624831 0.832688 0.275366 -0.190652
C264  C     C_R   0.301192 0.801192 0.750000 0.157059
C265  C     C_R   0.372667 0.164663 0.722057 -0.208470
C266  C     C_R   0.832690 0.375168 0.275368 -0.190642
C267  C     C_R   0.164763 0.627235 0.722145 -0.208486
C268  C     C_R   0.375168 0.832689 0.724632 -0.190648
C269  C     C_R   0.627235 0.164764 0.277856 -0.208488
C270  C     C_R   0.167312 0.375169 0.724634 -0.190652
C271  C     C_R   0.835337 0.627333 0.277943 -0.208471
C272  C     C_R   0.624832 0.167310 0.724632 -0.190642
C273  C     C_R   0.372765 0.835237 0.277855 -0.208486
C274  C     C_R   0.832685 0.624829 0.724636 -0.190653
C275  C     C_R   0.698724 0.198725 0.250000 0.161914
C276  C     C_R   0.164695 0.372699 0.277914 -0.208471
C277  C     C_R   0.871851 0.628149 0.750000 -0.009991
C278  C     C_R   0.128098 0.371902 0.250000 -0.012220
C279  C     C_R   0.628149 0.128149 0.750000 -0.010006
C280  C     C_R   0.371901 0.871902 0.250000 -0.012273
C281  C     C_R   0.128149 0.371851 0.750000 -0.009990
C282  C     C_R   0.871903 0.628097 0.250000 -0.012181
C283  C     C_R   0.371851 0.871851 0.750000 -0.010006
C284  C     C_R   0.628098 0.128098 0.250000 -0.012274
C285  C     C_R   0.871851 0.371851 0.250000 -0.010006
C286  C     C_R   0.801192 0.301192 0.250000 0.157059
C287  C     C_R   0.128098 0.628098 0.750000 -0.012274
C288  C     C_R   0.628149 0.871851 0.250000 -0.009990
C289  C     C_R   0.371903 0.128097 0.750000 -0.012181
C290  C     C_R   0.128149 0.628149 0.250000 -0.010006
C291  C     C_R   0.871901 0.371902 0.750000 -0.012273
C292  C     C_R   0.371851 0.128149 0.250000 -0.009991
C293  C     C_R   0.628098 0.871902 0.750000 -0.012220
C294  C     C_1   0.765093 0.734907 0.750000 -0.058873
C295  C     C_1   0.234820 0.265180 0.250000 -0.060905
C296  C     C_1   0.734906 0.234906 0.750000 -0.058867
H1    H     H_    0.843037 0.732401 0.795049 0.137759
H2    H     H_    0.161389 0.727803 0.799575 0.137872
H3    H     H_    0.472125 0.095715 0.142595 0.131135
H4    H     H_    0.513381 0.158082 0.180250 0.127223
H5    H     H_    0.595595 0.182062 0.162823 0.140151
H6    H     H_    0.636753 0.143305 0.107453 0.134217
H7    H     H_    0.596504 0.080065 0.069849 0.132633
H8    H     H_    0.404285 0.027875 0.357405 0.131135
H9    H     H_    0.341918 0.986619 0.319750 0.127223
H10   H     H_    0.317938 0.904405 0.337177 0.140151
H11   H     H_    0.356695 0.863247 0.392547 0.134217
H12   H     H_    0.419935 0.903496 0.430150 0.132633
H13   H     H_    0.732396 0.843032 0.204947 0.137760
H14   H     H_    0.595696 0.027955 0.642594 0.131205
H15   H     H_    0.658095 0.986749 0.680247 0.127253
H16   H     H_    0.682137 0.904552 0.662822 0.140139
H17   H     H_    0.643409 0.863361 0.607452 0.134214
H18   H     H_    0.580137 0.903559 0.569850 0.132633
H19   H     H_    0.027966 0.595695 0.357410 0.131211
H20   H     H_    0.986770 0.658102 0.319759 0.127261
H21   H     H_    0.904576 0.682155 0.337183 0.140142
H22   H     H_    0.863377 0.643427 0.392547 0.134212
H23   H     H_    0.903564 0.580146 0.430146 0.132633
H24   H     H_    0.272380 0.161569 0.799734 0.137862
H25   H     H_    0.027879 0.404284 0.642593 0.131138
H26   H     H_    0.986627 0.341917 0.680247 0.127223
H27   H     H_    0.904411 0.317937 0.662822 0.140148
H28   H     H_    0.863247 0.356695 0.607453 0.134215
H29   H     H_    0.903493 0.419936 0.569850 0.132631
H30   H     H_    0.595715 0.972121 0.357407 0.131138
H31   H     H_    0.658083 0.013373 0.319753 0.127223
H32   H     H_    0.682063 0.095589 0.337178 0.140148
H33   H     H_    0.643305 0.136753 0.392547 0.134215
H34   H     H_    0.580064 0.096507 0.430150 0.132631
H35   H     H_    0.156969 0.732392 0.204943 0.137762
H36   H     H_    0.404305 0.972034 0.642590 0.131211
H37   H     H_    0.341898 0.013230 0.680241 0.127261
H38   H     H_    0.317845 0.095424 0.662817 0.140142
H39   H     H_    0.356573 0.136623 0.607453 0.134212
H40   H     H_    0.419854 0.096435 0.569854 0.132633
H41   H     H_    0.972045 0.404304 0.357406 0.131205
H42   H     H_    0.013251 0.341905 0.319752 0.127253
H43   H     H_    0.095447 0.317862 0.337178 0.140139
H44   H     H_    0.136639 0.356591 0.392548 0.134214
H45   H     H_    0.096441 0.419863 0.430150 0.132633
H46   H     H_    0.838611 0.272198 0.799575 0.137872
H47   H     H_    0.972125 0.595715 0.642595 0.131135
H48   H     H_    0.013381 0.658081 0.680249 0.127223
H49   H     H_    0.095594 0.682062 0.662823 0.140151
H50   H     H_    0.136753 0.643305 0.607452 0.134217
H51   H     H_    0.096504 0.580065 0.569849 0.132633
H52   H     H_    0.267599 0.156963 0.204951 0.137759
H53   H     H_    0.727679 0.838490 0.799680 0.137867
H54   H     H_    0.343037 0.232401 0.295049 0.137759
H55   H     H_    0.661510 0.772321 0.700320 0.137867
H56   H     H_    0.232394 0.656970 0.295057 0.137761
H57   H     H_    0.161510 0.272321 0.200320 0.137867
H58   H     H_    0.772197 0.338611 0.700425 0.137872
H59   H     H_    0.656968 0.767604 0.295053 0.137760
H60   H     H_    0.338431 0.227620 0.700266 0.137862
H61   H     H_    0.767608 0.343031 0.295057 0.137762
H62   H     H_    0.227802 0.661389 0.700425 0.137872
H63   H     H_    0.343030 0.767606 0.704943 0.137761
H64   H     H_    0.661389 0.227803 0.299575 0.137872
H65   H     H_    0.232396 0.343032 0.704947 0.137760
H66   H     H_    0.772380 0.661569 0.299734 0.137862
H67   H     H_    0.656969 0.232392 0.704943 0.137762
H68   H     H_    0.732394 0.156970 0.795057 0.137761
H69   H     H_    0.338611 0.772198 0.299575 0.137872
H70   H     H_    0.767599 0.656963 0.704951 0.137759
H71   H     H_    0.227679 0.338490 0.299680 0.137867
H72   H     H_    0.904904 0.670825 0.795226 0.163246
H73   H     H_    0.099662 0.333921 0.200138 0.166124
H74   H     H_    0.670818 0.095103 0.795234 0.163253
H75   H     H_    0.333797 0.900458 0.200242 0.166132
H76   H     H_    0.095101 0.329180 0.795230 0.163247
H77   H     H_    0.900280 0.666019 0.200085 0.166120
H78   H     H_    0.329183 0.904897 0.795234 0.163258
H79   H     H_    0.272197 0.838611 0.200425 0.137872
H80   H     H_    0.666202 0.099542 0.200242 0.166134
H81   H     H_    0.904896 0.329182 0.204766 0.163254
H82   H     H_    0.099542 0.666203 0.799758 0.166131
H83   H     H_    0.670820 0.904899 0.204770 0.163247
H84   H     H_    0.333981 0.099720 0.799915 0.166120
H85   H     H_    0.095103 0.670817 0.204766 0.163258
H86   H     H_    0.900458 0.333798 0.799758 0.166134
H87   H     H_    0.329175 0.095096 0.204774 0.163246
H88   H     H_    0.666079 0.900338 0.799862 0.166124
H89   H     H_    0.404904 0.170825 0.295226 0.163246
H90   H     H_    0.156968 0.267604 0.795053 0.137760
H91   H     H_    0.599662 0.833921 0.700138 0.166124
H92   H     H_    0.170818 0.595104 0.295234 0.163253
H93   H     H_    0.833797 0.400458 0.700242 0.166132
H94   H     H_    0.595101 0.829180 0.295230 0.163247
H95   H     H_    0.400280 0.166019 0.700085 0.166120
H96   H     H_    0.829183 0.404897 0.295234 0.163258
H97   H     H_    0.166201 0.599542 0.700242 0.166134
H98   H     H_    0.404896 0.829182 0.704766 0.163254
H99   H     H_    0.599542 0.166203 0.299758 0.166132
H100  H     H_    0.170820 0.404899 0.704770 0.163247
H101  H     H_    0.838431 0.727620 0.200266 0.137862
H102  H     H_    0.833981 0.599720 0.299915 0.166120
H103  H     H_    0.595103 0.170817 0.704766 0.163258
H104  H     H_    0.400458 0.833798 0.299758 0.166134
H105  H     H_    0.829175 0.595096 0.704774 0.163246
H106  H     H_    0.166079 0.400338 0.299862 0.166124
H107  H     H_    0.904285 0.527875 0.857405 0.131135
H108  H     H_    0.841918 0.486619 0.819750 0.127223
H109  H     H_    0.817938 0.404405 0.837177 0.140151
H110  H     H_    0.856695 0.363247 0.892547 0.134217
H111  H     H_    0.919935 0.403496 0.930150 0.132633
H112  H     H_    0.267608 0.843031 0.795057 0.137762
H113  H     H_    0.095696 0.527955 0.142594 0.131205
H114  H     H_    0.158095 0.486749 0.180247 0.127253
H115  H     H_    0.182137 0.404552 0.162822 0.140139
H116  H     H_    0.143409 0.363361 0.107452 0.134214
H117  H     H_    0.080137 0.403559 0.069850 0.132633
H118  H     H_    0.527966 0.095695 0.857410 0.131211
H119  H     H_    0.486770 0.158102 0.819758 0.127261
H120  H     H_    0.404576 0.182155 0.837183 0.140142
H121  H     H_    0.363377 0.143427 0.892547 0.134212
H122  H     H_    0.403564 0.080146 0.930146 0.132633
H123  H     H_    0.727802 0.161389 0.200425 0.137872
H124  H     H_    0.527879 0.904284 0.142593 0.131138
H125  H     H_    0.486627 0.841917 0.180247 0.127223
H126  H     H_    0.404411 0.817937 0.162822 0.140148
H127  H     H_    0.363247 0.856695 0.107453 0.134215
H128  H     H_    0.403493 0.919936 0.069850 0.132631
H129  H     H_    0.095715 0.472121 0.857407 0.131138
H130  H     H_    0.158083 0.513373 0.819753 0.127223
H131  H     H_    0.182063 0.595589 0.837178 0.140148
H132  H     H_    0.143305 0.636753 0.892547 0.134215
H133  H     H_    0.080064 0.596507 0.930150 0.132631
H134  H     H_    0.843030 0.267606 0.204943 0.137761
H135  H     H_    0.904305 0.472034 0.142590 0.131211
H136  H     H_    0.841898 0.513230 0.180241 0.127261
H137  H     H_    0.817845 0.595424 0.162817 0.140142
H138  H     H_    0.856573 0.636623 0.107453 0.134212
H139  H     H_    0.919854 0.596435 0.069854 0.132633
H140  H     H_    0.472045 0.904304 0.857406 0.131205
H141  H     H_    0.513251 0.841905 0.819752 0.127253
H142  H     H_    0.595448 0.817862 0.837178 0.140139
H143  H     H_    0.636639 0.856591 0.892548 0.134214
H144  H     H_    0.596441 0.919863 0.930149 0.132633
I1    I     I_    0.152156 0.474021 0.953116 -0.312717
I2    I     I_    0.347868 0.973883 0.546884 -0.312704
I3    I     I_    0.973888 0.347868 0.453110 -0.312705
I4    I     I_    0.974020 0.652156 0.546887 -0.312717
I5    I     I_    0.347844 0.025980 0.453113 -0.312716
I6    I     I_    0.652132 0.026112 0.546890 -0.312705
I7    I     I_    0.026117 0.652132 0.453116 -0.312704
I8    I     I_    0.025979 0.347844 0.546884 -0.312717
I9    I     I_    0.847868 0.473883 0.046884 -0.312704
I10   I     I_    0.473888 0.847868 0.953110 -0.312705
I11   I     I_    0.474020 0.152156 0.046886 -0.312717
I12   I     I_    0.847844 0.525980 0.953113 -0.312717
I13   I     I_    0.152132 0.526112 0.046890 -0.312705
I14   I     I_    0.526117 0.152132 0.953116 -0.312704
I15   I     I_    0.525979 0.847844 0.046884 -0.312717
I16   I     I_    0.652156 0.974021 0.453116 -0.312717
O1    O     O_3   0.500000 1.000000 0.750000 -0.470861
O2    O     O_R   0.539300 1.000000 0.162640 -0.637830
O3    O     O_R   0.000000 0.539300 0.837360 -0.637831
O4    O     O_R   0.000000 0.460700 0.162640 -0.637852
O5    O     O_R   0.039300 0.500000 0.337360 -0.637852
O6    O     O_R   0.960700 0.500000 0.662640 -0.637831
O7    O     O_R   0.500000 0.960700 0.337360 -0.637830
O8    O     O_R   0.500000 0.039300 0.662640 -0.637850
O9    O     O_R   0.960700 0.500000 0.337360 -0.637850
O10   O     O_R   0.039300 0.500000 0.662640 -0.637830
O11   O     O_R   0.500000 0.039300 0.337360 -0.637831
O12   O     O_3   0.500000 1.000000 0.250000 -0.470860
O13   O     O_R   0.500000 0.960700 0.662640 -0.637852
O14   O     O_R   0.405600 0.944810 0.772850 -0.646937
O15   O     O_R   0.594400 0.055190 0.227150 -0.640715
O16   O     O_R   0.944810 0.594400 0.772850 -0.646943
O17   O     O_R   0.055190 0.405600 0.227150 -0.640712
O18   O     O_R   0.594400 0.055190 0.772850 -0.646944
O19   O     O_R   0.405600 0.944810 0.227150 -0.640718
O20   O     O_R   0.055190 0.405600 0.772850 -0.646943
O21   O     O_R   0.944810 0.594400 0.227150 -0.640707
O22   O     O_R   0.405600 0.055190 0.227150 -0.646943
O23   O     O_3   0.000000 0.500000 0.750000 -0.470860
O24   O     O_R   0.594400 0.944810 0.772850 -0.640712
O25   O     O_R   0.944810 0.405600 0.227150 -0.646944
O26   O     O_R   0.055190 0.594400 0.772850 -0.640718
O27   O     O_R   0.594400 0.944810 0.227150 -0.646942
O28   O     O_R   0.405600 0.055190 0.772850 -0.640707
O29   O     O_R   0.055190 0.594400 0.227150 -0.646937
O30   O     O_R   0.944810 0.405600 0.772850 -0.640715
O31   O     O_R   0.905600 0.444810 0.272850 -0.646937
O32   O     O_R   0.094400 0.555190 0.727150 -0.640715
O33   O     O_R   0.444810 0.094400 0.272850 -0.646943
O34   O     O_3   0.000000 0.500000 0.250000 -0.470861
O35   O     O_R   0.555190 0.905600 0.727150 -0.640712
O36   O     O_R   0.094400 0.555190 0.272850 -0.646944
O37   O     O_R   0.905600 0.444810 0.727150 -0.640718
O38   O     O_R   0.555190 0.905600 0.272850 -0.646943
O39   O     O_R   0.444810 0.094400 0.727150 -0.640707
O40   O     O_R   0.905600 0.555190 0.727150 -0.646943
O41   O     O_R   0.094400 0.444810 0.272850 -0.640712
O42   O     O_R   0.444810 0.905600 0.727150 -0.646944
O43   O     O_R   0.555190 0.094400 0.272850 -0.640718
O44   O     O_R   0.094400 0.444810 0.727150 -0.646942
O45   O     O_R   0.539300 1.000000 0.837360 -0.637852
O46   O     O_R   0.905600 0.555190 0.272850 -0.640707
O47   O     O_R   0.555190 0.094400 0.727150 -0.646937
O48   O     O_R   0.444810 0.905600 0.272850 -0.640715
O49   O     O_R   0.460700 1.000000 0.162640 -0.637831
O50   O     O_R   0.000000 0.460700 0.837360 -0.637830
O51   O     O_R   0.000000 0.539300 0.162640 -0.637850
O52   O     O_R   0.460700 1.000000 0.837360 -0.637850
Zn1   Zn    Zn3+2 0.500000 0.943960 0.717190 0.968602
Zn2   Zn    Zn3+2 0.000000 0.556040 0.782810 0.968596
Zn3   Zn    Zn3+2 0.443960 1.000000 0.217190 0.968596
Zn4   Zn    Zn3+2 0.556040 1.000000 0.782810 0.968602
Zn5   Zn    Zn3+2 1.000000 0.556040 0.217190 0.968607
Zn6   Zn    Zn3+2 0.000000 0.443960 0.782810 0.968595
Zn7   Zn    Zn3+2 0.556040 1.000000 0.217190 0.968595
Zn8   Zn    Zn3+2 0.443960 1.000000 0.782810 0.968607
Zn9   Zn    Zn3+2 0.500000 0.056040 0.282810 0.968596
Zn10  Zn    Zn3+2 0.943960 0.500000 0.717190 0.968596
Zn11  Zn    Zn3+2 0.056040 0.500000 0.282810 0.968602
Zn12  Zn    Zn3+2 0.500000 0.056040 0.717190 0.968607
Zn13  Zn    Zn3+2 0.500000 0.943960 0.282810 0.968595
Zn14  Zn    Zn3+2 0.056040 0.500000 0.717190 0.968595
Zn15  Zn    Zn3+2 0.943960 0.500000 0.282810 0.968607
Zn16  Zn    Zn3+2 1.000000 0.443960 0.217190 0.968602

loop_
_geom_bond_atom_site_label_1
_geom_bond_atom_site_label_2
_ccdc_geom_bond_type
C92   C279  S    
C126  C127  A    
O34   Zn5   S    
C177  H16   S    
C274  H105  S    
C94   O20   A    
C42   C161  S    
O22   Zn3   S    
C92   O18   A    
O6    Zn10  S    
O52   Zn8   S    
C1    C294  S    
C229  H60   S    
C50   C59   A    
C169  H8    S    
C255  C290  A    
C122  H113  S    
C36   C66   A    
C30   I5    S    
C170  H9    S    
C143  C144  A    
C18   C21   A    
C88   C284  S    
C243  C278  A    
C65   C105  A    
C50   C72   A    
C182  C183  A    
C36   C53   A    
C17   C61   A    
C255  H85   S    
C38   C55   A    
C39   C141  S    
C143  H130  S    
C19   C63   A    
C147  H133  S    
C236  C253  A    
C61   C105  A    
O47   Zn12  S    
O3    Zn2   S    
C8    C286  S    
C247  H77   S    
C38   C69   A    
C83   O5    A    
C187  C193  A    
C265  C289  A    
C234  C275  A    
C251  C287  A    
C252  C288  A    
C87   O14   A    
C260  H91   S    
C94   C281  S    
C39   C61   A    
O45   Zn4   S    
C206  H40   S    
C227  H58   S    
C218  H50   S    
C202  C203  A    
C191  C192  A    
C201  H24   S    
C135  H101  S    
C272  H103  S    
C24   C229  A    
C144  C145  A    
C271  C282  A    
O48   Zn13  S    
C73   C114  A    
C225  H55   S    
C157  C249  A    
C53   C82   S    
C140  H128  S    
C91   C278  S    
C215  C216  A    
C153  H139  S    
C88   O15   A    
C42   C55   A    
C46   C227  A    
C175  C176  A    
C81   O50   A    
C261  C290  A    
C137  H125  S    
C216  C217  A    
C23   I14   S    
C154  C155  A    
C223  H53   S    
C19   I10   S    
C33   I8    S    
C28   C33   A    
C182  H19   S    
C45   C76   A    
C158  C159  A    
C1    C79   A    
C146  H112  S    
C25   C69   A    
C148  C153  A    
C41   C63   A    
C42   C64   A    
C27   C71   A    
C94   O44   A    
C45   C59   A    
C20   I11   S    
C173  H12   S    
C113  H79   S    
C112  C295  S    
C80   O2    A    
C96   C292  S    
C48   C70   A    
C196  C197  A    
C226  H56   S    
C197  H32   S    
C139  C140  A    
C62   C106  A    
C157  H123  S    
C90   H57   S    
C98   O25   A    
C156  C158  A    
C130  C131  A    
C217  C218  A    
O1    Zn8   S    
C18   I9    S    
C55   C80   S    
C266  C285  A    
C113  C245  A    
C92   O47   A    
C245  C280  A    
C79   C241  A    
C267  H97   S    
C104  O37   A    
C236  H66   S    
C239  H70   S    
C141  C147  A    
C40   C53   A    
C195  C196  A    
O26   Zn2   S    
C200  C202  A    
C49   C71   A    
C155  C156  A    
C87   O42   A    
C6    C264  S    
O2    Zn7   S    
C178  H17   S    
C227  C262  A    
C233  C268  A    
C27   I2    S    
C258  H88   S    
C103  O29   A    
C93   O48   A    
C104  O30   A    
O23   Zn2   S    
C220  C237  A    
C128  C129  A    
C6    C9    T    
C222  H52   S    
C185  C186  A    
C238  H69   S    
C7    C8    T    
C167  C169  A    
C158  H142  S    
C142  H129  S    
C269  H99   S    
C266  H96   S    
C247  C282  A    
C96   O22   A    
C30   C74   A    
C170  C171  A    
C201  C254  A    
C184  C185  A    
C246  C281  A    
C5    C253  S    
C189  C191  A    
C174  C175  A    
O23   Zn14  S    
C21   C65   A    
C249  H80   S    
C112  C240  A    
C107  C108  A    
C238  C273  A    
C97   O24   A    
O27   Zn7   S    
C240  H71   S    
C38   C134  S    
C86   O13   A    
C267  C287  A    
C124  C246  A    
C202  H36   S    
C192  H28   S    
C4    C242  S    
C204  H38   S    
C64   C108  A    
C241  H72   S    
C131  H120  S    
O12   Zn9   S    
O11   Zn9   S    
C273  C280  A    
C268  C283  A    
C98   O31   A    
C135  C247  A    
C3    C231  S    
C229  C265  A    
C18   C62   A    
O5    Zn11  S    
C34   C115  S    
C244  C279  A    
C135  C253  A    
C13   C190  A    
C125  H115  S    
C16   C294  T    
C126  H116  S    
C228  H59   S    
C150  H136  S    
C35   C212  A    
C103  O36   A    
C58   C86   S    
C271  H102  S    
C78   O52   A    
C220  C296  S    
O34   Zn16  S    
C144  H131  S    
C20   C23   A    
C89   C277  S    
C209  C210  A    
C81   O3    A    
C183  H20   S    
C12   C35   S    
C226  C261  A    
C102  C289  S    
C245  H75   S    
C51   C214  S    
C168  C286  A    
C224  C259  A    
C95   O46   A    
C276  H106  S    
C47   C187  S    
C174  C180  A    
C78   O45   A    
O33   Zn9   S    
C129  C130  A    
C230  C266  A    
O9    Zn15  S    
C132  H121  S    
C75   C110  A    
O7    Zn13  S    
C221  H46   S    
O38   Zn13  S    
C257  H87   S    
O40   Zn10  S    
C136  C137  A    
C32   C76   A    
C230  H61   S    
C24   C201  A    
O28   Zn8   S    
C43   C167  S    
C272  C279  A    
C168  C250  A    
C100  C288  S    
C56   C85   S    
C211  H44   S    
C198  H33   S    
C36   C121  S    
C117  C118  A    
C203  H37   S    
O12   Zn7   S    
C33   C77   A    
C259  C292  A    
C76   C111  A    
C37   C67   A    
C209  H42   S    
C237  C272  A    
C197  C198  A    
C221  C256  A    
C222  C257  A    
C82   O51   A    
C152  C153  A    
C251  H82   S    
O10   Zn14  S    
C28   I3    S    
O18   Zn4   S    
C150  C151  A    
C51   C60   A    
C2    C9    S    
C63   C107  A    
C256  C291  A    
C162  H3    S    
O29   Zn5   S    
C130  H119  S    
C149  H135  S    
C199  H34   S    
C171  H10   S    
C25   I15   S    
C213  H45   S    
C274  C277  A    
O13   Zn1   S    
O1    Zn12  S    
C203  C204  A    
C195  H30   S    
C79   H1    S    
C86   O8    A    
C161  C162  A    
C45   C181  S    
C14   C46   S    
C181  C182  A    
C1    C239  A    
C139  H127  S    
O19   Zn3   S    
C231  C238  A    
C97   C293  S    
C164  C165  A    
C249  C284  A    
C59   C83   S    
C121  C127  A    
C29   C32   A    
C80   O49   A    
C123  C125  A    
C71   C110  A    
C146  C248  A    
C155  H140  S    
C118  H109  S    
O15   Zn7   S    
C101  C244  A    
C165  H6    S    
C261  H92   S    
O30   Zn6   S    
C44   C58   A    
C208  C209  A    
C176  H15   S    
O16   Zn2   S    
C151  C152  A    
C146  C264  A    
C98   C285  S    
C167  C173  A    
C37   C128  S    
C89   O16   A    
C104  C291  S    
C194  C195  A    
C72   C111  A    
C82   O4    A    
O14   Zn8   S    
C28   C72   A    
C74   C109  A    
C145  C147  A    
C246  H76   S    
C113  C231  A    
C57   C222  A    
O4    Zn16  S    
C152  H138  S    
C40   C148  S    
C14   C296  T    
C207  C208  A    
C84   O6    A    
C68   C225  A    
C159  H143  S    
C189  H26   S    
C160  H144  S    
C236  C271  A    
C179  C251  A    
C31   C75   A    
C159  C160  A    
C181  C186  A    
O17   Zn16  S    
C4    C11   T    
C102  O39   A    
C117  H108  S    
C237  H67   S    
O34   Zn11  S    
C270  H100  S    
O12   Zn13  S    
O49   Zn3   S    
C224  H54   S    
C273  H104  S    
C125  C126  A    
C26   C70   A    
C191  H27   S    
O39   Zn12  S    
C131  C132  A    
C97   O35   A    
O24   Zn4   S    
C234  C269  A    
C162  C163  A    
C100  O27   A    
C127  H117  S    
C263  C288  A    
C48   C194  S    
C259  H89   S    
C91   O41   A    
C225  C260  A    
C44   C174  S    
C157  C275  A    
O23   Zn6   S    
C178  C180  A    
C119  C120  A    
C100  O38   A    
C99   C287  S    
O1    Zn4   S    
C26   I16   S    
C105  C106  A    
C34   C52   A    
C17   C22   A    
C232  C267  A    
O12   Zn3   S    
C164  H5    S    
C149  C150  A    
O51   Zn5   S    
C163  H4    S    
C101  C220  A    
C166  H7    S    
C119  H110  S    
C175  H14   S    
C85   O11   A    
C172  H11   S    
C250  C285  A    
O32   Zn14  S    
C111  C114  A    
O44   Zn14  S    
C87   C283  S    
C138  C139  A    
O36   Zn11  S    
C177  C178  A    
C215  H47   S    
C142  C143  A    
C128  C133  A    
O50   Zn6   S    
C248  C283  A    
C115  C116  A    
C32   I7    S    
C208  H41   S    
C54   C78   S    
C57   C224  A    
C91   O17   A    
C171  C172  A    
C165  C166  A    
O31   Zn15  S    
C35   C226  A    
C169  C170  A    
C163  C164  A    
C258  C293  A    
C90   C112  A    
C183  C184  A    
C13   C228  A    
C102  O28   A    
O34   Zn15  S    
C124  H90   S    
C205  C206  A    
C262  C291  A    
C235  C270  A    
C15   C295  T    
C83   O9    A    
C46   C221  A    
C248  H78   S    
C196  H31   S    
C193  H29   S    
C233  H63   S    
C262  H93   S    
C7    C275  S    
C214  C219  A    
C134  C140  A    
C29   C73   A    
C23   C67   A    
C11   C24   S    
C207  C213  A    
C40   C62   A    
C116  C117  A    
C85   O7    A    
C254  H84   S    
C210  H43   S    
C136  H124  S    
C118  C119  A    
C22   C66   A    
C93   C280  S    
C3    C12   T    
C47   C60   A    
C184  H21   S    
C232  H62   S    
C132  C133  A    
C120  H111  S    
C116  H107  S    
C269  C284  A    
C198  C199  A    
C16   C68   S    
C254  C289  A    
O25   Zn16  S    
C161  C166  A    
C29   I4    S    
C93   O19   A    
C50   C207  S    
C43   C74   A    
C39   C52   A    
C185  H22   S    
C90   C243  A    
C27   C30   A    
C15   C57   S    
C52   C81   S    
C66   C106  A    
O21   Zn5   S    
C34   C65   A    
C69   C108  A    
C21   I12   S    
C219  H51   S    
C99   O26   A    
C241  C277  A    
C148  C149  A    
O35   Zn1   S    
C263  H94   S    
C99   O32   A    
C214  C215  A    
C103  C290  S    
C134  C136  A    
C49   C58   A    
C240  C276  A    
C188  C189  A    
C123  H114  S    
C190  H13   S    
C20   C64   A    
C44   C75   A    
O20   Zn6   S    
C235  C242  A    
C154  C160  A    
C70   C109  A    
C22   I13   S    
C194  C199  A    
C156  H141  S    
C95   C282  S    
C133  H122  S    
C230  C286  A    
C88   O43   A    
C190  C252  A    
C121  C122  A    
C212  C255  A    
C204  C205  A    
C168  H134  S    
C31   I6    S    
C95   O21   A    
C233  C264  A    
C37   C54   A    
C265  H95   S    
C212  H35   S    
C176  C177  A    
C211  C213  A    
C276  C278  A    
C210  C211  A    
C252  H83   S    
C205  H39   S    
C84   O10   A    
C151  H137  S    
C68   C223  A    
C2    C179  A    
C47   C77   A    
C124  C242  A    
O46   Zn15  S    
C172  C173  A    
C41   C154  S    
C48   C56   A    
C200  C206  A    
C216  H48   S    
O37   Zn10  S    
C243  H73   S    
C179  H2    S    
C51   C73   A    
C17   I1    S    
C10   C13   S    
C223  C258  A    
C256  H86   S    
C96   O33   A    
C228  C263  A    
C2    C232  A    
C137  C138  A    
O8    Zn12  S    
C138  H126  S    
C192  C193  A    
C101  H68   S    
C235  H65   S    
C145  H132  S    
C5    C10   T    
C141  C142  A    
C250  H81   S    
C60   C84   S    
C89   O40   A    
C67   C107  A    
C218  C219  A    
C180  H18   S    
O1    Zn1   S    
C129  H118  S    
C234  H64   S    
C188  H25   S    
C268  H98   S    
C270  C281  A    
C19   C25   A    
C244  H74   S    
C41   C54   A    
C217  H49   S    
C43   C56   A    
C26   C31   A    
C260  C293  A    
C187  C188  A    
C115  C120  A    
O41   Zn11  S    
C239  C274  A    
C109  C110  A    
C186  H23   S    
O42   Zn1   S    
O43   Zn9   S    
C122  C123  A    
O23   Zn10  S    
C77   C114  A    
C257  C292  A    
C49   C200  S    
