data_mof_unit_33892.cif
_audit_creation_date              2012-12-10T18:46:15-0500
_audit_creation_method            fapswitch 2.2
_symmetry_space_group_name_H-M    P1
_symmetry_Int_Tables_number       1
_space_group_crystal_system       triclinic
_cell_length_a                    9.881308
_cell_length_b                    10.652602
_cell_length_c                    13.064854
_cell_angle_alpha                 89.914061
_cell_angle_beta                  70.416581
_cell_angle_gamma                 89.440839
_cell_volume                      1295.61322309

loop_
_atom_site_label
_atom_site_type_symbol
_atom_type_description
_atom_site_fract_x
_atom_site_fract_y
_atom_site_fract_z
_atom_type_partial_charge
C1    C     C_R   0.500003 0.739554 0.498600 0.904065
C2    C     C_R   0.417060 0.526652 0.990436 0.038732
C3    C     C_R   0.444395 0.555351 0.880996 0.053524
C4    C     C_R   0.528609 0.550272 0.033633 0.105156
C5    C     C_R   0.644627 0.631517 0.979056 0.001471
C6    C     C_R   0.640094 0.693161 0.884004 -0.104471
C7    C     C_R   0.546844 0.648110 0.832515 -0.188717
C8    C     C_R   0.532135 0.486914 0.125991 -0.191681
C9    C     C_R   0.741845 0.598807 0.126126 -0.035713
C10   C     C_R   0.367250 0.492822 0.823416 -0.128103
C11   C     C_R   0.529812 0.932668 0.579949 -0.114272
C12   C     C_R   0.420126 0.498595 0.704500 0.894982
C13   C     C_R   0.528227 0.061910 0.584384 -0.021655
C14   C     C_R   0.501501 0.127839 0.499481 -0.170578
C15   C     C_R   0.472454 0.067139 0.413252 -0.068447
C16   C     C_R   0.467978 0.936674 0.413132 -0.087369
C17   C     C_R   0.499630 0.871958 0.496182 -0.141625
C18   C     C_R   0.946110 0.398741 0.462396 0.012126
C19   C     C_R   0.089538 0.398697 0.462658 -0.022378
C20   C     C_R   0.050560 0.599831 0.541751 -0.014443
C21   C     C_R   0.908523 0.600197 0.539048 -0.096527
C22   C     C_R   0.499939 0.260511 0.501324 0.905051
C23   C     C_R   0.579431 0.501083 0.295480 0.975261
C24   C     C_R   0.759363 0.645507 0.021958 -0.028486
C25   C     C_R   0.625472 0.522642 0.178877 -0.051582
C26   C     C_R   0.248006 0.416820 0.879605 -0.118848
C27   C     C_R   0.199572 0.414013 0.994065 -0.100646
C28   C     C_R   0.282118 0.472503 0.050289 -0.091052
H1    H     H_    0.818619 0.621224 0.166085 0.213423
H2    H     H_    0.906875 0.317816 0.431452 0.173103
H3    H     H_    0.157895 0.317776 0.432047 0.197880
H4    H     H_    0.837559 0.679234 0.571346 0.197622
H5    H     H_    0.457501 0.412795 0.161902 0.158059
H6    H     H_    0.549115 0.690938 0.756785 0.165631
H7    H     H_    0.550687 0.878215 0.643350 0.189692
N1    N     N_R   0.142790 0.500030 0.500030 -0.141965
N2    N     N_R   0.857180 0.499940 0.500010 -0.107670
O1    O     O_R   0.385370 0.683250 0.500010 -0.606314
O2    O     O_R   0.614700 0.683220 0.500010 -0.618030
O3    O     O_R   0.328400 0.499990 0.653620 -0.550588
O4    O     O_R   0.557730 0.499960 0.653620 -0.638155
O5    O     O_R   0.385300 0.316780 0.499990 -0.595838
O6    O     O_R   0.614630 0.316750 0.499990 -0.636940
O7    O     O_R   0.442270 0.500040 0.346380 -0.610400
O8    O     O_R   0.671600 0.500010 0.346380 -0.585297
Zn1   Zn    Zn3+2 0.346870 0.500020 0.500000 1.026709
Zn2   Zn    Zn3+2 0.653130 0.499980 0.500000 0.994252
C29   C     C_2   0.549750 0.125866 0.679222 0.505403
H8    H     H_    0.538354 0.226786 0.689104 0.074912
O9    O     O_2   0.579074 0.065990 0.748908 -0.534461
C30   C     C_2   0.459650 0.139674 0.319394 0.915187
O10   O     O_2   0.560538 0.202877 0.264410 -0.645093
O11   O     O_R   0.332410 0.136872 0.295072 -0.734736
H9    H     H_    0.337597 0.189664 0.229271 0.363015
C31   C     C_2   0.441901 0.868399 0.322726 0.953948
O12   O     O_2   0.535503 0.800026 0.263703 -0.639691
O13   O     O_R   0.310585 0.882530 0.305406 -0.702869
H10   H     H_    0.308258 0.835743 0.238586 0.387528
C32   C     C_2   0.092053 0.706563 0.595535 0.957554
O14   O     O_2   0.137933 0.688440 0.670279 -0.628754
O15   O     O_R   0.071713 0.828975 0.564453 -0.744148
H11   H     H_    0.103092 0.894588 0.607777 0.361699
C33   C     C_2   0.718334 0.810992 0.842413 0.926958
O16   O     O_2   0.763611 0.832040 0.744821 -0.623531
O17   O     O_R   0.735266 0.900429 0.915340 -0.742008
H12   H     H_    0.789191 0.977133 0.877345 0.373354
C34   C     C_2   0.902277 0.695845 0.957409 0.465579
H13   H     H_    0.935493 0.699188 0.869637 0.079177
O18   O     O_2   0.986703 0.730707 0.001393 -0.513625
C35   C     C_2   0.169861 0.342831 0.820937 0.517372
H14   H     H_    0.053300 0.344329 0.848742 0.060463
O19   O     O_2   0.234672 0.275099 0.744636 -0.579402
C36   C     C_2   0.220094 0.489884 0.169669 0.937801
O20   O     O_2   0.165705 0.401482 0.228063 -0.644332
O21   O     O_R   0.227606 0.607173 0.215003 -0.770723
H15   H     H_    0.182058 0.607986 0.296941 0.354495
C37   C     C_2   0.065850 0.345382 0.053989 0.927781
O22   O     O_2   0.966775 0.399782 0.122110 -0.612923
O23   O     O_R   0.053691 0.218412 0.031869 -0.759477
H16   H     H_    0.957825 0.182243 0.077364 0.374594

loop_
_geom_bond_atom_site_label_1
_geom_bond_atom_site_label_2
_ccdc_geom_bond_type
C31   O12   D    
C33   O17   S    
C23   O8    A    
C36   O20   D    
C4    C8    A    
C19   H3    S    
C9    C25   A    
C37   O22   D    
O3    Zn1   S    
C26   C27   A    
C18   N2    A    
C3    C7    A    
C19   N1    A    
C5    C6    A    
C15   C16   A    
C18   C19   A    
O5    Zn1   S    
O8    Zn2   S    
C24   C34   S    
C16   C17   A    
N1    Zn1   S    
C35   H14   S    
C18   H2    S    
C15   C30   S    
N2    Zn2   S    
C9    H1    S    
C10   C26   A    
C29   O9    D    
C32   O14   D    
C13   C14   A    
C8    C25   A    
C36   O21   S    
C28   C36   S    
O7    Zn1   S    
C37   O23   S    
C21   H4    S    
C32   O15   S    
C34   H13   S    
O11   H9    S    
C23   O7    A    
O23   H16   S    
C30   O11   S    
C6    C33   S    
C12   O3    A    
C2    C4    A    
O21   H15   S    
C12   O4    A    
C22   O6    A    
O4    Zn2   S    
C20   C32   S    
C10   C12   S    
C1    O1    A    
C29   H8    S    
C31   O13   S    
C26   C35   S    
C7    H6    S    
O2    Zn2   S    
C11   C17   A    
C4    C5    A    
C27   C37   S    
C13   C29   S    
C2    C28   A    
C9    C24   A    
C6    C7    A    
C1    C17   S    
C14   C22   S    
C11   H7    S    
C2    C3    A    
C16   C31   S    
C30   O10   D    
C3    C10   A    
C11   C13   A    
O13   H10   S    
C22   O5    A    
C5    C24   A    
C8    H5    S    
C23   C25   S    
O15   H11   S    
O1    Zn1   S    
C1    O2    A    
C33   O16   D    
C20   N1    A    
C21   N2    A    
C20   C21   A    
O17   H12   S    
C27   C28   A    
C14   C15   A    
C35   O19   D    
C34   O18   D    
O6    Zn2   S    
