data_mof_unit_23029.cif
_audit_creation_date              2012-12-10T16:39:37-0500
_audit_creation_method            fapswitch 2.2
_symmetry_space_group_name_H-M    P1
_symmetry_Int_Tables_number       1
_space_group_crystal_system       triclinic
_cell_length_a                    16.624767
_cell_length_b                    16.853579
_cell_length_c                    17.033393
_cell_angle_alpha                 66.950787
_cell_angle_beta                  65.929584
_cell_angle_gamma                 65.739002
_cell_volume                      3826.23688018

loop_
_atom_site_label
_atom_site_type_symbol
_atom_type_description
_atom_site_fract_x
_atom_site_fract_y
_atom_site_fract_z
_atom_type_partial_charge
C1    C     C_R   0.334020 0.937235 0.454784 0.037978
C2    C     C_R   0.330506 0.462259 0.936435 0.034484
C3    C     C_R   0.547132 0.412901 0.987101 0.037923
C4    C     C_R   0.999875 0.459136 0.589349 0.032635
C5    C     C_R   0.000125 0.540864 0.410651 0.032635
C6    C     C_R   0.990052 0.691645 0.563168 0.015345
C7    C     C_R   0.009948 0.308355 0.436832 0.015345
C8    C     C_R   0.452442 0.989219 0.453944 -0.035810
C9    C     C_R   0.547560 0.010779 0.546056 -0.035810
C10   C     C_R   0.005515 0.449286 0.448487 -0.041831
C11   C     C_R   0.994485 0.550714 0.551513 -0.041831
C12   C     C_R   0.461003 0.459610 0.970972 -0.040858
C13   C     C_R   0.538997 0.540390 0.029029 -0.040858
C14   C     C_R   0.980488 0.175488 0.431533 0.942363
C15   C     C_R   0.665980 0.062764 0.545216 0.037978
C16   C     C_R   0.019512 0.824512 0.568466 0.942362
C17   C     C_R   0.179889 0.438200 0.961110 0.939559
C18   C     C_R   0.820111 0.561800 0.038890 0.939559
C19   C     C_R   0.428408 0.984996 0.175038 0.951743
C20   C     C_R   0.571592 0.015003 0.824962 0.951742
C21   C     C_R   0.561129 0.820507 0.039394 0.951473
C22   C     C_R   0.438871 0.179492 0.960606 0.951474
C23   C     C_R   0.021267 0.567943 0.823896 0.940305
C24   C     C_R   0.978733 0.432057 0.176104 0.940306
C25   C     C_R   0.820148 0.039396 0.561919 0.942880
C26   C     C_R   0.004695 0.440709 0.309203 0.016819
C27   C     C_R   0.179852 0.960604 0.438080 0.942879
C28   C     C_R   0.405590 0.978004 0.407602 0.024200
C29   C     C_R   0.594411 0.021995 0.592398 0.024200
C30   C     C_R   0.005090 0.399914 0.398639 0.026063
C31   C     C_R   0.994910 0.600086 0.601361 0.026063
C32   C     C_R   0.418876 0.416573 0.948459 0.020819
C33   C     C_R   0.581124 0.583427 0.051541 0.020819
C34   C     C_R   0.280325 0.939948 0.405804 -0.089772
C35   C     C_R   0.719675 0.060052 0.594196 -0.089771
C36   C     C_R   0.987343 0.394246 0.265867 -0.097411
C37   C     C_R   0.995305 0.559291 0.690797 0.016819
C38   C     C_R   0.012657 0.605754 0.734133 -0.097411
C39   C     C_R   0.412261 0.278799 0.936544 -0.084805
C40   C     C_R   0.587739 0.721201 0.063456 -0.084805
C41   C     C_R   0.609629 0.016619 0.731140 -0.100313
C42   C     C_R   0.390371 0.983380 0.268860 -0.100312
C43   C     C_R   0.719339 0.589464 0.064445 -0.088598
C44   C     C_R   0.280661 0.410535 0.935555 -0.088599
C45   C     C_R   0.009888 0.734668 0.607514 -0.092931
C46   C     C_R   0.990112 0.265332 0.392486 -0.092931
C47   C     C_R   0.518482 0.929230 0.729828 0.098501
C48   C     C_R   0.464681 0.327652 0.938859 0.042724
C49   C     C_R   0.481515 0.070773 0.270172 0.098500
C50   C     C_R   0.964567 0.735636 0.482938 0.124430
C51   C     C_R   0.035433 0.264364 0.517062 0.124430
C52   C     C_R   0.704574 0.443084 0.071673 0.135244
C53   C     C_R   0.295425 0.556916 0.928327 0.135245
C54   C     C_R   0.320573 0.893778 0.547019 0.115442
C55   C     C_R   0.679425 0.106224 0.452981 0.115441
C56   C     C_R   0.559871 0.291532 0.934497 0.126380
C57   C     C_R   0.440129 0.708467 0.065504 0.126381
C58   C     C_R   0.023892 0.524897 0.267510 0.121929
C59   C     C_R   0.535319 0.672348 0.061141 0.042724
C60   C     C_R   0.976107 0.475103 0.732490 0.121929
C61   C     C_R   0.317480 0.948522 0.315970 -0.265061
C62   C     C_R   0.682520 0.051477 0.684030 -0.265062
C63   C     C_R   0.976694 0.309629 0.309592 -0.261770
C64   C     C_R   0.023306 0.690371 0.690408 -0.261770
C65   C     C_R   0.324105 0.322752 0.929651 -0.289221
C66   C     C_R   0.675895 0.677248 0.070349 -0.289223
C67   C     C_R   0.631657 0.096432 0.406159 0.068138
C68   C     C_R   0.368340 0.903571 0.593841 0.068139
C69   C     C_R   0.994309 0.419774 0.680025 0.053621
C70   C     C_R   0.572380 0.989675 0.686296 0.020955
C71   C     C_R   0.005691 0.580226 0.319975 0.053621
C72   C     C_R   0.403506 0.672240 0.030153 0.076893
C73   C     C_R   0.596494 0.327759 0.969848 0.076891
C74   C     C_R   0.533258 0.077575 0.314488 0.068985
C75   C     C_R   0.466739 0.922428 0.685512 0.068984
C76   C     C_R   0.330941 0.596240 0.961461 0.078748
C77   C     C_R   0.669059 0.403760 0.038539 0.078746
C78   C     C_R   0.018341 0.315172 0.573355 0.057601
C79   C     C_R   0.981659 0.684828 0.426645 0.057600
C80   C     C_R   0.645823 0.135939 0.313814 -0.158236
C81   C     C_R   0.427620 0.010324 0.313703 0.020955
C82   C     C_R   0.354167 0.864072 0.686188 -0.158233
C83   C     C_R   0.001686 0.327413 0.717028 -0.163783
C84   C     C_R   0.998314 0.672587 0.282972 -0.163783
C85   C     C_R   0.318582 0.719266 0.011453 -0.173086
C86   C     C_R   0.681417 0.280734 0.988548 -0.173088
C87   C     C_R   0.597049 0.127249 0.269004 -0.172153
C88   C     C_R   0.402941 0.872763 0.730997 -0.172153
C89   C     C_R   0.284237 0.683060 0.975045 -0.169838
C90   C     C_R   0.715763 0.316939 0.024956 -0.169842
C91   C     C_R   0.017259 0.274707 0.663121 -0.156268
C92   C     C_R   0.669494 0.537741 0.063566 0.034484
C93   C     C_R   0.982741 0.725293 0.336879 -0.156268
C94   C     C_R   0.518995 0.036223 0.406813 0.029232
C95   C     C_R   0.481005 0.963777 0.593187 0.029233
C96   C     C_R   0.006437 0.408149 0.537554 0.031176
C97   C     C_R   0.993563 0.591851 0.462446 0.031176
C98   C     C_R   0.414439 0.547227 0.982752 0.035109
C99   C     C_R   0.585561 0.452773 0.017249 0.035109
C100  C     C_R   0.567054 0.046741 0.452842 0.029523
C101  C     C_R   0.432946 0.953258 0.547158 0.029524
C102  C     C_R   0.452868 0.587099 0.012900 0.037924
H1    H     H_    0.283440 0.936502 0.281072 0.208844
H2    H     H_    0.025308 0.203094 0.692283 0.163609
H3    H     H_    0.781329 0.278008 0.038434 0.171089
H4    H     H_    0.218671 0.721992 0.961567 0.171087
H5    H     H_    0.304548 0.826876 0.725287 0.191932
H6    H     H_    0.695436 0.173143 0.274715 0.191936
H7    H     H_    0.720210 0.214219 0.978235 0.167015
H8    H     H_    0.279790 0.785780 0.021766 0.167013
H9    H     H_    0.001819 0.704444 0.213203 0.160350
H10   H     H_    0.998181 0.295556 0.786797 0.160351
H11   H     H_    0.716560 0.063497 0.718929 0.208844
H12   H     H_    0.959991 0.276642 0.277382 0.215029
H13   H     H_    0.040009 0.723358 0.722618 0.215029
H14   H     H_    0.285075 0.284767 0.929379 0.189271
H15   H     H_    0.714925 0.715233 0.070621 0.189272
H16   H     H_    0.388434 0.841988 0.802257 0.175689
H17   H     H_    0.611550 0.158032 0.197746 0.175693
H18   H     H_    0.974692 0.796906 0.307717 0.163609
I1    I     I_    0.557575 0.814914 0.833904 -0.362935
I2    I     I_    0.343593 0.783148 0.160756 -0.355259
I3    I     I_    0.144735 0.531277 0.156967 -0.330227
I4    I     I_    0.855265 0.468722 0.843033 -0.330226
I5    I     I_    0.442418 0.185088 0.166097 -0.362938
I6    I     I_    0.841491 0.846356 0.483558 -0.338610
I7    I     I_    0.158509 0.153644 0.516442 -0.338612
I8    I     I_    0.780906 0.353872 0.164125 -0.345609
I9    I     I_    0.219094 0.646128 0.835876 -0.345603
I10   I     I_    0.251835 0.792327 0.605701 -0.327913
I11   I     I_    0.748163 0.207675 0.394302 -0.327915
I12   I     I_    0.656407 0.216852 0.839244 -0.355257
O1    O     O_R   0.982940 0.138950 0.510160 -0.619380
O2    O     O_R   0.982940 0.510160 0.138950 -0.622076
O3    O     O_R   0.861050 0.017060 0.489840 -0.589152
O4    O     O_R   0.138950 0.982940 0.510160 -0.589153
O5    O     O_R   0.867700 0.025880 0.612340 -0.629071
O6    O     O_R   0.132300 0.974120 0.387660 -0.629070
O7    O     O_R   0.025880 0.612340 0.867700 -0.608859
O8    O     O_R   0.974120 0.387660 0.132300 -0.608858
O9    O     O_R   0.612340 0.867700 0.025880 -0.631970
O10   O     O_R   0.387660 0.132300 0.974120 -0.631970
O11   O     O_R   0.387660 0.974120 0.132300 -0.615876
O12   O     O_R   0.017060 0.861050 0.489840 -0.619380
O13   O     O_R   0.612340 0.025880 0.867700 -0.615876
O14   O     O_R   0.132300 0.387660 0.974120 -0.633436
O15   O     O_R   0.867700 0.612340 0.025880 -0.633436
O16   O     O_R   0.974120 0.132300 0.387660 -0.614551
O17   O     O_R   0.025880 0.867700 0.612340 -0.614552
O18   O     O_R   0.138950 0.510160 0.982940 -0.590223
O19   O     O_R   0.861050 0.489840 0.017060 -0.590222
O20   O     O_R   0.510160 0.982940 0.138950 -0.621599
O21   O     O_R   0.489840 0.017060 0.861050 -0.621600
O22   O     O_R   0.489840 0.861050 0.017060 -0.599137
O23   O     O_R   0.510160 0.138950 0.982940 -0.599137
O24   O     O_R   0.017060 0.489840 0.861050 -0.622076
Zn1   Zn    Zn3+2 0.004880 0.004880 0.583590 1.021939
Zn2   Zn    Zn3+2 0.995120 0.995120 0.416410 1.021941
Zn3   Zn    Zn3+2 0.004880 0.583590 0.004880 1.015462
Zn4   Zn    Zn3+2 0.995120 0.416410 0.995120 1.015462
Zn5   Zn    Zn3+2 0.583590 0.004880 0.004880 1.008178
Zn6   Zn    Zn3+2 0.416410 0.995120 0.995120 1.008177

loop_
_geom_bond_atom_site_label_1
_geom_bond_atom_site_label_2
_ccdc_geom_bond_type
O9    Zn5   S    
C6    C45   A    
C32   C48   A    
C74   C94   A    
C17   O18   A    
C91   H2    S    
O15   Zn3   S    
C50   C79   A    
C72   C85   A    
C52   I8    S    
C75   C95   A    
C14   C46   S    
O23   Zn5   S    
C87   H17   S    
C21   C40   S    
C58   I3    S    
C24   C36   S    
C72   C102  A    
C27   O4    A    
C23   O7    A    
C61   H1    S    
C79   C93   A    
C80   C87   A    
C58   C71   A    
C47   I1    S    
C54   C68   A    
C76   C98   A    
C14   O16   A    
C2    C32   A    
C49   C81   A    
C60   I4    S    
O6    Zn2   S    
C3    C12   A    
C57   I2    S    
C4    C96   A    
C63   H12   S    
C78   C96   A    
C66   H15   S    
C89   H4    S    
C1    C28   A    
C21   O22   A    
C15   C29   A    
C16   O17   A    
C50   I6    S    
C93   H18   S    
C94   C100  A    
C74   C87   A    
C35   C62   A    
C36   C63   A    
C8    C101  A    
C9    C95   A    
O11   Zn6   S    
C12   C98   A    
O20   Zn5   S    
C19   C42   S    
C9    C29   A    
C76   C89   A    
O2    Zn3   S    
C11   C31   A    
C33   C59   A    
C40   C59   A    
C40   C66   A    
C23   O24   A    
C12   C32   A    
C39   C65   A    
C44   C65   A    
C42   C81   A    
C41   C62   A    
C3    C73   A    
C15   C35   A    
C4    C69   A    
C79   C97   A    
C1    C34   A    
C20   C41   S    
C38   C64   A    
C22   O23   A    
C27   C34   S    
C54   I10   S    
C77   C90   A    
C84   H9    S    
O18   Zn3   S    
C27   O6    A    
C7    C46   A    
O24   Zn4   S    
C86   H7    S    
C8    C94   A    
C68   C101  A    
C62   H11   S    
C18   O15   A    
C20   O21   A    
C33   C92   A    
C2    C44   A    
C85   C89   A    
C52   C77   A    
C98   C102  A    
C34   C61   A    
C24   O8    A    
C31   C37   A    
C15   C55   A    
C13   C99   A    
C77   C99   A    
C25   O5    A    
C1    C54   A    
C83   H10   S    
C47   C70   A    
C13   C33   A    
C37   C38   A    
C69   C83   A    
C7    C51   A    
C10   C30   A    
C10   C96   A    
C22   O10   A    
C19   O20   A    
O16   Zn2   S    
C82   H5    S    
C6    C50   A    
C4    C11   A    
C26   C58   A    
C42   C61   A    
C56   I12   S    
C67   C100  A    
C25   C35   S    
O4    Zn1   S    
C26   C36   A    
C5    C97   A    
C85   H8    S    
C9    C100  A    
C55   I11   S    
C86   C90   A    
C8    C28   A    
C65   H14   S    
C52   C92   A    
C53   C76   A    
C53   I9    S    
O12   Zn2   S    
C18   O19   A    
C49   I5    S    
C71   C84   A    
C24   O2    A    
C48   C56   A    
C19   O11   A    
C56   C73   A    
C16   O12   A    
C28   C81   A    
C49   C74   A    
O22   Zn6   S    
C67   C80   A    
C90   H3    S    
C47   C75   A    
C2    C53   A    
C64   H13   S    
C16   C45   S    
O10   Zn6   S    
C55   C67   A    
C26   C30   A    
C14   O1    A    
C78   C91   A    
C23   C38   S    
C83   C91   A    
C80   H6    S    
C45   C64   A    
C43   C92   A    
O5    Zn1   S    
O21   Zn6   S    
C11   C97   A    
C88   H16   S    
C68   C82   A    
O19   Zn4   S    
C17   O14   A    
C17   C44   S    
C21   O9    A    
C5    C10   A    
C5    C71   A    
C18   C43   S    
O8    Zn4   S    
C46   C63   A    
O13   Zn5   S    
C60   C69   A    
C43   C66   A    
C82   C88   A    
C22   C39   S    
C6    C31   A    
C29   C70   A    
O1    Zn1   S    
C84   C93   A    
C57   C72   A    
C25   O3    A    
C73   C86   A    
C51   C78   A    
C37   C60   A    
C57   C59   A    
O7    Zn3   S    
C3    C99   A    
C75   C88   A    
O14   Zn4   S    
C51   I7    S    
C7    C30   A    
O3    Zn2   S    
C20   O13   A    
C41   C70   A    
C13   C102  A    
O17   Zn1   S    
C95   C101  A    
C39   C48   A    
