data_mof_unit_58600.cif
_audit_creation_date              2012-12-11T15:53:41-0500
_audit_creation_method            fapswitch 2.2
_symmetry_space_group_name_H-M    P1
_symmetry_Int_Tables_number       1
_space_group_crystal_system       triclinic
_cell_length_a                    6.938581
_cell_length_b                    14.591432
_cell_length_c                    15.927098
_cell_angle_alpha                 90.595336
_cell_angle_beta                  89.95785
_cell_angle_gamma                 90.104655
_cell_volume                      1612.43029722

loop_
_atom_site_label
_atom_site_type_symbol
_atom_type_description
_atom_site_fract_x
_atom_site_fract_y
_atom_site_fract_z
_atom_type_partial_charge
O1    O     O_R   0.361600 0.167310 0.164620 -0.545944
O2    O     O_R   0.638400 0.832690 0.835380 -0.539638
O3    O     O_R   0.691080 0.157570 0.338750 -0.546252
O4    O     O_R   0.308920 0.842430 0.661250 -0.545797
O5    O     O_R   0.861410 0.336420 0.339360 -0.538468
O6    O     O_R   0.138590 0.663580 0.660640 -0.541445
C1    C     C_R   0.521915 0.135226 0.367480 0.678582
C2    C     C_R   0.478089 0.864798 0.632541 0.679515
O7    O     O_R   0.691320 0.156280 0.165240 -0.546851
O8    O     O_R   0.308680 0.843720 0.834760 -0.543194
O9    O     O_R   0.861640 0.335130 0.164600 -0.513831
O10   O     O_R   0.138360 0.664870 0.835400 -0.514852
C3    C     C_R   0.522115 0.132754 0.137025 0.686727
C4    C     C_R   0.477764 0.866158 0.863924 0.697064
O11   O     O_R   0.361370 0.168600 0.339370 -0.542925
O12   O     O_R   0.638630 0.831400 0.660630 -0.542035
O13   O     O_3   0.527990 0.310540 0.251980 -0.353639
O14   O     O_3   0.472010 0.689460 0.748020 -0.361404
V1    V     V_3+5 0.802830 0.240980 0.251990 1.420318
V2    V     V_3+5 0.197170 0.759020 0.748010 1.420778
O15   O     O_R   0.191360 0.346160 0.165220 -0.540473
O16   O     O_R   0.808640 0.653840 0.834780 -0.543004
C5    C     C_R   0.022654 0.365059 0.133471 0.725304
C6    C     C_R   0.978135 0.628844 0.861325 0.725784
O17   O     O_R   0.191130 0.347440 0.338740 -0.542783
O18   O     O_R   0.808870 0.652560 0.661260 -0.547913
C7    C     C_R   0.022367 0.369466 0.367785 0.677857
C8    C     C_R   0.977697 0.630095 0.632619 0.656344
V3    V     V_3+5 0.302840 0.262750 0.251990 1.421740
V4    V     V_3+5 0.697160 0.737250 0.748010 1.411197
O19   O     O_3   0.027820 0.193180 0.251990 -0.379472
O20   O     O_3   0.972180 0.806820 0.748010 -0.375075
C9    C     C_3   0.923071 0.419761 0.525011 -0.144382
C10   C     C_3   0.077060 0.579306 0.475894 -0.137611
C11   C     C_3   0.096811 0.468553 0.567370 -0.146615
C12   C     C_3   0.903292 0.530553 0.433577 -0.138386
H1    H     H_    0.176383 0.443336 0.622950 0.092646
H2    H     H_    0.823650 0.555743 0.378000 0.106864
C13   C     C_3   0.988173 0.560239 0.562591 -0.001228
C14   C     C_3   0.011950 0.438873 0.438278 -0.006318
C15   C     C_3   0.814229 0.512250 0.521077 -0.116685
C16   C     C_3   0.185895 0.486829 0.479859 -0.111966
C17   C     C_R   0.822707 0.518836 0.961529 -0.291795
C18   C     C_R   0.179307 0.461435 0.021265 -0.290166
H3    H     H_    0.683112 0.540401 0.939560 0.221952
H4    H     H_    0.318766 0.440612 0.043878 0.221574
C19   C     C_R   0.832516 0.448877 0.021180 0.445208
C20   C     C_R   0.169304 0.516321 0.949266 0.441751
C21   C     C_R   0.011131 0.427478 0.059366 -0.233980
C22   C     C_R   0.990566 0.555140 0.925610 -0.235976
C23   C     C_R   0.679172 0.026340 0.468003 -0.160453
C24   C     C_R   0.320840 0.973750 0.532074 -0.160973
H5    H     H_    0.819743 0.045474 0.444310 0.116307
H6    H     H_    0.180270 0.954620 0.555771 0.116151
C25   C     C_R   0.668423 0.961210 0.531761 -0.155465
C26   C     C_R   0.331590 0.038880 0.468317 -0.155326
H7    H     H_    0.801162 0.932164 0.555192 0.118054
H8    H     H_    0.198851 0.067930 0.444888 0.117569
C27   C     C_R   0.489110 0.934021 0.564697 -0.044638
C28   C     C_R   0.510900 0.066048 0.435363 -0.043977
C29   C     C_R   0.679370 0.026117 0.032487 -0.165095
C30   C     C_R   0.320514 0.972619 0.968693 -0.156832
H9    H     H_    0.820098 0.046009 0.055750 0.113436
H10   H     H_    0.179790 0.953034 0.945211 0.115931
C31   C     C_R   0.668436 0.962492 0.966296 -0.151831
C32   C     C_R   0.331444 0.036177 0.034934 -0.157702
C33   C     C_R   0.488850 0.934824 0.933508 -0.048576
C34   C     C_R   0.511019 0.063709 0.067801 -0.045818
H11   H     H_    0.859579 0.353534 0.544853 0.099228
H12   H     H_    0.140527 0.645555 0.456100 0.102314
H13   H     H_    0.660927 0.522920 0.538560 0.107108
H14   H     H_    0.339259 0.476129 0.462518 0.107041
O21   O     O_3   0.668527 0.397560 0.035802 -0.546793
C35   C     C_3   0.682646 0.314387 0.989095 0.128050
H15   H     H_    0.765434 0.262981 0.025093 0.120848
H16   H     H_    0.755066 0.322796 0.927015 0.083157
C36   C     C_3   0.482568 0.275857 0.972372 -0.753491
H17   H     H_    0.403263 0.321182 0.929562 0.219245
H18   H     H_    0.493977 0.207077 0.942368 0.183709
H19   H     H_    0.400129 0.270600 0.031657 0.228506
O22   O     O_3   0.333563 0.526628 0.900717 -0.547279
C37   C     C_3   0.312061 0.474337 0.825445 0.136691
H20   H     H_    0.223770 0.511806 0.779046 0.116771
H21   H     H_    0.241212 0.406788 0.836016 0.074095
C38   C     C_3   0.508267 0.456558 0.785786 -0.732453
H22   H     H_    0.599903 0.416576 0.828810 0.210311
H23   H     H_    0.490199 0.417038 0.726339 0.160012
H24   H     H_    0.581562 0.522061 0.771586 0.245785
H25   H     H_    0.801275 0.934961 0.940876 0.118965
H26   H     H_    0.198657 0.063968 0.060168 0.116316

loop_
_geom_bond_atom_site_label_1
_geom_bond_atom_site_label_2
_ccdc_geom_bond_type
C18   C21   A    
C32   C34   A    
C25   C27   A    
O13   V3    S    
O21   C35   S    
C10   C16   S    
O4    C2    A    
V1    O19   S    
O22   C37   S    
C19   C21   A    
C36   H17   S    
C31   H25   S    
O9    V1    S    
C35   H16   S    
C30   C33   A    
C11   H1    S    
O3    C1    A    
C2    C27   S    
C5    C21   S    
O12   V4    S    
C20   O22   S    
C29   H9    S    
C11   C16   S    
O7    C3    A    
C30   H10   S    
C9    C11   S    
O5    C7    A    
O7    V1    S    
O6    C8    A    
O8    V2    S    
C31   C33   A    
C35   C36   S    
C4    C33   S    
O3    V1    S    
O14   V4    S    
C10   H12   S    
C23   C25   A    
C9    H11   S    
C15   H13   S    
C24   H6    S    
C20   C22   A    
C2    O12   A    
O17   V3    S    
C12   C15   S    
C16   H14   S    
C18   H4    S    
O11   V3    S    
C36   H18   S    
C6    C22   S    
C9    C14   S    
C35   H15   S    
C30   C32   A    
C38   H23   S    
C10   C13   S    
C12   C14   S    
C19   O21   S    
C13   C15   S    
O8    C4    A    
C1    O11   A    
C8    C13   S    
C38   H22   S    
O15   V3    S    
C26   C28   A    
C23   H5    S    
C11   C13   S    
C24   C27   A    
C7    C14   S    
O10   V2    S    
O1    V3    S    
C17   H3    S    
C32   H26   S    
O18   V4    S    
C37   H21   S    
C25   H7    S    
O16   C6    A    
O1    C3    A    
C12   H2    S    
C1    C28   S    
V2    O20   S    
C38   H24   S    
O16   V4    S    
C14   C16   S    
C17   C22   A    
O5    V1    S    
O17   C7    A    
C37   C38   S    
O6    V2    S    
O10   C6    A    
O18   C8    A    
O2    V4    S    
C9    C15   S    
O15   C5    A    
V3    O19   S    
C18   C20   A    
V4    O20   S    
C36   H19   S    
C29   C34   A    
O9    C5    A    
O13   V1    S    
C10   C12   S    
C26   H8    S    
O14   V2    S    
O2    C4    A    
O4    V2    S    
C29   C31   A    
C37   H20   S    
C23   C28   A    
C17   C19   A    
C24   C26   A    
C3    C34   S    
