data_mof_unit_50029.cif
_audit_creation_date              2012-10-26T17:13:06-0400
_audit_creation_method            fapswitch 2.2
_symmetry_space_group_name_H-M    P1
_symmetry_Int_Tables_number       1
_space_group_crystal_system       triclinic
_cell_length_a                    16.670678
_cell_length_b                    16.670678
_cell_length_c                    16.874715
_cell_angle_alpha                 68.037218
_cell_angle_beta                  68.037212
_cell_angle_gamma                 67.649308
_cell_volume                      3872.94064462

loop_
_atom_site_label
_atom_site_type_symbol
_atom_type_description
_atom_site_fract_x
_atom_site_fract_y
_atom_site_fract_z
_atom_type_partial_charge
C1    C     C_R   0.327807 0.947634 0.449084 0.010451
C2    C     C_R   0.325352 0.457547 0.943974 0.029599
C3    C     C_R   0.544916 0.414039 0.985960 0.027154
C4    C     C_R   0.966365 0.478749 0.592979 0.016995
C5    C     C_R   0.033635 0.521250 0.407021 0.016996
C6    C     C_R   0.052366 0.672193 0.550916 0.010451
C7    C     C_R   0.947634 0.327807 0.449084 0.010451
C8    C     C_R   0.451261 0.991463 0.452044 -0.006904
C9    C     C_R   0.548739 0.008537 0.547956 -0.006904
C10   C     C_R   0.991463 0.451261 0.452044 -0.006904
C11   C     C_R   0.008537 0.548739 0.547956 -0.006904
C12   C     C_R   0.458394 0.458394 0.973116 0.002500
C13   C     C_R   0.541606 0.541606 0.026884 0.002500
C14   C     C_R   0.028923 0.828070 0.564571 0.579854
C15   C     C_R   0.672193 0.052366 0.550916 0.010451
C16   C     C_R   0.971077 0.171930 0.435429 0.579854
C17   C     C_R   0.827670 0.563505 0.031242 0.584361
C18   C     C_R   0.172330 0.436494 0.968757 0.584360
C19   C     C_R   0.570187 0.013297 0.831417 0.584110
C20   C     C_R   0.429813 0.986703 0.168583 0.584109
C21   C     C_R   0.436495 0.172330 0.968757 0.584361
C22   C     C_R   0.563505 0.827670 0.031242 0.584361
C23   C     C_R   0.986703 0.429813 0.168583 0.584110
C24   C     C_R   0.013297 0.570187 0.831417 0.584110
C25   C     C_R   0.171930 0.971076 0.435429 0.579854
C26   C     C_R   0.012668 0.427459 0.310072 0.008380
C27   C     C_R   0.828070 0.028923 0.564571 0.579854
C28   C     C_R   0.402744 0.983081 0.403838 -0.007817
C29   C     C_R   0.597256 0.016919 0.596162 -0.007817
C30   C     C_R   0.983081 0.402744 0.403838 -0.007817
C31   C     C_R   0.016919 0.597256 0.596162 -0.007817
C32   C     C_R   0.413741 0.413741 0.953457 0.008573
C33   C     C_R   0.586259 0.586259 0.046543 0.008574
C34   C     C_R   0.271001 0.956704 0.398957 0.006298
C35   C     C_R   0.728999 0.043296 0.601043 0.006298
C36   C     C_R   0.989444 0.388131 0.262769 -0.006782
C37   C     C_R   0.987332 0.572541 0.689928 0.008380
C38   C     C_R   0.010555 0.611868 0.737231 -0.006782
C39   C     C_R   0.404553 0.272617 0.948305 0.004166
C40   C     C_R   0.595447 0.727383 0.051695 0.004166
C41   C     C_R   0.611868 0.010555 0.737231 -0.006782
C42   C     C_R   0.388132 0.989444 0.262769 -0.006782
C43   C     C_R   0.727383 0.595447 0.051695 0.004166
C44   C     C_R   0.272617 0.404553 0.948305 0.004166
C45   C     C_R   0.043296 0.728999 0.601043 0.006298
C46   C     C_R   0.956704 0.271001 0.398957 0.006298
C47   C     C_R   0.514713 0.930943 0.731638 0.088225
C48   C     C_R   0.457547 0.325352 0.943974 0.029599
C49   C     C_R   0.485287 0.069056 0.268362 0.088224
C50   C     C_R   0.096442 0.685876 0.458975 0.096364
C51   C     C_R   0.903558 0.314124 0.541025 0.096364
C52   C     C_R   0.707245 0.448134 0.065258 0.111811
C53   C     C_R   0.292755 0.551866 0.934742 0.111811
C54   C     C_R   0.314124 0.903558 0.541025 0.096365
C55   C     C_R   0.685876 0.096442 0.458975 0.096365
C56   C     C_R   0.551866 0.292755 0.934742 0.111811
C57   C     C_R   0.448133 0.707245 0.065258 0.111811
C58   C     C_R   0.069056 0.485287 0.268362 0.088224
C59   C     C_R   0.542453 0.674648 0.056026 0.029599
C60   C     C_R   0.930943 0.514713 0.731638 0.088225
C61   C     C_R   0.306914 0.967233 0.307515 -0.130469
C62   C     C_R   0.693086 0.032767 0.692485 -0.130469
C63   C     C_R   0.967233 0.306913 0.307515 -0.130469
C64   C     C_R   0.032767 0.693086 0.692485 -0.130469
C65   C     C_R   0.313853 0.313853 0.949024 -0.149488
C66   C     C_R   0.686147 0.686147 0.050976 -0.149488
C67   C     C_R   0.637738 0.087855 0.410299 0.026763
C68   C     C_R   0.362262 0.912145 0.589701 0.026763
C69   C     C_R   0.927147 0.461936 0.685327 0.032153
C70   C     C_R   0.572541 0.987332 0.689928 0.008380
C71   C     C_R   0.072853 0.538063 0.314673 0.032153
C72   C     C_R   0.408181 0.669847 0.032564 0.042397
C73   C     C_R   0.591819 0.330152 0.967436 0.042397
C74   C     C_R   0.538063 0.072853 0.314673 0.032153
C75   C     C_R   0.461937 0.927147 0.685327 0.032153
C76   C     C_R   0.330152 0.591819 0.967436 0.042397
C77   C     C_R   0.669847 0.408181 0.032564 0.042397
C78   C     C_R   0.912145 0.362262 0.589701 0.026763
C79   C     C_R   0.087855 0.637738 0.410299 0.026763
C80   C     C_R   0.654497 0.124999 0.317837 -0.103921
C81   C     C_R   0.427459 0.012668 0.310072 0.008380
C82   C     C_R   0.345503 0.875000 0.682163 -0.103921
C83   C     C_R   0.881884 0.394880 0.729014 -0.106481
C84   C     C_R   0.118116 0.605120 0.270986 -0.106482
C85   C     C_R   0.322620 0.714553 0.017488 -0.119677
C86   C     C_R   0.677380 0.285447 0.982512 -0.119677
C87   C     C_R   0.605120 0.118116 0.270986 -0.106481
C88   C     C_R   0.394880 0.881884 0.729014 -0.106481
C89   C     C_R   0.285447 0.677380 0.982512 -0.119677
C90   C     C_R   0.714553 0.322620 0.017488 -0.119677
C91   C     C_R   0.875001 0.345503 0.682163 -0.103921
C92   C     C_R   0.674648 0.542453 0.056026 0.029599
C93   C     C_R   0.124999 0.654497 0.317837 -0.103921
C94   C     C_R   0.521250 0.033635 0.407021 0.016995
C95   C     C_R   0.478749 0.966365 0.592979 0.016995
C96   C     C_R   0.957971 0.429696 0.545030 0.013608
C97   C     C_R   0.042029 0.570304 0.454970 0.013608
C98   C     C_R   0.414039 0.544916 0.985960 0.027154
C99   C     C_R   0.585961 0.455084 0.014040 0.027154
C100  C     C_R   0.570304 0.042029 0.454970 0.013608
C101  C     C_R   0.429696 0.957971 0.545030 0.013608
C102  C     C_R   0.455084 0.585961 0.014040 0.027154
Cu1   Cu    Cu3+1 0.995180 0.995180 0.424630 1.012444
Cu2   Cu    Cu3+1 0.004820 0.004820 0.575370 1.012444
Cu3   Cu    Cu3+1 0.995180 0.424630 0.995180 1.006615
Cu4   Cu    Cu3+1 0.004820 0.575370 0.004820 1.006614
Cu5   Cu    Cu3+1 0.424630 0.995180 0.995180 1.006614
Cu6   Cu    Cu3+1 0.575370 0.004820 0.004820 1.006614
H1    H     H_    0.269408 0.961986 0.270154 0.180740
H2    H     H_    0.841427 0.293217 0.719780 0.164856
H3    H     H_    0.780114 0.285645 0.029182 0.138866
H4    H     H_    0.219886 0.714354 0.970818 0.138866
H5    H     H_    0.293217 0.841427 0.719780 0.164856
H6    H     H_    0.706782 0.158573 0.280220 0.164856
H7    H     H_    0.714354 0.219886 0.970818 0.138866
H8    H     H_    0.285645 0.780114 0.029182 0.138866
H9    H     H_    0.146894 0.621322 0.199754 0.148406
H10   H     H_    0.853106 0.378678 0.800246 0.148406
H11   H     H_    0.730592 0.038014 0.729846 0.180740
H12   H     H_    0.961986 0.269408 0.270154 0.180740
H13   H     H_    0.038014 0.730592 0.729846 0.180740
H14   H     H_    0.273089 0.273088 0.955676 0.157487
H15   H     H_    0.726911 0.726911 0.044324 0.157487
H16   H     H_    0.378678 0.853106 0.800246 0.148406
H17   H     H_    0.621322 0.146894 0.199754 0.148406
H18   H     H_    0.158573 0.706782 0.280220 0.164856
I1    I     I_    0.550436 0.813901 0.833925 -0.354399
I2    I     I_    0.360868 0.775622 0.164693 -0.333345
I3    I     I_    0.186099 0.449564 0.166075 -0.354399
I4    I     I_    0.813901 0.550435 0.833925 -0.354399
I5    I     I_    0.449564 0.186099 0.166075 -0.354399
I6    I     I_    0.201323 0.751464 0.402532 -0.286091
I7    I     I_    0.798677 0.248535 0.597468 -0.286091
I8    I     I_    0.775622 0.360868 0.164693 -0.333346
I9    I     I_    0.224378 0.639132 0.835307 -0.333346
I10   I     I_    0.248535 0.798677 0.597468 -0.286091
I11   I     I_    0.751464 0.201323 0.402532 -0.286091
I12   I     I_    0.639132 0.224378 0.835307 -0.333345
O1    O     O_R   0.124540 0.978640 0.385460 -0.499394
O2    O     O_R   0.124540 0.385460 0.978640 -0.515435
O3    O     O_R   0.021360 0.875460 0.614540 -0.499394
O4    O     O_R   0.978640 0.124540 0.385460 -0.499394
O5    O     O_R   0.013780 0.867370 0.487190 -0.490210
O6    O     O_R   0.986220 0.132630 0.512810 -0.490210
O7    O     O_R   0.867370 0.487190 0.013780 -0.470587
O8    O     O_R   0.132630 0.512810 0.986220 -0.470587
O9    O     O_R   0.487190 0.013780 0.867370 -0.493533
O10   O     O_R   0.512810 0.986220 0.132630 -0.493533
O11   O     O_R   0.512810 0.132630 0.986220 -0.470587
O12   O     O_R   0.875460 0.021360 0.614540 -0.499394
O13   O     O_R   0.487190 0.867370 0.013780 -0.470586
O14   O     O_R   0.986220 0.512810 0.132630 -0.493533
O15   O     O_R   0.013780 0.487190 0.867370 -0.493533
O16   O     O_R   0.132630 0.986220 0.512810 -0.490210
O17   O     O_R   0.867370 0.013780 0.487190 -0.490210
O18   O     O_R   0.978640 0.385460 0.124540 -0.492885
O19   O     O_R   0.021360 0.614540 0.875460 -0.492886
O20   O     O_R   0.385460 0.124540 0.978640 -0.515435
O21   O     O_R   0.614540 0.875460 0.021360 -0.515435
O22   O     O_R   0.614540 0.021360 0.875460 -0.492886
O23   O     O_R   0.385460 0.978640 0.124540 -0.492885
O24   O     O_R   0.875460 0.614540 0.021360 -0.515435

loop_
_geom_bond_atom_site_label_1
_geom_bond_atom_site_label_2
_ccdc_geom_bond_type
Cu3   O15   S    
C23   O14   A    
C6    C45   A    
C52   I8    S    
C21   O20   A    
C74   C94   A    
C17   O7    A    
C53   I9    S    
C88   H16   S    
C61   H1    S    
C50   C79   A    
C57   I2    S    
C72   C85   A    
C75   C95   A    
Cu6   O21   S    
C24   O15   A    
C49   I5    S    
C89   H4    S    
C19   O22   A    
C90   H3    S    
C83   H10   S    
C16   O6    A    
C79   C93   A    
C80   C87   A    
C18   C44   S    
C58   C71   A    
C57   C59   A    
C54   C68   A    
C22   O21   A    
C58   I3    S    
C76   C98   A    
C64   H13   S    
C56   I12   S    
C2    C32   A    
C49   C81   A    
C93   H18   S    
C3    C12   A    
C4    C96   A    
Cu5   O23   S    
C78   C96   A    
C84   H9    S    
C1    C28   A    
C24   C38   S    
Cu5   Cu6   S    
C20   O10   A    
C10   C96   A    
C74   C87   A    
C36   C63   A    
C8    C101  A    
C9    C95   A    
C12   C98   A    
C9    C29   A    
C25   C34   S    
Cu5   O13   S    
C6    C31   A    
C25   O16   A    
C14   O3    A    
C11   C31   A    
C33   C59   A    
C7    C30   A    
C40   C66   A    
C23   O18   A    
C12   C32   A    
C39   C65   A    
C44   C65   A    
C42   C81   A    
C41   C62   A    
C15   C35   A    
C4    C69   A    
C1    C34   A    
C15   C29   A    
C14   C45   S    
C38   C64   A    
C27   O17   A    
C77   C90   A    
Cu4   O14   S    
C7    C46   A    
C8    C94   A    
C68   C101  A    
C86   C90   A    
C33   C92   A    
C16   C46   S    
C85   C89   A    
C24   O19   A    
C27   C35   S    
C98   C102  A    
C34   C61   A    
C19   O9    A    
C31   C37   A    
C86   H7    S    
C15   C55   A    
C13   C99   A    
C16   O4    A    
C1    C54   A    
C17   C43   S    
C47   C70   A    
C13   C33   A    
C37   C38   A    
C69   C83   A    
Cu1   O1    S    
Cu5   O9    S    
C10   C30   A    
C55   C67   A    
C21   C39   S    
C94   C100  A    
C22   C40   S    
C71   C84   A    
Cu2   O6    S    
C49   C74   A    
C65   H14   S    
C6    C50   A    
C4    C11   A    
C18   O2    A    
C26   C58   A    
C42   C61   A    
C62   H11   S    
C50   I6    S    
C67   C100  A    
Cu1   O17   S    
C80   H6    S    
C26   C30   A    
C27   O12   A    
C21   O11   A    
C55   I11   S    
C8    C28   A    
C52   C92   A    
C53   C76   A    
C60   I4    S    
C52   C77   A    
Cu1   O4    S    
C87   H17   S    
Cu5   O20   S    
C2    C44   A    
C91   H2    S    
C29   C70   A    
C26   C36   A    
C48   C56   A    
C22   O13   A    
C56   C73   A    
C25   O1    A    
C28   C81   A    
C66   H15   S    
C79   C97   A    
C85   H8    S    
C67   C80   A    
C82   H5    S    
C5    C97   A    
C18   O8    A    
C2    C53   A    
Cu1   O5    S    
C20   C42   S    
Cu2   O12   S    
C47   I1    S    
Cu6   O22   S    
C78   C91   A    
C9    C100  A    
Cu4   O19   S    
C83   C91   A    
Cu3   Cu4   S    
C76   C89   A    
C45   C64   A    
C95   C101  A    
C43   C92   A    
Cu4   O8    S    
C46   C63   A    
C11   C97   A    
C68   C82   A    
C14   O5    A    
C51   C78   A    
C7    C51   A    
C5    C10   A    
C5    C71   A    
C54   I10   S    
Cu3   O2    S    
C63   H12   S    
C51   I7    S    
C32   C48   A    
C72   C102  A    
C60   C69   A    
C43   C66   A    
C82   C88   A    
C20   O23   A    
C77   C99   A    
C35   C62   A    
C84   C93   A    
Cu4   O24   S    
C57   C72   A    
C3    C73   A    
C73   C86   A    
C37   C60   A    
C17   O24   A    
C47   C75   A    
Cu6   O11   S    
C3    C99   A    
C75   C88   A    
Cu3   O18   S    
C23   C36   S    
Cu1   Cu2   S    
C40   C59   A    
Cu2   O3    S    
C41   C70   A    
Cu2   O16   S    
C13   C102  A    
Cu3   O7    S    
C19   C41   S    
C39   C48   A    
Cu6   O10   S    
