data_mof_unit_19894.cif
_audit_creation_date              2012-12-11T15:29:43-0500
_audit_creation_method            fapswitch 2.2
_symmetry_space_group_name_H-M    P1
_symmetry_Int_Tables_number       1
_space_group_crystal_system       triclinic
_cell_length_a                    21.422093
_cell_length_b                    7.242707
_cell_length_c                    14.758058
_cell_angle_alpha                 90.000445
_cell_angle_beta                  74.19867
_cell_angle_gamma                 89.999086
_cell_volume                      2203.24427676

loop_
_atom_site_label
_atom_site_type_symbol
_atom_type_description
_atom_site_fract_x
_atom_site_fract_y
_atom_site_fract_z
_atom_type_partial_charge
O1    O     O_R   0.464160 0.506670 0.130070 -0.523432
O2    O     O_R   0.535840 0.006670 0.869930 -0.523409
O3    O     O_R   0.589710 0.179080 0.006710 -0.544216
O4    O     O_R   0.410290 0.679080 0.993290 -0.544258
C1    C     C_R   0.616030 0.345075 0.003638 0.711696
C2    C     C_R   0.383971 0.845078 0.996357 0.711740
O5    O     O_R   0.467940 0.177220 0.138010 -0.542739
O6    O     O_R   0.532060 0.677220 0.861990 -0.542732
O7    O     O_R   0.413200 0.002810 0.002170 -0.520517
O8    O     O_R   0.586800 0.502810 0.997830 -0.520481
C3    C     C_R   0.455985 0.345854 0.174744 0.784998
C4    C     C_R   0.544017 0.845850 0.825256 0.785068
O9    O     O_3   0.482180 0.337850 0.955280 -0.361589
O10   O     O_3   0.517820 0.837850 0.044720 -0.361557
V1    V     V_3+5 0.503310 0.064600 0.008300 1.597292
V2    V     V_3+5 0.496690 0.564600 0.991700 1.597244
C5    C     C_R   0.570189 0.859829 0.722539 -0.200724
C6    C     C_R   0.429814 0.359848 0.277459 -0.200680
C7    C     C_R   0.928061 0.863011 0.276566 -0.044390
C8    C     C_R   0.071936 0.362953 0.723432 -0.044423
C9    C     C_R   0.559939 0.962664 0.570648 0.417938
C10   C     C_R   0.440047 0.462838 0.429333 0.417919
C11   C     C_R   0.531901 0.928337 0.666703 0.355368
C12   C     C_R   0.468090 0.428489 0.333283 0.355294
C13   C     C_R   0.636383 0.829273 0.682690 -0.210697
C14   C     C_R   0.363628 0.329187 0.317315 -0.210739
C15   C     C_R   0.667686 0.887885 0.590178 0.089433
C16   C     C_R   0.332311 0.387867 0.409811 0.089410
C17   C     C_R   0.627743 0.941961 0.532036 -0.035904
C18   C     C_R   0.372244 0.442115 0.467940 -0.035896
C19   C     C_R   0.737079 0.887253 0.552609 -0.046225
C20   C     C_R   0.262918 0.387117 0.447382 -0.046220
C21   C     C_R   0.764068 0.903373 0.453101 0.004226
C22   C     C_R   0.235921 0.403438 0.546880 0.004249
C23   C     C_R   0.722123 0.948596 0.397229 -0.131759
C24   C     C_R   0.277856 0.448870 0.602732 -0.131728
C25   C     C_R   0.656161 0.972873 0.436264 -0.035813
C26   C     C_R   0.343816 0.473172 0.563694 -0.035844
C27   C     C_R   0.780636 0.882271 0.610413 0.322560
C28   C     C_R   0.219364 0.381750 0.389583 0.322537
C29   C     C_R   0.847190 0.851422 0.570828 0.343294
C30   C     C_R   0.152835 0.350567 0.429185 0.343306
C31   C     C_R   0.873221 0.847195 0.472487 -0.036823
C32   C     C_R   0.126804 0.346559 0.527529 -0.036841
C33   C     C_R   0.832278 0.879939 0.412746 0.032688
C34   C     C_R   0.167717 0.379885 0.587246 0.032685
C35   C     C_R   0.940376 0.818863 0.432484 -0.047981
C36   C     C_R   0.059674 0.317857 0.567552 -0.047982
C37   C     C_R   0.967361 0.826839 0.335542 -0.126843
C38   C     C_R   0.032679 0.326069 0.664487 -0.126998
C39   C     C_R   0.861364 0.886618 0.314196 -0.155736
C40   C     C_R   0.138611 0.386956 0.685784 -0.155600
H1    H     H_    0.627517 0.012429 0.389292 0.202592
H2    H     H_    0.372452 0.512871 0.610652 0.202606
H3    H     H_    0.833893 0.907225 0.263854 0.090736
H4    H     H_    0.166049 0.408147 0.736113 0.090675
H5    H     H_    0.019073 0.806081 0.306524 0.142794
H6    H     H_    0.980989 0.304948 0.693523 0.142928
H7    H     H_    0.662581 0.759130 0.725414 0.184459
H8    H     H_    0.337447 0.258931 0.274604 0.184482
H9    H     H_    0.738709 0.973263 0.322641 0.126446
H10   H     H_    0.261270 0.473606 0.677310 0.126426
H11   H     H_    0.973024 0.792031 0.475394 0.186251
H12   H     H_    0.027055 0.290509 0.524662 0.186300
C41   C     C_3   0.228574 0.770402 0.908825 -0.334763
C42   C     C_3   0.771403 0.270897 0.091289 -0.334737
H13   H     H_    0.210150 0.628529 0.902853 0.154354
H14   H     H_    0.789827 0.129133 0.097517 0.154210
H15   H     H_    0.223895 0.849501 0.846370 0.161047
H16   H     H_    0.776051 0.350451 0.153621 0.161252
C43   C     C_3   0.301246 0.759588 0.907796 -0.265032
C44   C     C_3   0.698743 0.259884 0.092275 -0.264944
H17   H     H_    0.331496 0.824576 0.842487 0.231529
H18   H     H_    0.668463 0.324984 0.157532 0.231539
H19   H     H_    0.316193 0.612293 0.905796 0.195740
H20   H     H_    0.683825 0.112557 0.094358 0.195752
H21   H     H_    0.179927 0.611174 0.084331 0.191455
H22   H     H_    0.819962 0.110686 0.916076 0.191399
H23   H     H_    0.286709 0.607358 0.083631 0.219162
H24   H     H_    0.713233 0.107105 0.916524 0.219207
C45   C     C_3   0.197451 0.755523 0.085681 -0.279915
C46   C     C_3   0.802529 0.255062 0.914460 -0.279695
C47   C     C_3   0.214678 0.062761 0.004320 -0.325873
C48   C     C_3   0.785369 0.562733 0.995387 -0.325928
C49   C     C_3   0.187425 0.864390 0.000331 0.015544
C50   C     C_3   0.812577 0.364395 0.999658 0.015435
H25   H     H_    0.187606 0.131906 0.070810 0.156974
H26   H     H_    0.812428 0.631433 0.928764 0.156937
H27   H     H_    0.206481 0.146619 0.945407 0.182267
H28   H     H_    0.793624 0.646992 0.054128 0.182330
C51   C     C_3   0.312840 0.855249 0.996124 -0.020545
C52   C     C_3   0.687163 0.355248 0.003865 -0.020593
C53   C     C_3   0.270299 0.753148 0.084003 -0.353351
C54   C     C_3   0.729692 0.252859 0.916077 -0.353296
C55   C     C_3   0.287672 0.059010 0.999799 0.271679
C56   C     C_3   0.712359 0.559000 0.000012 0.271722
H29   H     H_    0.294081 0.127019 0.064340 0.107061
H30   H     H_    0.705916 0.626842 0.935450 0.106945
H31   H     H_    0.168439 0.819424 0.152461 0.171896
H32   H     H_    0.831603 0.318471 0.847589 0.171935
H33   H     H_    0.276332 0.818946 0.149243 0.176761
H34   H     H_    0.723710 0.318548 0.850783 0.176954
O11   O     O_R   0.913210 0.208550 0.002110 -0.540680
O12   O     O_R   0.086790 0.708550 0.997890 -0.540689
O13   O     O_R   0.032060 0.539960 0.861980 -0.532933
O14   O     O_R   0.967940 0.039960 0.138020 -0.532917
C57   C     C_R   0.044006 0.372350 0.825327 0.688300
C58   C     C_R   0.955991 0.872356 0.174671 0.688330
O15   O     O_R   0.910290 0.538020 0.993280 -0.543436
O16   O     O_R   0.089710 0.038020 0.006720 -0.543425
O17   O     O_R   0.964160 0.712340 0.130090 -0.535310
O18   O     O_R   0.035840 0.212340 0.869910 -0.535305
C59   C     C_R   0.883998 0.370186 0.998014 0.665584
C60   C     C_R   0.116003 0.870184 0.001980 0.665583
O19   O     O_3   0.017820 0.379210 0.044690 -0.371733
O20   O     O_3   0.982180 0.879210 0.955310 -0.371737
V3    V     V_3+5 0.996690 0.652500 0.991710 1.464611
V4    V     V_3+5 0.003310 0.152500 0.008290 1.464667
Cl1   Cl    Cl    0.332104 0.195628 0.901501 -0.627893
Cl2   Cl    Cl    0.667992 0.695877 0.098256 -0.628121
Cl3   Cl    Cl    0.898306 0.827190 0.646823 -0.622687
Cl4   Cl    Cl    0.101747 0.325643 0.353201 -0.622606
Cl5   Cl    Cl    0.509299 0.036215 0.500574 -0.500215
Cl6   Cl    Cl    0.490685 0.536384 0.499411 -0.500246
Cl7   Cl    Cl    0.448233 0.966891 0.716682 -0.540778
Cl8   Cl    Cl    0.551748 0.467205 0.283294 -0.540958
Cl9   Cl    Cl    0.757607 0.958425 0.728961 -0.686391
Cl10  Cl    Cl    0.242334 0.457809 0.271014 -0.686294

loop_
_geom_bond_atom_site_label_1
_geom_bond_atom_site_label_2
_ccdc_geom_bond_type
C47   H25   S    
C3    C6    S    
C9    Cl5   S    
C46   C54   S    
C15   C17   A    
C21   C33   A    
C57   O18   A    
C42   H14   S    
O1    C3    A    
C44   H20   S    
O2    C4    A    
O16   V4    S    
C2    O7    A    
O15   V3    S    
C35   C37   A    
O5    C3    A    
O13   C57   A    
C5    C11   A    
C48   H28   S    
C50   C59   S    
C6    C12   A    
C49   C60   S    
O11   C59   A    
C48   C50   S    
H23   C53   S    
C35   H11   S    
C44   C52   S    
C36   H12   S    
C33   C39   A    
C2    C51   S    
C28   Cl10  S    
C34   C40   A    
C52   C56   S    
C37   H5    S    
O20   V3    S    
C18   C26   A    
C48   C56   S    
C29   Cl3   S    
C7    C37   A    
C8    C38   A    
C42   C44   S    
C16   C18   A    
C41   H13   S    
C56   H30   S    
C4    C5    S    
C19   C21   A    
C22   C34   A    
C31   C35   A    
O16   C60   A    
C22   C24   A    
O15   C59   A    
C11   Cl7   S    
C8    C57   S    
C25   H1    S    
C7    C58   S    
C36   C38   A    
O6    V2    S    
O14   V4    S    
C12   Cl8   S    
C29   C31   A    
O13   V3    S    
C30   C32   A    
C24   H10   S    
C32   C34   A    
C47   H27   S    
C43   H19   S    
C27   Cl9   S    
C15   C19   A    
C38   H6    S    
C16   C20   A    
C27   C29   A    
C53   H33   S    
C43   H17   S    
C45   H31   S    
C55   Cl1   S    
C46   C50   S    
C9    C17   A    
C20   C22   A    
O4    V2    S    
C51   C53   S    
C45   C53   S    
H22   C46   S    
C26   H2    S    
H21   C45   S    
O6    C4    A    
O19   V4    S    
C47   C55   S    
C6    C14   A    
C52   C54   S    
C23   H9    S    
O1    V2    S    
C41   C49   S    
O2    V1    S    
C31   C33   A    
O12   C60   A    
C44   H18   S    
C47   C49   S    
C9    C11   A    
C10   C12   A    
O4    C2    A    
H24   C54   S    
O3    V1    S    
C30   Cl4   S    
O12   V3    S    
C10   C18   A    
C23   C25   A    
C46   H32   S    
C56   Cl2   S    
C48   H26   S    
C28   C30   A    
O3    C1    A    
C42   C50   S    
C55   H29   S    
C10   Cl6   S    
C13   C15   A    
C14   C16   A    
C58   O17   A    
O17   V3    S    
C5    C13   A    
C24   C26   A    
O7    V1    S    
C1    O8    A    
C8    C40   A    
C32   C36   A    
C41   C43   S    
O18   V4    S    
C42   H16   S    
O14   C58   A    
C41   H15   S    
O5    V1    S    
C21   C23   A    
C19   C27   A    
C39   H3    S    
C20   C28   A    
C1    C52   S    
C51   C55   S    
O11   V4    S    
C7    C39   A    
C43   C51   S    
C54   H34   S    
O9    V2    S    
C17   C25   A    
O10   V1    S    
O8    V2    S    
C13   H7    S    
C14   H8    S    
C45   C49   S    
C40   H4    S    
