data_mof_unit_19182.cif
_audit_creation_date              2012-12-11T14:10:42-0500
_audit_creation_method            fapswitch 2.2
_symmetry_space_group_name_H-M    P1
_symmetry_Int_Tables_number       1
_space_group_crystal_system       triclinic
_cell_length_a                    19.646901
_cell_length_b                    17.114097
_cell_length_c                    15.416351
_cell_angle_alpha                 89.975512
_cell_angle_beta                  52.58396
_cell_angle_gamma                 89.960228
_cell_volume                      4117.02758365

loop_
_atom_site_label
_atom_site_type_symbol
_atom_type_description
_atom_site_fract_x
_atom_site_fract_y
_atom_site_fract_z
_atom_type_partial_charge
C1    C     C_R   0.381466 0.199618 0.988107 0.704763
C2    C     C_R   0.659134 0.821923 0.957334 0.738492
C3    C     C_R   0.618506 0.199600 0.011829 0.704494
C4    C     C_R   0.340789 0.822184 0.043240 0.738690
C5    C     C_R   0.881645 0.699728 0.987811 0.701075
C6    C     C_R   0.159422 0.322322 0.956451 0.740412
C7    C     C_R   0.118921 0.699493 0.011642 0.706378
C8    C     C_R   0.840656 0.322300 0.043472 0.740385
C9    C     C_3   0.239352 0.221006 0.561185 -0.199964
C10   C     C_3   0.666875 0.728459 0.456637 -0.213205
C11   C     C_3   0.760916 0.220653 0.438478 -0.200319
C12   C     C_3   0.342611 0.715252 0.531986 -0.208541
C13   C     C_3   0.736413 0.716694 0.563716 -0.198818
C14   C     C_3   0.164708 0.224685 0.459986 -0.212703
C15   C     C_3   0.257217 0.728897 0.445535 -0.191283
C16   C     C_3   0.834880 0.225080 0.540502 -0.212642
C17   C     C_2   0.167210 0.755959 0.122065 0.192415
C18   C     C_2   0.700222 0.323420 0.063137 0.112002
C19   C     C_2   0.833981 0.757128 0.877306 0.192735
C20   C     C_2   0.300023 0.323533 0.936383 0.113828
C21   C     C_2   0.666956 0.256355 0.121781 0.195130
C22   C     C_2   0.199750 0.823392 0.064180 0.118624
C23   C     C_2   0.333253 0.256436 0.877830 0.194609
C24   C     C_2   0.799786 0.823585 0.937102 0.123461
C25   C     C_R   0.394452 0.801523 0.212468 -0.092670
C26   C     C_R   0.652643 0.170658 0.779179 -0.125363
C27   C     C_R   0.606602 0.801740 0.787118 -0.065635
C28   C     C_R   0.347327 0.170691 0.220833 -0.124351
C29   C     C_R   0.893627 0.301733 0.212765 -0.091008
C30   C     C_R   0.153284 0.669876 0.779202 -0.115926
C31   C     C_R   0.106338 0.301704 0.787289 -0.091077
C32   C     C_R   0.847066 0.670400 0.220496 -0.127570
C33   C     C_R   0.328156 0.915420 0.954391 -0.262661
C34   C     C_R   0.627420 0.114297 0.110813 -0.250277
C35   C     C_R   0.671150 0.914651 0.047242 -0.262981
C36   C     C_R   0.372670 0.114356 0.889065 -0.247111
C37   C     C_R   0.828175 0.415471 0.954401 -0.265944
C38   C     C_R   0.127428 0.614138 0.110886 -0.248017
C39   C     C_R   0.171877 0.415479 0.045474 -0.265216
C40   C     C_R   0.872573 0.614438 0.889125 -0.244826
C41   C     C_R   0.356207 0.078440 0.316579 -0.129373
C42   C     C_R   0.599796 0.894419 0.691165 -0.132263
C43   C     C_R   0.643799 0.078481 0.683412 -0.128101
C44   C     C_R   0.401535 0.894146 0.308113 -0.122887
C45   C     C_R   0.855535 0.578032 0.316298 -0.128280
C46   C     C_R   0.099479 0.394397 0.691373 -0.126775
C47   C     C_R   0.143803 0.578319 0.683370 -0.131228
C48   C     C_R   0.900450 0.394402 0.308676 -0.128724
C49   C     C_R   0.359049 0.192978 0.918908 -0.153546
C50   C     C_R   0.714157 0.851674 0.977324 -0.144689
C51   C     C_R   0.641040 0.192923 0.080900 -0.153283
C52   C     C_R   0.285064 0.852367 0.024482 -0.130933
C53   C     C_R   0.859213 0.693174 0.918675 -0.160171
C54   C     C_R   0.215000 0.352541 0.975290 -0.129189
C55   C     C_R   0.141296 0.692705 0.080924 -0.152633
C56   C     C_R   0.785106 0.352506 0.024530 -0.128359
C57   C     C_R   0.381304 0.817935 0.308721 0.014440
C58   C     C_R   0.694029 0.137419 0.677096 0.030912
C59   C     C_R   0.620935 0.818375 0.690218 0.015456
C60   C     C_R   0.305965 0.137443 0.322925 0.031111
C61   C     C_R   0.879490 0.318399 0.309494 0.018134
C62   C     C_R   0.194355 0.637026 0.676869 0.027930
C63   C     C_R   0.120418 0.318367 0.690586 0.017449
C64   C     C_R   0.805078 0.636838 0.322471 0.032664
C65   C     C_3   0.203754 0.148656 0.539716 -0.281461
C66   C     C_3   0.704256 0.797589 0.481155 -0.267242
C67   C     C_3   0.796732 0.148578 0.460257 -0.281991
C68   C     C_3   0.311409 0.793560 0.515317 -0.272498
C69   C     C_3   0.698935 0.647451 0.539682 -0.284224
C70   C     C_3   0.200204 0.296994 0.481998 -0.269859
C71   C     C_3   0.288694 0.650812 0.461286 -0.278592
C72   C     C_3   0.799165 0.297105 0.518188 -0.270292
C73   C     C_3   0.621587 0.698720 0.574582 0.264478
C74   C     C_3   0.279892 0.250624 0.445893 0.262832
C75   C     C_3   0.374973 0.689530 0.416455 0.260317
C76   C     C_3   0.719860 0.250353 0.553868 0.263491
C77   C     C_3   0.123339 0.195893 0.577374 0.264274
C78   C     C_3   0.780861 0.747274 0.447863 0.265515
C79   C     C_3   0.876768 0.196203 0.423022 0.264913
C80   C     C_3   0.225810 0.755629 0.558716 0.253088
C81   C     C_3   0.658453 0.766316 0.598181 0.102479
C82   C     C_3   0.245977 0.179485 0.423056 0.096489
C83   C     C_3   0.344020 0.765955 0.400743 0.101256
C84   C     C_3   0.753987 0.179485 0.576998 0.096748
C85   C     C_3   0.158344 0.266568 0.598481 0.102258
C86   C     C_3   0.745130 0.679159 0.422559 0.095727
C87   C     C_3   0.841550 0.266602 0.401614 0.102339
C88   C     C_3   0.255475 0.678694 0.576304 0.097915
H1    H     H_    0.394579 0.744095 0.183394 0.179122
H2    H     H_    0.673101 0.221189 0.799696 0.152237
H3    H     H_    0.606178 0.744233 0.816264 0.176076
H4    H     H_    0.326831 0.221243 0.200324 0.152168
H5    H     H_    0.893773 0.244273 0.183766 0.179570
H6    H     H_    0.174527 0.719684 0.799824 0.149503
H7    H     H_    0.106198 0.244238 0.816326 0.179683
H8    H     H_    0.826748 0.721003 0.199827 0.152411
H9    H     H_    0.306318 0.954319 0.920737 0.149539
H10   H     H_    0.627832 0.087791 0.174077 0.133443
H11   H     H_    0.692972 0.952962 0.081476 0.152694
H12   H     H_    0.372359 0.087879 0.825734 0.132824
H13   H     H_    0.806227 0.454241 0.920728 0.151708
H14   H     H_    0.127637 0.587573 0.174276 0.133040
H15   H     H_    0.193821 0.454266 0.079072 0.151314
H16   H     H_    0.871738 0.587886 0.826232 0.133867
H17   H     H_    0.345251 0.044257 0.382881 0.105129
H18   H     H_    0.593620 0.922749 0.633549 0.097740
H19   H     H_    0.654762 0.044432 0.617038 0.104394
H20   H     H_    0.407892 0.922721 0.365385 0.093843
H21   H     H_    0.844201 0.543884 0.382842 0.104746
H22   H     H_    0.093255 0.422782 0.633836 0.095474
H23   H     H_    0.154617 0.544079 0.617253 0.104266
H24   H     H_    0.906593 0.422780 0.366260 0.096173
H25   H     H_    0.203971 0.087197 0.562594 0.135556
H26   H     H_    0.708171 0.859456 0.456806 0.128840
H27   H     H_    0.796944 0.087046 0.437346 0.134283
H28   H     H_    0.319021 0.852537 0.538325 0.127953
H29   H     H_    0.695680 0.585305 0.562594 0.135866
H30   H     H_    0.200475 0.358171 0.457828 0.128514
H31   H     H_    0.281203 0.591611 0.438714 0.132132
H32   H     H_    0.798443 0.358356 0.542407 0.128873
H33   H     H_    0.268900 0.220144 0.603770 0.143794
H34   H     H_    0.638931 0.731507 0.412180 0.129814
H35   H     H_    0.731653 0.219490 0.395547 0.143759
H36   H     H_    0.376737 0.707509 0.568039 0.137446
H37   H     H_    0.763544 0.711988 0.608965 0.139539
H38   H     H_    0.134995 0.224239 0.417661 0.134296
H39   H     H_    0.222561 0.735134 0.409912 0.142548
H40   H     H_    0.864328 0.224946 0.583161 0.133996
N1    N     N_R   0.408680 0.130810 0.995780 -0.098378
N2    N     N_R   0.591320 0.869190 0.004220 -0.107424
N3    N     N_R   0.591320 0.130810 0.004220 -0.098411
N4    N     N_R   0.408680 0.869190 0.995780 -0.107469
N5    N     N_R   0.908680 0.630810 0.995780 -0.097469
N6    N     N_R   0.091320 0.369190 0.004220 -0.106868
N7    N     N_R   0.091320 0.630810 0.004220 -0.099208
N8    N     N_R   0.908680 0.369190 0.995780 -0.106840
N9    N     N_R   0.421410 0.867210 0.153620 -0.052297
N10   N     N_R   0.578590 0.132790 0.846380 -0.026759
N11   N     N_R   0.578590 0.867210 0.846380 -0.053491
N12   N     N_R   0.421410 0.132790 0.153620 -0.026594
N13   N     N_R   0.921410 0.367210 0.153620 -0.051988
N14   N     N_R   0.078590 0.632790 0.846380 -0.026941
N15   N     N_R   0.078590 0.367210 0.846380 -0.052082
N16   N     N_R   0.921410 0.632790 0.153620 -0.027183
N17   N     N_R   0.403840 0.921910 0.935760 -0.069566
N18   N     N_R   0.596160 0.078090 0.064240 -0.070490
N19   N     N_R   0.596160 0.921910 0.064240 -0.068788
N20   N     N_R   0.403840 0.078090 0.935760 -0.070185
N21   N     N_R   0.903840 0.421910 0.935760 -0.069243
N22   N     N_R   0.096160 0.578090 0.064240 -0.070375
N23   N     N_R   0.096160 0.421910 0.064240 -0.069198
N24   N     N_R   0.903840 0.578090 0.935760 -0.070255
N25   N     N_R   0.426250 0.076100 0.213650 -0.049685
N26   N     N_R   0.573750 0.923900 0.786350 -0.046418
N27   N     N_R   0.573750 0.076100 0.786350 -0.049584
N28   N     N_R   0.426250 0.923900 0.213650 -0.046114
N29   N     N_R   0.926250 0.576100 0.213650 -0.049281
N30   N     N_R   0.073750 0.423900 0.786350 -0.045671
N31   N     N_R   0.073750 0.576100 0.786350 -0.050400
N32   N     N_R   0.926250 0.423900 0.213650 -0.045779
Ni1   Ni    Ni4+2 0.500000 0.131570 0.000000 0.326471
Ni2   Ni    Ni4+2 0.500000 0.868430 0.000000 0.255578
Ni3   Ni    Ni4+2 0.000000 0.631570 0.000000 0.326065
Ni4   Ni    Ni4+2 0.000000 0.368430 0.000000 0.256867
Ni5   Ni    Ni4+2 0.488900 1.000000 0.862310 0.184470
Ni6   Ni    Ni4+2 0.511100 1.000000 0.137690 0.184138
Ni7   Ni    Ni4+2 0.988900 0.500000 0.862310 0.184780
Ni8   Ni    Ni4+2 0.011100 0.500000 0.137690 0.184674
F1    F     F_    0.405061 0.265520 0.011602 -0.705151
F2    F     F_    0.664592 0.752102 0.912596 -0.737216
F3    F     F_    0.594715 0.265514 0.988513 -0.705075
F4    F     F_    0.336924 0.751571 0.085291 -0.742386
F5    F     F_    0.905389 0.765800 0.010805 -0.708558
F6    F     F_    0.163596 0.251711 0.914254 -0.742644
F7    F     F_    0.096613 0.765639 0.986794 -0.705558
F8    F     F_    0.836567 0.251669 0.085625 -0.742859
N33   N     N_2   0.533669 0.672251 0.647546 -0.108775
H41   H     H_    0.519217 0.645889 0.717065 0.172656
C89   C     C_3   0.470027 0.728683 0.669883 -0.936572
H42   H     H_    0.406293 0.700008 0.716168 0.250290
H43   H     H_    0.485532 0.752030 0.592515 0.247573
H44   H     H_    0.466593 0.777569 0.719778 0.255209
N34   N     N_2   0.364749 0.284566 0.373369 -0.111776
H45   H     H_    0.382119 0.299874 0.297706 0.188496
C90   C     C_3   0.432025 0.247475 0.370822 -0.913858
H46   H     H_    0.491864 0.281425 0.316932 0.261356
H47   H     H_    0.443793 0.187280 0.338304 0.257630
H48   H     H_    0.415465 0.246389 0.453612 0.246603
N35   N     N_2   0.457188 0.653848 0.334987 -0.108706
H49   H     H_    0.462777 0.634626 0.267544 0.171519
C91   C     C_3   0.530800 0.697850 0.307161 -0.917752
H50   H     H_    0.589896 0.663073 0.250401 0.252615
H51   H     H_    0.525701 0.710454 0.381569 0.248024
H52   H     H_    0.536096 0.753546 0.266397 0.250580
N36   N     N_2   0.634776 0.283966 0.626102 -0.112119
H53   H     H_    0.616966 0.299122 0.702016 0.188441
C92   C     C_3   0.568005 0.246692 0.627831 -0.917040
H54   H     H_    0.507900 0.280324 0.681729 0.261533
H55   H     H_    0.556552 0.186369 0.659875 0.257824
H56   H     H_    0.584906 0.245908 0.544857 0.247202
N37   N     N_2   0.036966 0.166197 0.652946 -0.107536
H57   H     H_    0.025270 0.141859 0.722026 0.173045
C93   C     C_3   0.970000 0.218820 0.676661 -0.925935
H58   H     H_    0.907601 0.187679 0.725514 0.250871
H59   H     H_    0.982548 0.239500 0.599871 0.246216
H60   H     H_    0.965677 0.269770 0.724413 0.252582
N38   N     N_2   0.867319 0.778166 0.377558 -0.112104
H61   H     H_    0.887545 0.793327 0.300527 0.186597
C94   C     C_3   0.931250 0.738635 0.379772 -0.926813
H62   H     H_    0.992567 0.770681 0.327233 0.262570
H63   H     H_    0.941634 0.678252 0.348340 0.257873
H64   H     H_    0.912117 0.737657 0.463848 0.247269
N39   N     N_2   0.963355 0.166829 0.347802 -0.108072
H65   H     H_    0.975423 0.142273 0.278637 0.171958
C95   C     C_3   0.029890 0.219856 0.324331 -0.927428
H66   H     H_    0.092457 0.188931 0.275934 0.250668
H67   H     H_    0.016887 0.240907 0.401228 0.246333
H68   H     H_    0.034172 0.270547 0.276204 0.253078
N40   N     N_2   0.145325 0.795488 0.636590 -0.111346
H69   H     H_    0.135194 0.810478 0.708338 0.189870
C96   C     C_3   0.071025 0.763956 0.650651 -0.901703
H70   H     H_    0.013530 0.796935 0.715713 0.259075
H71   H     H_    0.061150 0.701809 0.675418 0.258361
H72   H     H_    0.078218 0.769742 0.573745 0.242207
N41   N     N_2   0.174799 0.738647 0.206884 -0.066804
H73   H     H_    0.163698 0.682316 0.235822 0.184582
C97   C     C_3   0.150424 0.798436 0.287894 -0.898033
H74   H     H_    0.205995 0.812152 0.287029 0.267495
H75   H     H_    0.097303 0.776743 0.370513 0.230996
H76   H     H_    0.128877 0.853180 0.272584 0.245830
N42   N     N_2   0.654502 0.366730 0.034721 -0.058494
H77   H     H_    0.691583 0.389708 0.956940 0.192514
C98   C     C_3   0.593791 0.422235 0.116647 -0.789480
H78   H     H_    0.558762 0.450969 0.089777 0.253576
H79   H     H_    0.627708 0.467722 0.128695 0.221477
H80   H     H_    0.546252 0.392071 0.195220 0.240321
N43   N     N_2   0.828179 0.741068 0.790662 -0.064653
H81   H     H_    0.850118 0.687215 0.754091 0.175326
C99   C     C_3   0.854286 0.803104 0.711957 -0.858179
H82   H     H_    0.840739 0.785544 0.654658 0.239123
H83   H     H_    0.923922 0.814358 0.664162 0.230949
H84   H     H_    0.818526 0.857917 0.752455 0.248975
N44   N     N_2   0.345893 0.366869 0.964482 -0.057916
H85   H     H_    0.308939 0.390450 0.041901 0.192502
C100  C     C_3   0.407337 0.421542 0.881772 -0.793934
H86   H     H_    0.442385 0.450328 0.908532 0.254192
H87   H     H_    0.374060 0.467060 0.868616 0.220898
H88   H     H_    0.454779 0.390634 0.803823 0.240454
N45   N     N_2   0.674079 0.239314 0.207055 -0.067608
H89   H     H_    0.662922 0.183023 0.236140 0.183518
C101  C     C_3   0.648774 0.299089 0.288381 -0.894507
H90   H     H_    0.702484 0.310283 0.292246 0.267152
H91   H     H_    0.592588 0.278681 0.369864 0.230716
H92   H     H_    0.631353 0.354993 0.269781 0.246279
N46   N     N_2   0.152491 0.867244 0.038457 -0.058642
H93   H     H_    0.188310 0.895730 0.964397 0.190610
C102  C     C_3   0.084916 0.915058 0.126844 -0.786986
H94   H     H_    0.049514 0.944450 0.100941 0.253605
H95   H     H_    0.112421 0.960355 0.149028 0.218435
H96   H     H_    0.038824 0.878399 0.199261 0.241473
N47   N     N_2   0.326091 0.239384 0.792604 -0.067648
H97   H     H_    0.337392 0.183112 0.763440 0.183497
C103  C     C_3   0.351021 0.299216 0.711447 -0.894767
H98   H     H_    0.297018 0.310569 0.708189 0.267499
H99   H     H_    0.406928 0.278779 0.629762 0.230676
H100  H     H_    0.368716 0.355036 0.729772 0.245958
N48   N     N_2   0.846275 0.868251 0.963049 -0.057537
H101  H     H_    0.810458 0.884919 0.043864 0.199761
C104  C     C_3   0.894018 0.932668 0.889317 -0.812712
H102  H     H_    0.933813 0.960192 0.909757 0.255430
H103  H     H_    0.849576 0.977338 0.896933 0.228107
H104  H     H_    0.937109 0.911854 0.803575 0.241035

loop_
_geom_bond_atom_site_label_1
_geom_bond_atom_site_label_2
_ccdc_geom_bond_type
N10   N27   A    
C68   C80   S    
C103  H100  S    
C29   H5    S    
C93   H58   S    
N46   C102  S    
C13   C81   S    
N25   Ni6   S    
C20   N44   S    
C18   C21   D    
N37   C93   S    
N37   H57   S    
C99   H82   S    
C28   N12   A    
C7    C55   A    
N14   N31   A    
C72   C76   S    
C5    F5    S    
C102  H96   S    
C8    C56   A    
C80   N40   S    
C79   C87   S    
N8    N21   A    
C90   H46   S    
C103  H98   S    
C4    N4    A    
C71   C75   S    
C47   N31   A    
N39   H65   S    
C33   C52   A    
C5    N5    A    
C12   C68   S    
C34   C51   A    
C10   C66   S    
C41   H17   S    
C4    C52   A    
C3    N3    A    
N4    N17   A    
C5    C53   A    
C42   N26   A    
C6    C54   A    
C96   H72   S    
C1    N1    A    
C11   C76   S    
C19   N43   S    
C21   N45   S    
N9    Ni2   S    
C10   C73   S    
C45   H21   S    
C23   C49   S    
C39   C54   A    
C8    N8    A    
C23   N47   S    
N23   Ni8   S    
C46   N30   A    
N43   C99   S    
C39   N23   A    
C16   C84   S    
C94   H64   S    
C104  H102  S    
C40   N24   A    
N3    N18   A    
C92   H55   S    
C102  H94   S    
C14   C77   S    
C73   C81   S    
N35   C91   S    
C67   H27   S    
C78   N38   S    
N1    N20   A    
C69   H29   S    
C61   C87   S    
C43   C58   A    
C9    C85   S    
C37   C56   A    
C17   N41   S    
C36   N20   A    
C38   C55   A    
C97   H74   S    
C11   C87   S    
N33   C89   S    
C16   C72   S    
C70   C74   S    
C9    H33   S    
C48   N32   A    
C98   H79   S    
N26   Ni5   S    
C27   H3    S    
N7    Ni3   S    
N10   Ni1   S    
C2    C50   A    
C98   H78   S    
C17   C55   S    
C76   N36   S    
C18   C56   S    
N12   N25   A    
C21   C51   S    
C47   C62   A    
C73   N33   S    
N2    Ni2   S    
C28   C60   A    
C19   C53   S    
N18   Ni6   S    
C29   N13   A    
C67   C84   S    
C96   H71   S    
C15   H39   S    
C100  H86   S    
C63   C85   S    
N20   Ni5   S    
C14   C70   S    
C76   C84   S    
C92   H54   S    
N5    N24   A    
C60   C82   S    
C74   C82   S    
C43   N27   A    
N5    Ni3   S    
N29   Ni8   S    
C64   C86   S    
C11   C67   S    
N30   Ni7   S    
N41   H73   S    
C41   N25   A    
C44   H20   S    
C24   C50   S    
N41   C97   S    
C93   H60   S    
C29   C61   A    
N45   C101  S    
C65   C77   S    
C12   C88   S    
C4    F4    S    
N1    Ni1   S    
N38   H61   S    
C25   C57   A    
C75   C83   S    
C31   C63   A    
N36   H53   S    
C101  H90   S    
C45   N29   A    
C32   C64   A    
N42   C98   S    
C30   N14   A    
C95   H68   S    
C26   C58   A    
N40   H69   S    
N47   C103  S    
C104  H103  S    
C3    C51   A    
C90   H48   S    
C35   N19   A    
C74   N34   S    
C6    F6    S    
N11   N26   A    
C26   N10   A    
N12   Ni1   S    
C62   C88   S    
C99   H83   S    
N3    Ni1   S    
C27   N11   A    
C91   H50   S    
N9    N28   A    
C7    F7    S    
C102  H95   S    
C44   N28   A    
C92   H56   S    
C25   N9    A    
N34   H45   S    
C91   H51   S    
C7    N7    A    
C96   H70   S    
N19   Ni6   S    
C58   C84   S    
N40   C96   S    
N34   C90   S    
C93   H59   S    
C6    N6    A    
N13   N32   A    
C15   C80   S    
C12   H36   S    
C20   C23   D    
N28   Ni6   S    
C44   C57   A    
N48   H101  S    
N22   Ni8   S    
C72   H32   S    
C35   C50   A    
C57   C83   S    
C94   H62   S    
N45   H89   S    
C67   C79   S    
C36   H12   S    
C43   H19   S    
C69   C73   S    
C71   C88   S    
C35   H11   S    
N39   C95   S    
C22   N46   S    
C79   N39   S    
C33   N17   A    
C2    F2    S    
N17   Ni5   S    
C66   C78   S    
C20   C54   S    
C32   H8    S    
C42   H18   S    
C68   H28   S    
C40   C53   A    
C100  H87   S    
N16   Ni3   S    
C100  H88   S    
C90   H47   S    
C9    C74   S    
C14   C82   S    
N46   H93   S    
N15   Ni4   S    
N14   Ni3   S    
C72   C87   S    
N21   Ni7   S    
N15   N30   A    
C22   C52   S    
N8    Ni4   S    
C103  H99   S    
C13   C78   S    
C10   C86   S    
C66   H26   S    
C16   H40   S    
C75   N35   S    
N2    N19   A    
C104  H104  S    
C68   C83   S    
C65   H25   S    
N11   Ni2   S    
C11   H35   S    
C59   C81   S    
C41   C60   A    
C37   N21   A    
C10   H34   S    
C77   N37   S    
C42   C59   A    
C15   C83   S    
C24   N48   S    
C8    F8    S    
C39   H15   S    
C80   C88   S    
C26   H2    S    
N7    N22   A    
C15   C71   S    
C45   C64   A    
C25   H1    S    
C17   C22   D    
C14   H38   S    
C71   H31   S    
C46   C63   A    
C18   N42   S    
C16   C79   S    
N31   Ni7   S    
C89   H44   S    
C30   C62   A    
C40   H16   S    
C91   H52   S    
C13   H37   S    
C38   H14   S    
C46   H22   S    
C27   C59   A    
C34   N18   A    
C66   C81   S    
C37   H13   S    
N48   C104  S    
N4    Ni2   S    
C3    F3    S    
C65   C82   S    
N47   H97   S    
C13   C69   S    
N27   Ni5   S    
C47   H23   S    
N6    N23   A    
C1    F1    S    
C34   H10   S    
C2    N2    A    
N6    Ni4   S    
C19   C24   D    
C99   H84   S    
C33   H9    S    
N32   Ni8   S    
C95   H66   S    
C31   N15   A    
N35   H49   S    
C101  H92   S    
C98   H80   S    
C9    C65   S    
C32   N16   A    
C95   H67   S    
C101  H91   S    
C31   H7    S    
N33   H41   S    
C77   C85   S    
C89   H42   S    
C28   H4    S    
C69   C86   S    
C70   H30   S    
C97   H76   S    
N24   Ni7   S    
N13   Ni4   S    
C30   H6    S    
C78   C86   S    
C12   C75   S    
C48   C61   A    
N42   H77   S    
N38   C94   S    
C94   H63   S    
C48   H24   S    
N44   C100  S    
C97   H75   S    
C89   H43   S    
N16   N29   A    
N43   H81   S    
C70   C85   S    
C1    C49   A    
C38   N22   A    
C36   C49   A    
N44   H85   S    
N36   C92   S    
