data_mof_unit_13975.cif
_audit_creation_date              2013-03-05T15:49:44-0500
_audit_creation_method            fapswitch 2.2
_symmetry_space_group_name_H-M    P1
_symmetry_Int_Tables_number       1
_space_group_crystal_system       triclinic
_cell_length_a                    13.60421
_cell_length_b                    13.676071
_cell_length_c                    27.375614
_cell_angle_alpha                 90.65333
_cell_angle_beta                  89.000392
_cell_angle_gamma                 60.817891
_cell_volume                      4444.98918941

loop_
_atom_site_label
_atom_site_type_symbol
_atom_site_description
_atom_site_fract_x
_atom_site_fract_y
_atom_site_fract_z
_atom_type_partial_charge
O1    O     O_R   0.301780 0.195490 0.553940 -0.492408
O2    O     O_R   0.522450 0.158840 0.550250 -0.487918
C1    C     C_R   0.617818 0.099123 0.570510 0.552637
O3    O     O_R   0.694460 0.003360 0.553820 -0.494006
O4    O     O_R   0.657750 0.819520 0.549120 -0.498633
C2    C     C_R   0.597678 0.780921 0.568265 0.556654
O5    O     O_R   0.501990 0.803120 0.552700 -0.481168
O6    O     O_R   0.318230 0.023430 0.549370 -0.488068
C3    C     C_R   0.278257 0.121674 0.569555 0.544593
O7    O     O_R   0.302950 0.194150 0.446980 -0.509585
O8    O     O_R   0.523540 0.157600 0.451100 -0.494573
C4    C     C_R   0.623286 0.099181 0.431786 0.582113
O9    O     O_R   0.695630 0.002030 0.446860 -0.469475
O10   O     O_R   0.658840 0.818280 0.449970 -0.448610
C5    C     C_R   0.604265 0.773107 0.431116 0.625731
O11   O     O_R   0.503160 0.801780 0.445740 -0.413344
O12   O     O_R   0.319320 0.022190 0.450230 -0.448437
C6    C     C_R   0.278995 0.120424 0.431518 0.558475
Cr1   Cr    Cr6+3 0.417550 0.169090 0.500530 1.101957
Cr2   Cr    Cr6+3 0.669180 0.913420 0.499920 1.155663
Cr3   Cr    Cr6+3 0.413260 0.917540 0.499520 1.179330
O13   O     O_3   0.499990 0.000010 0.499990 -0.298225
C7    C     C_3   0.772148 0.571501 0.725216 0.266976
C8    C     C_3   0.785662 0.647312 0.763593 0.179118
H1    H     H_    0.681242 0.829211 0.735952 0.214709
C9    C     C_1   0.711452 0.592644 0.896464 0.072404
C10   C     C_1   0.625497 0.734092 0.615374 0.104619
C11   C     C_3   0.696857 0.552565 0.762355 0.201570
C12   C     C_3   0.711608 0.626561 0.800811 -0.024099
C13   C     C_3   0.590652 0.652353 0.743788 -0.082257
C14   C     C_3   0.666048 0.674283 0.707809 -0.022639
C15   C     C_3   0.605878 0.728049 0.782144 -0.115774
C16   C     C_3   0.681277 0.750454 0.745257 -0.078558
C17   C     C_1   0.714838 0.609392 0.853568 0.084224
C18   C     C_1   0.643268 0.704704 0.656829 0.119127
H2    H     H_    0.537457 0.785560 0.807736 0.180500
H3    H     H_    0.511248 0.652315 0.735193 0.220334
C19   C     C_3   0.109505 0.134733 0.743330 0.204123
C20   C     C_3   0.203361 0.053053 0.776836 -0.137245
H4    H     H_    0.220080 0.968503 0.787773 0.164365
C21   C     C_1   0.116724 0.189967 0.905014 0.074537
C22   C     C_1   0.233079 0.139413 0.618491 0.101878
C23   C     C_3   0.085662 0.232998 0.778879 0.235917
C24   C     C_3   0.179022 0.151794 0.811759 -0.092333
C25   C     C_3   0.171440 0.256251 0.750724 0.220956
C26   C     C_3   0.194785 0.158181 0.714910 -0.013122
C27   C     C_3   0.264643 0.174639 0.784349 -0.150477
C28   C     C_3   0.286754 0.078285 0.748277 0.182116
C29   C     C_1   0.155141 0.164160 0.864201 0.040075
C30   C     C_1   0.209665 0.151529 0.661557 0.133062
H5    H     H_    0.328324 0.188213 0.803314 0.184778
C31   C     C_3   0.621843 0.258196 0.740471 0.250721
C32   C     C_3   0.543196 0.257368 0.780852 0.222614
H6    H     H_    0.467292 0.151703 0.747707 0.221944
C33   C     C_1   0.688208 0.203328 0.903432 0.066520
C34   C     C_1   0.624109 0.125181 0.620482 0.090477
C35   C     C_3   0.725839 0.181321 0.770475 -0.038685
C36   C     C_3   0.645369 0.179792 0.810800 -0.031306
C37   C     C_3   0.728524 0.077051 0.746336 -0.115368
C38   C     C_3   0.625714 0.155187 0.716517 -0.014913
C39   C     C_3   0.647976 0.076244 0.786942 -0.134107
C40   C     C_3   0.544144 0.154961 0.756340 -0.081056
C41   C     C_1   0.664788 0.191520 0.862402 0.049064
C42   C     C_1   0.624088 0.140306 0.663749 0.081129
H7    H     H_    0.660861 0.001205 0.807150 0.186482
H8    H     H_    0.804059 0.001918 0.731074 0.209138
H9    H     H_    0.800770 0.188127 0.779943 0.263308
C43   C     C_R   0.646503 0.711758 0.383386 0.018406
C44   C     C_R   0.717680 0.737142 0.354225 0.187825
C45   C     C_R   0.704317 0.743640 0.303844 -0.062597
C46   C     C_R   0.640673 0.702191 0.280473 0.000792
C47   C     C_R   0.592178 0.651652 0.309211 0.008265
C48   C     C_R   0.591799 0.658350 0.360435 0.238908
C49   C     C_R   0.547605 0.730653 0.195614 0.274564
C50   C     C_R   0.566725 0.715237 0.143792 0.238208
C51   C     C_R   0.765696 0.650238 0.153722 0.218335
C52   C     C_R   0.749306 0.662126 0.203681 -0.135376
C53   C     C_R   0.643449 0.696598 0.225911 -0.029868
C54   C     C_R   0.678799 0.655846 0.124989 -0.008887
H10   H     H_    0.747987 0.777487 0.282468 0.180185
H11   H     H_    0.822241 0.641866 0.225454 0.163890
H12   H     H_    0.550729 0.610799 0.292133 0.249196
C55   C     C_R   0.241601 0.136495 0.381196 0.004970
C56   C     C_R   0.133719 0.220820 0.370124 -0.136492
C57   C     C_R   0.106318 0.248354 0.321578 -0.099229
C58   C     C_R   0.188721 0.196956 0.284232 -0.001786
C59   C     C_R   0.301317 0.121831 0.295489 0.292876
C60   C     C_R   0.325005 0.087312 0.343900 0.234605
C61   C     C_R   0.176892 0.269526 0.201689 -0.095465
C62   C     C_R   0.153078 0.271555 0.152638 -0.102108
C63   C     C_R   0.077274 0.145387 0.166973 0.216501
C64   C     C_R   0.104617 0.140105 0.216689 0.298776
C65   C     C_R   0.152814 0.204994 0.233757 0.005279
C66   C     C_R   0.098799 0.214107 0.134959 -0.022641
H13   H     H_    0.070684 0.263507 0.398871 0.153423
H14   H     H_    0.215342 0.317759 0.214719 0.195173
H15   H     H_    0.172409 0.322961 0.128834 0.202173
H16   H     H_    0.020238 0.307567 0.312831 0.175744
C67   C     C_R   0.646379 0.135053 0.384658 0.039785
C68   C     C_R   0.557423 0.222042 0.360215 -0.081098
C69   C     C_R   0.569656 0.238675 0.311135 -0.003064
C70   C     C_R   0.671171 0.169393 0.285730 0.087335
C71   C     C_R   0.762114 0.086170 0.310444 -0.035389
C72   C     C_R   0.750453 0.070485 0.359966 -0.057190
C73   C     C_R   0.708211 0.092190 0.201088 -0.068576
C74   C     C_R   0.708679 0.105622 0.150499 0.250100
C75   C     C_R   0.614689 0.306261 0.164495 0.189595
C76   C     C_R   0.640465 0.291497 0.214063 0.212839
C77   C     C_R   0.679039 0.183772 0.233065 -0.026527
C78   C     C_R   0.669854 0.214007 0.132120 0.010021
H17   H     H_    0.475985 0.273118 0.378065 0.137676
H18   H     H_    0.733018 0.010182 0.215577 0.182868
H19   H     H_    0.498504 0.303492 0.292491 0.177729
H20   H     H_    0.840968 0.032278 0.291235 0.172858
H21   H     H_    0.820922 0.004244 0.378265 0.191761
O14   O     O_R   0.819250 0.149410 0.965240 -0.492014
O15   O     O_R   0.006940 0.180310 0.968270 -0.495800
C79   C     C_R   0.053825 0.233175 0.949633 0.558777
O16   O     O_R   0.028420 0.332670 0.963010 -0.480764
O17   O     O_R   0.810130 0.520390 0.966030 -0.482480
C80   C     C_R   0.714891 0.558634 0.945889 0.564905
O18   O     O_R   0.636050 0.541380 0.962520 -0.476213
O19   O     O_R   0.666480 0.323610 0.968170 -0.482531
C81   C     C_R   0.723262 0.223800 0.949616 0.562171
O20   O     O_R   0.817280 0.156800 0.072180 -0.420001
O21   O     O_R   0.005110 0.187160 0.067410 -0.457159
C82   C     C_R   0.045404 0.245651 0.086873 0.552125
O22   O     O_R   0.026450 0.340060 0.069950 -0.478634
O23   O     O_R   0.808300 0.527240 0.065170 -0.445239
C83   C     C_R   0.707033 0.576952 0.082727 0.595128
O24   O     O_R   0.634070 0.548770 0.069460 -0.428739
O25   O     O_R   0.664650 0.330470 0.067300 -0.461351
C84   C     C_R   0.716785 0.232027 0.086158 0.601653
Cr4   Cr    Cr6+3 0.909770 0.175810 0.018240 1.148718
Cr5   Cr    Cr6+3 0.913300 0.427650 0.016090 1.141362
Cr6   Cr    Cr6+3 0.657770 0.431010 0.016900 1.167096
O26   O     O_3   0.826940 0.344820 0.017080 -0.322411
N1    N     N_R   0.889253 0.648944 0.774253 0.133137
O27   O     O_R   0.941638 0.671489 0.739797 -0.250075
O28   O     O_R   0.920602 0.643949 0.819179 -0.267115
S1    S     S_3+6 0.179712 0.379861 0.737236 0.125118
O29   O     O_2   0.298408 0.345652 0.721058 -0.280586
O30   O     O_2   0.102936 0.444615 0.697184 -0.154560
O31   O     O_3   0.146880 0.460745 0.788089 -0.392377
H22   H     H_    0.168736 0.518245 0.780368 0.408382
N2    N     N_R   0.977418 0.314526 0.800374 0.135512
O32   O     O_R   0.920661 0.279445 0.826637 -0.319000
O33   O     O_R   0.953731 0.418311 0.804892 -0.251427
N3    N     N_R   0.443511 0.350609 0.804000 0.127029
O34   O     O_R   0.420640 0.453467 0.797564 -0.219492
O35   O     O_R   0.387071 0.330088 0.837284 -0.318950
N4    N     N_R   0.605729 0.350785 0.709374 0.131116
O36   O     O_R   0.511986 0.445217 0.711635 -0.249201
O37   O     O_R   0.675276 0.331398 0.672679 -0.229114
N5    N     N_R   0.804666 0.754484 0.374967 0.103000
O38   O     O_R   0.843326 0.811420 0.351575 -0.341743
O39   O     O_R   0.862124 0.693185 0.411018 -0.301585
S2    S     S_3+6 0.861170 0.478610 0.677276 0.124199
O40   O     O_2   0.953774 0.373622 0.697478 -0.203548
O41   O     O_2   0.791682 0.448301 0.644838 -0.218725
O42   O     O_3   0.914867 0.544733 0.643887 -0.472893
H23   H     H_    0.952694 0.494239 0.615299 0.373968
S3    S     S_3+6 0.409837 0.779350 0.222263 0.155556
O43   O     O_2   0.394410 0.679284 0.231012 -0.209321
O44   O     O_2   0.398589 0.837994 0.270236 -0.174054
O45   O     O_3   0.304042 0.869331 0.187852 -0.386382
H24   H     H_    0.250478 0.839992 0.186319 0.411101
S4    S     S_3+6 0.456984 0.783139 0.100889 0.109986
O46   O     O_2   0.395743 0.907061 0.111520 -0.226465
O47   O     O_2   0.504075 0.765484 0.049461 -0.269589
O48   O     O_3   0.365756 0.733582 0.104426 -0.437320
H25   H     H_    0.303350 0.782116 0.083030 0.378599
S5    S     S_3+6 0.892778 0.637945 0.129399 0.082587
O49   O     O_2   0.928127 0.706012 0.160613 -0.207244
O50   O     O_2   0.982972 0.517653 0.130092 -0.291525
O51   O     O_3   0.875533 0.684645 0.071895 -0.471194
H26   H     H_    0.949530 0.676199 0.061680 0.373118
S6    S     S_3+6 0.520100 0.601349 0.394024 0.077674
O52   O     O_2   0.572214 0.564088 0.443051 -0.265324
O53   O     O_2   0.398576 0.689177 0.400972 -0.199344
O54   O     O_3   0.526983 0.491171 0.363129 -0.482899
H27   H     H_    0.478523 0.469450 0.382304 0.363332
S7    S     S_3+6 0.071962 0.058597 0.258022 0.073962
O55   O     O_2   0.164434 0.001300 0.293820 -0.223604
O56   O     O_2   0.965058 0.136751 0.285649 -0.289716
O57   O     O_3   0.053592 0.959607 0.229221 -0.444561
H28   H     H_    0.042345 0.916937 0.255666 0.374796
N6    N     N_R   0.019292 0.088616 0.150188 0.133265
O58   O     O_R   0.916621 0.122250 0.165495 -0.319039
O59   O     O_R   0.071548 0.998608 0.122720 -0.250109
S8    S     S_3+6 0.411598 0.076490 0.249878 0.052450
O60   O     O_2   0.428531 0.174451 0.238222 -0.344262
O61   O     O_2   0.521271 0.982162 0.266382 -0.227057
O62   O     O_3   0.375689 0.034574 0.198619 -0.446478
H29   H     H_    0.424081 0.039945 0.172526 0.393507
N7    N     N_R   0.429465 0.992666 0.354693 0.098903
O63   O     O_R   0.513865 0.004493 0.368675 -0.351560
O64   O     O_R   0.432575 0.896910 0.358507 -0.279581
S9    S     S_3+6 0.750449 0.987453 0.111550 0.096058
O65   O     O_2   0.876866 0.922639 0.108126 -0.172557
O66   O     O_2   0.706756 0.914448 0.132505 -0.245806
O67   O     O_3   0.698798 0.027102 0.055476 -0.512119
H30   H     H_    0.728934 0.956459 0.035962 0.379878
N8    N     N_R   0.637738 0.382071 0.242931 0.099227
O68   O     O_R   0.615624 0.475127 0.222008 -0.315157
O69   O     O_R   0.687006 0.362470 0.284794 -0.291261
S10   S     S_3+6 0.487104 0.423281 0.147318 0.105921
O70   O     O_2   0.401723 0.456959 0.188620 -0.211093
O71   O     O_2   0.506811 0.519412 0.136323 -0.183510
O72   O     O_3   0.437298 0.390565 0.097548 -0.509844
H31   H     H_    0.368091 0.460533 0.089717 0.377391
N9    N     N_R   0.707653 0.445251 0.773803 0.124988
O73   O     O_R   0.784617 0.356734 0.751094 -0.222242
O74   O     O_R   0.648749 0.436086 0.809582 -0.315382
S11   S     S_3+6 0.023501 0.086378 0.715003 0.064098
O75   O     O_2   0.921934 0.181227 0.693178 -0.140281
O76   O     O_2   0.090945 0.002910 0.674992 -0.252807
O77   O     O_3   0.983851 0.022813 0.756945 -0.548568
H32   H     H_    0.050319 0.947845 0.760662 0.365602
S12   S     S_3+6 0.422202 0.976880 0.729065 -0.047858
O78   O     O_2   0.419817 0.870894 0.717047 -0.280135
O79   O     O_2   0.460777 0.014176 0.684789 -0.303312
O80   O     O_3   0.505465 0.962359 0.776091 -0.601657
H33   H     H_    0.458182 0.977401 0.806124 0.326633

loop_
_geom_bond_atom_site_label_1
_geom_bond_atom_site_label_2
_geom_bond_distance
_ccdc_geom_bond_type
C24   C29   1.455943 S    
O20   Cr4   2.023410 S    
C32   N3    1.460127 S    
O48   H25   0.990510 S    
N5    O38   1.300775 A    
C69   C70   1.401469 A    
C55   C60   1.407828 A    
N5    O39   1.301761 A    
C70   C71   1.399067 A    
C69   H19   1.083541 S    
C60   N7    1.418398 S    
O80   H33   0.990301 S    
C51   C54   1.402675 A    
C52   C53   1.402612 A    
C19   S11   1.783859 S    
C63   N6    1.427543 S    
Cr4   O26   2.018990 S    
S12   O79   1.502551 D    
S6    O52   1.503377 D    
C35   C36   1.548605 S    
N1    O27   1.300050 A    
O19   C81   1.288490 A    
O4    Cr2   1.927243 S    
S5    O49   1.503577 D    
C31   C32   1.528963 S    
C4    O9    1.286741 A    
O8    Cr1   1.908144 S    
C3    C22   1.431694 S    
O21   C82   1.285440 A    
C15   H2    1.107525 S    
N6    O59   1.301134 A    
C11   C12   1.534196 S    
S3    O44   1.496877 D    
N2    O32   1.301170 A    
C12   C15   1.533457 S    
S7    O56   1.502268 D    
C37   H8    1.109904 S    
C57   C58   1.403996 A    
C13   C14   1.543901 S    
S4    O47   1.503581 D    
C35   C37   1.548661 S    
O14   Cr4   2.058137 S    
C5    O11   1.287302 A    
C49   S3    1.792332 S    
C7    S2    1.791403 S    
S11   O77   1.680302 S    
C76   C77   1.410510 A    
C38   C40   1.543084 S    
C32   C40   1.540310 S    
C79   O16   1.276977 A    
C64   C65   1.415777 A    
C4    C67   1.467823 S    
C57   H16   1.083465 S    
C31   C38   1.524075 S    
S2    O42   1.681246 S    
C6    C55   1.458485 S    
O23   Cr5   1.922186 S    
S4    O46   1.501467 D    
C9    C17   1.203364 T    
S4    O48   1.681233 S    
S3    O43   1.503325 D    
O25   C84   1.295981 A    
C33   C41   1.203211 T    
S10   O72   1.682138 S    
C7    C8    1.542809 S    
C34   C42   1.200037 T    
C71   H20   1.082116 S    
C50   S4    1.790174 S    
C9    C80   1.429898 S    
C21   C79   1.423846 S    
C62   H15   1.082968 S    
C75   S10   1.769684 S    
S11   O76   1.503214 D    
C24   C27   1.532049 S    
O25   Cr6   1.930102 S    
C47   C48   1.403993 A    
C36   C39   1.536991 S    
S5    O50   1.498469 D    
O62   H29   0.990441 S    
S9    O65   1.502698 D    
N9    O73   1.293182 A    
Cr3   O13   1.990557 S    
S2    O41   1.502351 D    
C2    C10   1.419876 S    
C39   C40   1.560462 S    
C35   H9    1.102803 S    
O15   Cr4   1.908070 S    
C21   C29   1.198662 T    
S12   O78   1.498542 D    
C62   C66   1.402254 A    
C2    O5    1.266971 A    
N2    O33   1.297046 A    
C25   C27   1.544302 S    
C19   C20   1.546866 S    
C26   C28   1.524202 S    
O1    Cr1   2.025283 S    
C37   C39   1.551173 S    
O67   H30   0.990561 S    
O15   C79   1.279303 A    
C45   H10   1.082544 S    
S8    O60   1.502619 D    
C27   C28   1.541257 S    
O10   Cr2   1.930595 S    
S3    O45   1.679230 S    
O1    C3    1.274497 A    
C51   C52   1.376810 A    
N7    O64   1.294938 A    
O24   Cr6   2.047576 S    
C49   C50   1.432318 A    
S7    O57   1.682065 S    
C63   C64   1.410549 A    
C58   C59   1.409213 A    
O6    C3    1.290885 A    
C27   H5    1.106746 S    
H6    C40   1.097595 S    
C8    N1    1.454858 S    
C43   C48   1.420581 A    
O54   H27   0.990389 S    
C54   C83   1.483958 S    
C12   C17   1.463836 S    
C61   C65   1.395126 A    
O16   Cr5   2.035987 S    
C19   C23   1.546722 S    
S10   O70   1.503442 D    
C13   H3    1.109804 S    
N6    O58   1.298745 A    
C56   H13   1.083169 S    
C7    C14   1.532013 S    
C23   C24   1.530975 S    
S8    O61   1.501417 D    
S7    O55   1.502072 D    
C58   C65   1.461066 S    
C39   H7    1.109426 S    
S9    O67   1.682028 S    
C72   H21   1.082075 S    
C28   S12   1.747245 S    
C1    C34   1.424250 S    
C83   O24   1.283819 A    
C55   C56   1.395983 A    
C52   H11   1.082982 S    
O7    Cr1   2.065738 S    
C31   N4    1.461700 S    
Cr1   O13   2.018579 S    
C14   C16   1.540327 S    
O12   C6    1.294221 A    
C37   C38   1.538433 S    
C44   N5    1.439829 S    
C7    C11   1.542155 S    
C56   C57   1.392410 A    
C23   C25   1.546946 S    
O18   Cr6   2.052688 S    
C80   O18   1.282802 A    
C45   C46   1.403580 A    
N1    O28   1.300361 A    
C22   C30   1.204095 T    
C48   S6    1.769503 S    
O51   H26   0.990449 S    
C73   H18   1.083889 S    
N8    O69   1.301178 A    
S2    O40   1.494324 D    
C75   C78   1.403014 A    
C14   C18   1.455841 S    
S1    O31   1.680046 S    
Cr2   O13   2.010457 S    
C75   C76   1.399619 A    
S9    O66   1.503052 D    
C82   O22   1.281137 A    
C68   H17   1.082966 S    
C20   H4    1.110061 S    
O17   C80   1.275519 A    
C59   S8    1.790030 S    
O23   C83   1.283442 A    
C74   C78   1.411425 A    
S5    O51   1.682472 S    
O20   C84   1.294266 A    
C36   C41   1.462973 S    
Cr5   O26   1.990391 S    
C73   C77   1.403805 A    
C33   C81   1.430893 S    
C51   S5    1.770432 S    
O14   C81   1.287266 A    
O9    Cr2   2.038395 S    
O2    Cr1   1.945738 S    
C43   C44   1.415121 A    
N4    O37   1.300261 A    
N7    O63   1.298475 A    
C70   C77   1.466393 S    
C64   S7    1.792888 S    
O6    Cr3   1.923151 S    
S6    O53   1.503152 D    
C32   C36   1.533398 S    
O11   Cr3   2.040966 S    
C20   C24   1.539710 S    
C11   N9    1.440698 S    
C73   C74   1.399412 A    
C26   C30   1.466683 S    
C25   S1    1.790262 S    
C8    C16   1.531635 S    
C67   C68   1.403582 A    
C38   C42   1.458574 S    
O19   Cr6   1.931611 S    
O31   H22   0.990493 S    
O17   Cr5   1.956383 S    
C10   C18   1.197106 T    
C15   C16   1.563049 S    
C61   H14   1.083330 S    
N3    O35   1.300031 A    
O2    C1    1.288411 A    
O57   H28   0.990400 S    
S8    O62   1.677824 S    
C74   S9    1.765093 S    
S1    O30   1.495828 D    
C76   N8    1.446411 S    
C23   N2    1.453136 S    
O5    Cr3   2.072795 S    
S1    O29   1.502035 D    
C63   C66   1.419610 A    
C13   C15   1.552107 S    
O77   H32   0.990301 S    
O4    C2    1.278002 A    
O45   H24   0.989726 S    
O42   H23   0.990583 S    
O7    C6    1.271827 A    
C5    C43   1.489985 S    
C11   C13   1.525439 S    
C68   C69   1.385917 A    
C67   C72   1.405371 A    
C46   C53   1.493616 S    
S11   O75   1.499143 D    
C66   C82   1.478968 S    
C44   C45   1.392459 A    
O22   Cr5   2.073582 S    
O12   Cr3   1.955215 S    
C19   C26   1.546331 S    
S6    O54   1.680815 S    
C31   C35   1.546399 S    
N9    O74   1.300236 A    
O3    Cr2   2.048734 S    
C25   C26   1.550726 S    
C8    C12   1.543755 S    
C46   C47   1.403883 A    
N8    O68   1.299034 A    
O21   Cr4   1.941838 S    
C59   C60   1.401374 A    
O72   H31   0.990548 S    
C49   C53   1.435021 A    
C71   C72   1.393344 A    
S10   O71   1.496942 D    
O10   C5    1.285576 A    
Cr6   O26   2.010249 S    
C78   C84   1.477840 S    
N4    O36   1.299001 A    
C61   C62   1.384231 A    
N3    O34   1.298992 A    
C50   C54   1.415891 A    
S12   O80   1.678459 S    
C47   H12   1.076635 S    
C1    O3    1.284217 A    
O8    C4    1.291245 A    
H1    C16   1.109392 S    
C20   C28   1.540886 S    
