data_mof_unit_7303.cif
_audit_creation_date              2012-12-11T14:30:02-0500
_audit_creation_method            fapswitch 2.2
_symmetry_space_group_name_H-M    P1
_symmetry_Int_Tables_number       1
_space_group_crystal_system       triclinic
_cell_length_a                    12.656304
_cell_length_b                    12.655926
_cell_length_c                    27.084702
_cell_angle_alpha                 90.00053
_cell_angle_beta                  89.99926
_cell_angle_gamma                 119.998453
_cell_volume                      3757.18247372

loop_
_atom_site_label
_atom_site_type_symbol
_atom_type_description
_atom_site_fract_x
_atom_site_fract_y
_atom_site_fract_z
_atom_type_partial_charge
C1    C     C_R   0.558158 0.455944 0.822314 0.555150
C2    C     C_R   0.897795 0.441845 0.677687 0.555214
C3    C     C_R   0.544065 0.102231 0.822317 0.555146
C4    C     C_R   0.558160 0.455942 0.677685 0.555164
C5    C     C_R   0.897778 0.441835 0.822315 0.555214
C6    C     C_R   0.544061 0.102219 0.677684 0.555157
C7    C     C_R   0.455927 0.558371 0.322381 0.556263
C8    C     C_R   0.441624 0.897558 0.177618 0.556297
C9    C     C_R   0.102446 0.544076 0.322383 0.556259
C10   C     C_R   0.455928 0.558369 0.177620 0.556260
C11   C     C_R   0.441627 0.897562 0.322381 0.556292
C12   C     C_R   0.102457 0.544081 0.177616 0.556266
C13   C     C_R   0.994845 0.501894 0.973962 -0.067251
C14   C     C_R   0.507062 0.005166 0.526034 -0.067258
C15   C     C_R   0.498086 0.492938 0.973966 -0.067232
C16   C     C_R   0.994929 0.501943 0.526046 -0.067260
C17   C     C_R   0.507049 0.005157 0.973965 -0.067242
C18   C     C_R   0.498086 0.492941 0.526035 -0.067232
C19   C     C_R   0.500344 0.992224 0.474355 -0.067031
C20   C     C_R   0.007810 0.508150 0.025641 -0.067018
C21   C     C_R   0.491849 0.499654 0.474356 -0.067014
C22   C     C_R   0.500323 0.992198 0.025643 -0.067030
C23   C     C_R   0.007853 0.508174 0.474365 -0.067032
C24   C     C_R   0.491852 0.499642 0.025646 -0.067017
C25   C     C_R   0.989586 0.691470 0.974533 0.401159
C26   C     C_R   0.702054 0.010767 0.525428 0.401185
C27   C     C_R   0.308595 0.298041 0.974549 0.401227
C28   C     C_R   0.989579 0.691470 0.525470 0.401161
C29   C     C_R   0.702000 0.010666 0.974565 0.401161
C30   C     C_R   0.308635 0.298006 0.525447 0.401228
C31   C     C_R   0.694366 0.995819 0.474111 0.400501
C32   C     C_R   0.004505 0.698730 0.025852 0.400445
C33   C     C_R   0.301359 0.305699 0.474130 0.400544
C34   C     C_R   0.694310 0.995715 0.025882 0.400516
C35   C     C_R   0.004494 0.698725 0.474151 0.400447
C36   C     C_R   0.301329 0.305718 0.025868 0.400532
C37   C     C_R   0.961882 0.579651 0.896784 0.398089
C38   C     C_R   0.617894 0.038320 0.603193 0.398092
C39   C     C_R   0.420361 0.382185 0.896792 0.398135
C40   C     C_R   0.961919 0.579678 0.603222 0.398096
C41   C     C_R   0.617878 0.038296 0.896804 0.398081
C42   C     C_R   0.420386 0.382158 0.603205 0.398135
C43   C     C_R   0.580105 0.964009 0.396722 0.398162
C44   C     C_R   0.036174 0.616226 0.103257 0.398163
C45   C     C_R   0.383840 0.419922 0.396732 0.398187
C46   C     C_R   0.580074 0.963954 0.103272 0.398161
C47   C     C_R   0.036166 0.616220 0.396745 0.398162
C48   C     C_R   0.383835 0.419916 0.103270 0.398174
C49   C     C_R   0.048806 0.524879 0.127831 -0.011240
C50   C     C_R   0.476066 0.951246 0.372163 -0.011236
C51   C     C_R   0.475154 0.523912 0.127838 -0.011227
C52   C     C_R   0.048773 0.524863 0.372168 -0.011238
C53   C     C_R   0.476054 0.951229 0.127834 -0.011241
C54   C     C_R   0.475149 0.523926 0.372165 -0.011224
C55   C     C_R   0.524833 0.047376 0.628132 -0.011882
C56   C     C_R   0.952603 0.477411 0.871871 -0.011872
C57   C     C_R   0.522562 0.475172 0.628130 -0.011879
C58   C     C_R   0.524843 0.047411 0.871872 -0.011877
C59   C     C_R   0.952674 0.477457 0.628139 -0.011880
C60   C     C_R   0.522560 0.475179 0.871870 -0.011872
C61   C     C_R   0.983636 0.592762 0.948083 -0.029858
C62   C     C_R   0.609228 0.016550 0.551895 -0.029835
C63   C     C_R   0.407254 0.390831 0.948092 -0.029867
C64   C     C_R   0.983682 0.592791 0.551923 -0.029853
C65   C     C_R   0.609199 0.016505 0.948101 -0.029837
C66   C     C_R   0.407276 0.390811 0.551906 -0.029871
C67   C     C_R   0.593269 0.985465 0.448055 -0.030174
C68   C     C_R   0.014713 0.607919 0.051923 -0.030141
C69   C     C_R   0.392130 0.406760 0.448065 -0.030175
C70   C     C_R   0.593231 0.985401 0.051939 -0.030180
C71   C     C_R   0.014723 0.607924 0.448080 -0.030140
C72   C     C_R   0.392121 0.406759 0.051935 -0.030171
C73   C     C_R   0.975088 0.394429 0.897564 -0.153860
C74   C     C_R   0.419269 0.024664 0.602459 -0.153836
C75   C     C_R   0.605496 0.580666 0.897560 -0.153980
C76   C     C_R   0.975237 0.394520 0.602450 -0.153847
C77   C     C_R   0.419301 0.024754 0.897548 -0.153863
C78   C     C_R   0.605476 0.580677 0.602443 -0.153975
C79   C     C_R   0.390595 0.969142 0.398335 -0.154378
C80   C     C_R   0.030799 0.421459 0.101672 -0.154400
C81   C     C_R   0.578538 0.609368 0.398329 -0.154457
C82   C     C_R   0.390593 0.969147 0.101666 -0.154370
C83   C     C_R   0.030738 0.421429 0.398325 -0.154369
C84   C     C_R   0.578556 0.609339 0.101675 -0.154441
C85   C     C_R   0.992272 0.403658 0.948279 -0.005671
C86   C     C_R   0.411327 0.007551 0.551737 -0.005634
C87   C     C_R   0.596282 0.588620 0.948277 -0.005631
C88   C     C_R   0.992410 0.403740 0.551732 -0.005658
C89   C     C_R   0.411340 0.007603 0.948267 -0.005652
C90   C     C_R   0.596264 0.588635 0.551727 -0.005616
C91   C     C_R   0.399770 0.985539 0.449077 -0.006535
C92   C     C_R   0.014384 0.414211 0.050933 -0.006522
C93   C     C_R   0.585763 0.600196 0.449070 -0.006484
C94   C     C_R   0.399766 0.985545 0.050924 -0.006529
C95   C     C_R   0.014396 0.414220 0.449070 -0.006518
C96   C     C_R   0.585782 0.600167 0.050934 -0.006485
C97   C     C_R   0.009959 0.316478 0.024969 -0.056121
C98   C     C_R   0.306411 0.989833 0.475056 -0.056142
C99   C     C_R   0.683485 0.693491 0.024965 -0.056238
C100  C     C_R   0.010018 0.316511 0.475037 -0.056100
C101  C     C_R   0.306425 0.989880 0.024948 -0.056126
C102  C     C_R   0.683450 0.693532 0.475041 -0.056249
C103  C     C_R   0.311118 0.998635 0.526162 -0.054969
C104  C     C_R   0.001090 0.312324 0.973867 -0.054988
C105  C     C_R   0.687577 0.688814 0.526145 -0.055145
C106  C     C_R   0.311143 0.998708 0.973844 -0.054991
C107  C     C_R   0.001234 0.312407 0.526144 -0.054976
C108  C     C_R   0.687611 0.688783 0.973860 -0.055153
Cr1   Cr    Cr6+3 0.487630 0.241180 0.750000 1.161972
Cr2   Cr    Cr6+3 0.753550 0.512370 0.750000 1.161922
Cr3   Cr    Cr6+3 0.758820 0.246450 0.750000 1.161939
Cr4   Cr    Cr6+3 0.241180 0.487630 0.250000 1.163134
Cr5   Cr    Cr6+3 0.512370 0.753550 0.250000 1.163092
Cr6   Cr    Cr6+3 0.246450 0.758820 0.250000 1.163109
H1    H     H_    0.038951 0.349807 0.120119 0.211489
H2    H     H_    0.310740 0.960898 0.379901 0.211576
H3    H     H_    0.650200 0.689161 0.120115 0.211440
H4    H     H_    0.038822 0.349742 0.379872 0.211460
H5    H     H_    0.310751 0.960929 0.120104 0.211573
H6    H     H_    0.650173 0.689200 0.379890 0.211435
H7    H     H_    0.346259 0.029729 0.621255 0.209665
H8    H     H_    0.969792 0.316221 0.878791 0.209841
H9    H     H_    0.683635 0.653617 0.621223 0.209650
H10   H     H_    0.346322 0.029887 0.878760 0.209691
H11   H     H_    0.969982 0.316336 0.621226 0.209797
H12   H     H_    0.683672 0.653593 0.878783 0.209668
H13   H     H_    0.014931 0.244015 0.044168 0.242982
H14   H     H_    0.228941 0.984807 0.455867 0.243043
H15   H     H_    0.755947 0.770938 0.044159 0.242819
H16   H     H_    0.014964 0.244029 0.455838 0.242999
H17   H     H_    0.228967 0.984875 0.044138 0.243053
H18   H     H_    0.755899 0.770992 0.455847 0.242791
H19   H     H_    0.237239 0.000347 0.545651 0.241987
H20   H     H_    0.999279 0.236675 0.954389 0.242024
H21   H     H_    0.763200 0.762663 0.545628 0.241743
H22   H     H_    0.237284 0.000455 0.954356 0.241980
H23   H     H_    0.999469 0.236781 0.545624 0.242001
H24   H     H_    0.763243 0.762626 0.954379 0.241772
O1    O     O_R   0.460870 0.120930 0.805240 -0.494984
O2    O     O_R   0.660060 0.539130 0.694760 -0.495026
O3    O     O_R   0.879070 0.339940 0.805240 -0.494993
O4    O     O_R   0.460870 0.120930 0.694760 -0.494938
O5    O     O_R   0.660060 0.539130 0.805240 -0.495042
O6    O     O_R   0.879070 0.339940 0.694760 -0.494944
O7    O     O_R   0.120930 0.460870 0.305240 -0.495856
O8    O     O_R   0.539130 0.660060 0.194760 -0.495898
O9    O     O_R   0.339940 0.879070 0.305240 -0.495864
O10   O     O_R   0.120930 0.460870 0.194760 -0.495871
O11   O     O_R   0.539130 0.660060 0.305240 -0.495924
O12   O     O_R   0.339940 0.879070 0.194760 -0.495867
O13   O     O_R   0.498910 0.350470 0.801870 -0.435985
O14   O     O_R   0.851560 0.501090 0.698130 -0.435984
O15   O     O_R   0.649530 0.148440 0.801870 -0.436005
O16   O     O_R   0.498910 0.350470 0.698130 -0.435956
O17   O     O_R   0.851560 0.501090 0.801870 -0.435997
O18   O     O_R   0.649530 0.148440 0.698130 -0.435970
O19   O     O_R   0.350470 0.498910 0.301870 -0.436542
O20   O     O_R   0.501090 0.851560 0.198130 -0.436526
O21   O     O_R   0.148440 0.649530 0.301870 -0.436548
O22   O     O_R   0.350470 0.498910 0.198130 -0.436549
O23   O     O_R   0.501090 0.851560 0.301870 -0.436551
O24   O     O_R   0.148440 0.649530 0.198130 -0.436553
O25   O     O_3   0.666667 0.333333 0.750000 -0.318560
O26   O     O_3   0.333333 0.666667 0.250000 -0.320416
F1    F     F_    0.050533 0.715032 0.128766 -0.548283
F2    F     F_    0.664619 0.949795 0.371196 -0.548216
F3    F     F_    0.285074 0.335434 0.128788 -0.548214
F4    F     F_    0.050527 0.715026 0.371237 -0.548291
F5    F     F_    0.664574 0.949714 0.128797 -0.548208
F6    F     F_    0.285086 0.335432 0.371213 -0.548191
F7    F     F_    0.718791 0.056871 0.628260 -0.549238
F8    F     F_    0.943568 0.662120 0.871689 -0.549173
F9    F     F_    0.337986 0.281318 0.628288 -0.549141
F10   F     F_    0.718757 0.056796 0.871734 -0.549247
F11   F     F_    0.943543 0.662114 0.628311 -0.549178
F12   F     F_    0.337930 0.281372 0.871703 -0.549145
F13   F     F_    0.007886 0.794608 0.049804 -0.529965
F14   F     F_    0.786915 0.992569 0.450145 -0.529856
F15   F     F_    0.205472 0.213214 0.049823 -0.529836
F16   F     F_    0.007825 0.794575 0.450196 -0.529946
F17   F     F_    0.786843 0.992433 0.049846 -0.529860
F18   F     F_    0.205512 0.213189 0.450173 -0.529806
F19   F     F_    0.800537 0.018871 0.548973 -0.531849
F20   F     F_    0.981678 0.781946 0.950973 -0.531746
F21   F     F_    0.218256 0.199533 0.548996 -0.531722
F22   F     F_    0.800462 0.018727 0.951018 -0.531856
F23   F     F_    0.981609 0.781915 0.549027 -0.531760
F24   F     F_    0.218187 0.199596 0.950997 -0.531701

loop_
_geom_bond_atom_site_label_1
_geom_bond_atom_site_label_2
_ccdc_geom_bond_type
C44   C49   A    
C4    O16   A    
C41   F10   S    
C80   C92   A    
C82   C94   A    
C18   C21   A    
C2    O6    A    
C5    C56   S    
C11   O23   A    
C6    C55   S    
C97   H13   S    
C8    O20   A    
C50   C79   A    
C37   F8    S    
C12   C49   S    
C38   F7    S    
C9    C52   S    
C29   F22   S    
C31   C67   A    
C99   C108  A    
C20   C92   A    
C81   H6    S    
C77   C89   A    
C104  H20   S    
C102  C105  A    
C35   F16   S    
C83   H4    S    
Cr1   O13   S    
C102  H18   S    
Cr6   O9    S    
Cr2   O14   S    
C24   C96   A    
C100  H16   S    
C98   H14   S    
Cr6   O24   S    
C9    O21   A    
C98   C103  A    
C14   C62   A    
C96   C99   A    
C3    O15   A    
Cr4   O7    S    
C34   F17   S    
C84   C96   A    
Cr2   O17   S    
C58   C77   A    
C7    O11   A    
C37   C56   A    
Cr6   O26   S    
C48   C51   A    
C87   C108  A    
C94   C101  A    
C84   H3    S    
C89   C106  A    
C19   C67   A    
Cr1   O4    S    
Cr5   O20   S    
C6    O4    A    
Cr3   O18   S    
C34   C70   A    
C79   C91   A    
C13   C20   A    
C25   F20   S    
C33   C69   A    
C32   C68   A    
C26   F19   S    
C25   C32   A    
C106  H22   S    
C35   C71   A    
C26   C31   A    
C40   C59   A    
C79   H2    S    
C45   F6    S    
C76   H11   S    
C22   C94   A    
C36   F15   S    
C82   H5    S    
C48   C72   A    
C86   C103  A    
C14   C19   A    
C42   C57   A    
C92   C97   A    
C2    O14   A    
Cr4   O26   S    
Cr4   O19   S    
C38   C55   A    
C31   F14   S    
C45   C69   A    
C18   C90   A    
C30   F21   S    
Cr5   O11   S    
C17   C89   A    
C28   C35   A    
Cr1   O25   S    
C28   F23   S    
C88   C107  A    
C99   H15   S    
C2    C59   S    
C41   C65   A    
C5    O17   A    
Cr5   O23   S    
C29   C34   A    
C78   C90   A    
Cr4   O10   S    
C21   C69   A    
C53   C82   A    
Cr5   O8    S    
C107  H23   S    
C52   C83   A    
C8    O12   A    
C1    O5    A    
C23   C71   A    
C4    O2    A    
C81   C93   A    
C5    O3    A    
C80   H1    S    
C83   C95   A    
Cr3   O25   S    
C25   C61   A    
C74   C86   A    
C78   H9    S    
Cr3   O15   S    
C14   C86   A    
C30   C66   A    
C85   C104  A    
C27   C63   A    
Cr3   O6    S    
C10   O8    A    
C29   C65   A    
C101  H17   S    
C75   C87   A    
C15   C24   A    
C45   C54   A    
C16   C23   A    
C32   F13   S    
C1    C60   S    
C3    O1    A    
C47   C71   A    
C10   O22   A    
C24   C72   A    
C15   C87   A    
C73   C85   A    
C43   F2    S    
C101  C106  A    
C76   C88   A    
C100  C107  A    
C15   C63   A    
C56   C73   A    
Cr4   O22   S    
C30   C33   A    
C95   C100  A    
C93   C102  A    
C57   C78   A    
C20   C68   A    
C19   C91   A    
Cr1   O16   S    
C90   C105  A    
C39   F12   S    
C42   F9    S    
C8    C53   S    
C41   C58   A    
C40   F11   S    
C37   C61   A    
Cr2   O25   S    
C46   F5    S    
C43   C50   A    
C28   C64   A    
C47   C52   A    
C7    O19   A    
C27   C36   A    
C18   C66   A    
C39   C63   A    
C60   C75   A    
C17   C65   A    
C17   C22   A    
C40   C64   A    
C49   C80   A    
C105  H21   S    
Cr1   O1    S    
C75   H12   S    
C10   C51   S    
C12   O10   A    
Cr2   O2    S    
C103  H19   S    
C55   C74   A    
C11   C50   S    
Cr5   O26   S    
C108  H24   S    
C47   F4    S    
C11   O9    A    
C48   F3    S    
C21   C93   A    
C44   F1    S    
C39   C60   A    
C59   C76   A    
C46   C53   A    
C9    O7    A    
C42   C66   A    
C23   C95   A    
C1    O13   A    
C77   H10   S    
C27   F24   S    
C91   C98   A    
C26   C62   A    
Cr2   O5    S    
Cr6   O21   S    
C46   C70   A    
C97   C104  A    
C44   C68   A    
Cr3   O3    S    
C12   O24   A    
C3    C58   S    
C74   H7    S    
C13   C61   A    
C43   C67   A    
C73   H8    S    
C13   C85   A    
C33   F18   S    
C16   C88   A    
Cr6   O12   S    
C16   C64   A    
C7    C54   S    
C51   C84   A    
C22   C70   A    
C54   C81   A    
C6    O18   A    
C36   C72   A    
C4    C57   S    
C38   C62   A    
