data_mof_unit_23599.cif
_audit_creation_date              2012-12-10T16:53:07-0500
_audit_creation_method            fapswitch 2.2
_symmetry_space_group_name_H-M    P1
_symmetry_Int_Tables_number       1
_space_group_crystal_system       triclinic
_cell_length_a                    10.858893
_cell_length_b                    10.918268
_cell_length_c                    9.76457
_cell_angle_alpha                 91.177767
_cell_angle_beta                  90.867103
_cell_angle_gamma                 91.219779
_cell_volume                      1157.04311316

loop_
_atom_site_label
_atom_site_type_symbol
_atom_type_description
_atom_site_fract_x
_atom_site_fract_y
_atom_site_fract_z
_atom_type_partial_charge
C1    C     C_R   0.501658 0.265663 0.499140 0.854681
C2    C     C_R   0.065557 0.533969 0.628691 0.101515
C3    C     C_R   0.128809 0.520578 0.502980 -0.121883
C4    C     C_R   0.062001 0.499992 0.380868 -0.211874
C5    C     C_R   0.935041 0.489198 0.382468 -0.202928
C6    C     C_R   0.872520 0.487833 0.507017 -0.120708
C7    C     C_2   0.500958 0.930880 0.388373 -0.144808
C8    C     C_2   0.492956 0.866688 0.503932 -0.324879
C9    C     C_2   0.495163 0.064770 0.386696 -0.162000
C10   C     C_2   0.509027 0.133903 0.500623 -0.318016
C11   C     C_2   0.468568 0.405566 0.922177 -0.048245
C12   C     C_R   0.262986 0.509752 0.500224 0.798200
C13   C     C_2   0.496156 0.400740 0.075233 -0.131236
C14   C     C_R   0.498782 0.734496 0.500999 0.838199
C15   C     C_R   0.737610 0.493115 0.501678 0.787563
C16   C     C_R   0.122484 0.581031 0.751021 -0.144560
C17   C     C_R   0.066574 0.566142 0.877189 -0.146212
C18   C     C_R   0.953601 0.504854 0.883438 -0.164400
C19   C     C_R   0.890606 0.470576 0.762807 -0.163209
C20   C     C_R   0.940675 0.496855 0.632868 0.096617
Cu1   Cu    Cu3+1 0.500020 0.500020 0.638630 0.924601
Cu2   Cu    Cu3+1 0.499980 0.499980 0.361370 0.930520
H1    H     H_    0.107781 0.492111 0.283360 0.163243
H2    H     H_    0.528278 0.095109 0.599540 0.144345
H3    H     H_    0.430717 0.323255 0.872235 0.143506
H4    H     H_    0.518010 0.313174 0.118742 0.159970
H5    H     H_    0.432954 0.560016 0.124776 0.209939
H6    H     H_    0.209234 0.631385 0.750748 0.154362
H7    H     H_    0.112635 0.599017 0.970379 0.129497
H8    H     H_    0.913135 0.486515 0.981799 0.128109
H9    H     H_    0.805602 0.419277 0.774410 0.167800
H10   H     H_    0.885957 0.479908 0.285259 0.162861
H11   H     H_    0.509982 0.884228 0.289797 0.162076
H12   H     H_    0.478733 0.909366 0.603231 0.137341
H13   H     H_    0.480794 0.106963 0.288086 0.155916
N1    N     N_2   0.498640 0.498660 0.846910 -0.162095
N2    N     N_2   0.498610 0.498630 0.153040 -0.301855
O1    O     O_R   0.500020 0.321960 0.617040 -0.589374
O2    O     O_R   0.499980 0.321920 0.382900 -0.576522
O3    O     O_R   0.319670 0.500020 0.617100 -0.578958
O4    O     O_R   0.319630 0.499980 0.382950 -0.582555
O5    O     O_R   0.500020 0.678080 0.617100 -0.607357
O6    O     O_R   0.499980 0.678040 0.382960 -0.576865
O7    O     O_R   0.680370 0.500020 0.617050 -0.609019
O8    O     O_R   0.680330 0.499980 0.382900 -0.564418
C21   C     C_3   0.578373 0.596106 0.916576 -0.105537
C22   C     C_3   0.644985 0.699303 0.838888 -0.324797
C23   C     C_3   0.737873 0.768241 0.933481 -0.957822
H14   H     H_    0.690938 0.807357 0.024256 0.258348
H15   H     H_    0.811035 0.706335 0.968777 0.270317
H16   H     H_    0.782057 0.844496 0.877304 0.258936
H17   H     H_    0.697566 0.667664 0.750799 0.269547
H18   H     H_    0.578341 0.770088 0.809161 0.222846
H19   H     H_    0.519685 0.653440 0.981418 0.133491
H20   H     H_    0.652654 0.551518 0.976379 0.177785

loop_
_geom_bond_atom_site_label_1
_geom_bond_atom_site_label_2
_ccdc_geom_bond_type
C21   H20   S    
C12   O3    A    
C16   H6    S    
C22   H17   S    
C18   H8    S    
Cu1   O7    S    
C2    C16   A    
C9    C10   D    
C13   N2    D    
Cu2   O6    S    
C22   H18   S    
C14   O5    A    
C5    H10   S    
C19   H9    S    
C6    C20   A    
C21   H19   S    
C23   H15   S    
C17   C18   A    
C7    C8    D    
Cu1   N1    S    
C8    H12   S    
Cu1   Cu2   S    
N1    C21   S    
C7    H11   S    
C11   H3    S    
C12   O4    A    
Cu1   O3    S    
C1    O1    A    
H5    N2    S    
C4    C5    A    
C23   H14   S    
C15   O7    A    
C2    C3    A    
C5    C6    A    
C13   H4    S    
Cu2   O4    S    
Cu1   O5    S    
C1    O2    A    
C2    C20   A    
C3    C4    A    
C22   C23   S    
C11   C13   S    
Cu2   O8    S    
C17   H7    S    
C7    C9    S    
C18   C19   A    
C1    C10   S    
C9    H13   S    
C4    H1    S    
C15   O8    A    
C21   C22   S    
C11   N1    D    
C8    C14   S    
C3    C12   S    
C10   H2    S    
C6    C15   S    
Cu2   N2    S    
Cu2   O2    S    
C23   H16   S    
Cu1   O1    S    
C19   C20   A    
C16   C17   A    
C14   O6    A    
