data_mof_unit_53827.cif
_audit_creation_date              2012-12-10T17:43:35-0500
_audit_creation_method            fapswitch 2.2
_symmetry_space_group_name_H-M    P1
_symmetry_Int_Tables_number       1
_space_group_crystal_system       triclinic
_cell_length_a                    14.957268
_cell_length_b                    10.691247
_cell_length_c                    9.936255
_cell_angle_alpha                 91.928547
_cell_angle_beta                  90.245836
_cell_angle_gamma                 91.396982
_cell_volume                      1587.53210311

loop_
_atom_site_label
_atom_site_type_symbol
_atom_type_description
_atom_site_fract_x
_atom_site_fract_y
_atom_site_fract_z
_atom_type_partial_charge
C1    C     C_R   0.506777 0.260896 0.498175 0.929366
C2    C     C_R   0.907385 0.587236 0.591120 0.144955
C3    C     C_R   0.951174 0.386903 0.282421 0.091369
C4    C     C_R   0.044366 0.385793 0.284353 0.103125
C5    C     C_R   0.092144 0.451001 0.389084 0.017564
C6    C     C_R   0.046421 0.520403 0.489741 -0.010939
C7    C     C_R   0.093799 0.588794 0.593197 0.148383
C8    C     C_R   0.047022 0.657731 0.691823 -0.195948
C9    C     C_R   0.954435 0.656476 0.690898 -0.248285
C10   C     C_R   0.184670 0.447359 0.396331 -0.273660
C11   C     C_R   0.231313 0.511844 0.499630 -0.081731
C12   C     C_R   0.327038 0.503496 0.500125 0.871130
C13   C     C_R   0.186899 0.585642 0.597217 0.032845
C14   C     C_R   0.608498 0.127846 0.704173 0.482601
C15   C     C_R   0.619869 0.076945 0.830525 -0.366968
C16   C     C_R   0.576873 0.963382 0.861100 0.466165
C17   C     C_R   0.528629 0.898728 0.759445 -0.280576
C18   C     C_R   0.521063 0.945103 0.628153 -0.034611
C19   C     C_R   0.548866 0.068512 0.608688 -0.044551
C20   C     C_R   0.514438 0.128149 0.495527 -0.076044
C21   C     C_R   0.469693 0.060723 0.392042 -0.251148
C22   C     C_R   0.459497 0.933454 0.399139 -0.230533
C23   C     C_R   0.494944 0.740174 0.503597 0.862885
C24   C     C_R   0.487904 0.874251 0.513975 -0.058623
C25   C     C_R   0.382303 0.339350 0.134016 -0.236393
C26   C     C_R   0.323106 0.260075 0.062536 -0.363506
C27   C     C_R   0.322177 0.257434 0.921191 0.530913
C28   C     C_R   0.379655 0.339889 0.855129 -0.214454
C29   C     C_R   0.440061 0.422437 0.925006 0.054181
C30   C     C_R   0.440999 0.421782 0.069155 0.161839
C31   C     C_R   0.558423 0.571659 0.075593 -0.076410
C32   C     C_R   0.560735 0.569146 0.933192 0.148202
C33   C     C_R   0.672936 0.503003 0.499781 0.916709
C34   C     C_R   0.814916 0.581851 0.594174 -0.286403
C35   C     C_R   0.768453 0.510503 0.496415 -0.050718
C36   C     C_R   0.812500 0.449590 0.390632 -0.284328
C37   C     C_R   0.905311 0.452169 0.385803 0.019948
C38   C     C_R   0.953144 0.520326 0.488357 0.048429
H1    H     H_    0.779157 0.632808 0.672255 0.143323
H2    H     H_    0.663658 0.125837 0.902261 0.162810
H3    H     H_    0.492964 0.815785 0.789811 0.205846
H4    H     H_    0.429343 0.881082 0.314579 0.165320
H5    H     H_    0.607003 0.628673 0.132605 0.167430
H6    H     H_    0.380985 0.332362 0.240503 0.224117
H7    H     H_    0.278872 0.201853 0.120355 0.146131
H8    H     H_    0.376443 0.333762 0.748208 0.223690
H9    H     H_    0.773416 0.396714 0.315364 0.152305
H10   H     H_    0.221665 0.392741 0.322817 0.154857
H11   H     H_    0.081510 0.711221 0.771591 0.167536
H12   H     H_    0.919563 0.708375 0.769307 0.150668
H13   H     H_    0.442282 0.106260 0.305758 0.161335
N1    N     N_R   0.499150 0.498800 0.142780 -0.140617
N2    N     N_R   0.499120 0.498720 0.857170 -0.133640
O1    O     O_R   0.500000 0.316780 0.614690 -0.602380
O2    O     O_R   0.499990 0.316750 0.385360 -0.657563
O3    O     O_R   0.367850 0.499980 0.614680 -0.650161
O4    O     O_R   0.367840 0.499960 0.385350 -0.634831
O5    O     O_R   0.500010 0.683250 0.614640 -0.658152
O6    O     O_R   0.500000 0.683220 0.385310 -0.612394
O7    O     O_R   0.632160 0.500040 0.614650 -0.604473
O8    O     O_R   0.632150 0.500020 0.385320 -0.632327
Zn1   Zn    Zn3+2 0.500010 0.500020 0.653130 0.936854
Zn2   Zn    Zn3+2 0.499990 0.499980 0.346870 0.928952
O9    O     O_3   0.661623 0.229723 0.670995 -0.602193
C39   C     C_3   0.743054 0.186536 0.615551 0.093170
H14   H     H_    0.765864 0.253496 0.539897 0.159070
H15   H     H_    0.735779 0.094490 0.559959 0.086678
C40   C     C_3   0.816805 0.177579 0.722582 -0.385725
H16   H     H_    0.801713 0.098612 0.789178 0.201728
H17   H     H_    0.880802 0.156801 0.670957 0.186947
C41   C     C_3   0.829471 0.298200 0.807701 -0.768212
H18   H     H_    0.848146 0.376659 0.742776 0.262634
H19   H     H_    0.884232 0.286697 0.881642 0.242037
H20   H     H_    0.767403 0.320744 0.863455 0.267850
O10   O     O_3   0.589106 0.901820 0.980646 -0.646086
C42   C     C_3   0.599079 0.982760 0.095242 0.085693
H21   H     H_    0.558568 0.940714 0.175517 0.184195
H22   H     H_    0.572454 0.078204 0.082515 0.124646
C43   C     C_3   0.696705 0.987437 0.142574 -0.324121
H23   H     H_    0.718904 0.890584 0.158900 0.232867
H24   H     H_    0.740504 0.028679 0.064994 0.209560
C44   C     C_3   0.707556 0.064168 0.273879 -1.000973
H25   H     H_    0.685965 0.161743 0.260772 0.267588
H26   H     H_    0.778801 0.066249 0.305795 0.254578
H27   H     H_    0.666988 0.020619 0.353816 0.277424
O11   O     O_3   0.264520 0.181594 0.841130 -0.651271
C45   C     C_3   0.244227 0.063024 0.894763 0.104025
H28   H     H_    0.194416 0.015338 0.826075 0.164814
H29   H     H_    0.209438 0.070564 0.992883 0.131196
C46   C     C_3   0.326460 0.979566 0.898926 -0.377505
H30   H     H_    0.346628 0.955322 0.793984 0.230375
H31   H     H_    0.383648 0.029309 0.950538 0.224620
C47   C     C_3   0.306089 0.859514 0.972960 -0.948797
H32   H     H_    0.292365 0.881881 0.080782 0.261564
H33   H     H_    0.364552 0.797528 0.966631 0.273518
H34   H     H_    0.247059 0.809071 0.927476 0.269880
N3    N     N_3   0.634632 0.631829 0.872215 -0.440218
H35   H     H_    0.680492 0.563809 0.844131 0.194605
H36   H     H_    0.613330 0.676010 0.786750 0.239646
N4    N     N_3   0.904681 0.319943 0.174601 -0.443017
H37   H     H_    0.864493 0.382286 0.124457 0.181655
H38   H     H_    0.864254 0.249706 0.215064 0.181409
N5    N     N_3   0.088835 0.316774 0.178896 -0.432611
H39   H     H_    0.132365 0.377537 0.129223 0.196545
H40   H     H_    0.125416 0.245984 0.221663 0.170367
N6    N     N_3   0.235073 0.660149 0.697966 -0.486953
H41   H     H_    0.284197 0.714905 0.651715 0.194340
H42   H     H_    0.264673 0.601260 0.766171 0.223044

loop_
_geom_bond_atom_site_label_1
_geom_bond_atom_site_label_2
_ccdc_geom_bond_type
O5    Zn1   S    
C23   O5    A    
C45   H28   S    
C47   H32   S    
C16   O10   S    
C19   C20   A    
C42   C43   S    
C31   N1    A    
C1    O1    A    
N3    H35   S    
C7    C8    A    
C23   O6    A    
C28   H8    S    
C26   C27   A    
C29   C30   A    
C31   H5    S    
C18   C24   A    
C36   C37   A    
C42   H22   S    
C18   C19   A    
C5    C6    A    
N6    H42   S    
N6    H41   S    
C15   C16   A    
C4    N5    S    
C32   N3    S    
C36   H9    S    
O7    Zn1   S    
C34   C35   A    
O8    Zn2   S    
C26   H7    S    
C3    N4    S    
C35   C36   A    
C16   C17   A    
C39   H15   S    
O2    Zn2   S    
C23   C24   S    
C6    C38   A    
C2    C34   A    
C47   H33   S    
C21   C22   A    
C25   H6    S    
N3    H36   S    
O4    Zn2   S    
C34   H1    S    
C42   H21   S    
C43   H24   S    
O11   C45   S    
C40   H16   S    
O1    Zn1   S    
C25   C26   A    
C27   O11   S    
O10   C42   S    
C37   C38   A    
C43   C44   S    
N2    Zn1   S    
C2    C38   A    
C46   H31   S    
C31   C32   A    
C7    C13   A    
C39   C40   S    
C14   O9    S    
N4    H38   S    
C17   C18   A    
C8    C9    A    
N5    H40   S    
C12   O3    A    
C12   O4    A    
C33   O8    A    
C39   H14   S    
C33   O7    A    
C44   H26   S    
C45   H29   S    
C10   H10   S    
C22   C24   A    
C3    C4    A    
C32   N2    A    
C21   H13   S    
C46   C47   S    
C41   H19   S    
C25   C30   A    
C30   N1    A    
C28   C29   A    
C1    C20   S    
C14   C19   A    
C9    H12   S    
C13   N6    S    
N1    Zn2   S    
C41   H20   S    
C11   C12   S    
C6    C7    A    
C47   H34   S    
C44   H27   S    
O6    Zn2   S    
O9    C39   S    
C1    O2    A    
C5    C10   A    
C11   C13   A    
C46   H30   S    
C22   H4    S    
C29   N2    A    
C40   C41   S    
C4    C5    A    
N4    H37   S    
C33   C35   S    
O3    Zn1   S    
C17   H3    S    
C15   H2    S    
C10   C11   A    
C43   H23   S    
C41   H18   S    
C20   C21   A    
C3    C37   A    
C40   H17   S    
C44   H25   S    
C45   C46   S    
N5    H39   S    
C14   C15   A    
C2    C9    A    
C8    H11   S    
C27   C28   A    
