data_mof_unit_65438.cif
_audit_creation_date              2012-10-26T17:49:03-0400
_audit_creation_method            fapswitch 2.2
_symmetry_space_group_name_H-M    P1
_symmetry_Int_Tables_number       1
_space_group_crystal_system       triclinic
_cell_length_a                    18.769945
_cell_length_b                    18.754259
_cell_length_c                    18.893324
_cell_angle_alpha                 109.387542
_cell_angle_beta                  109.47623
_cell_angle_gamma                 109.198918
_cell_volume                      5141.79039714

loop_
_atom_site_label
_atom_site_type_symbol
_atom_type_description
_atom_site_fract_x
_atom_site_fract_y
_atom_site_fract_z
_atom_type_partial_charge
Br1   Br    Br    0.806455 0.011389 0.593915 -0.461942
Br2   Br    Br    0.465073 0.238035 0.476069 -0.352480
Br3   Br    Br    0.508116 0.451249 0.712722 -0.378877
Br4   Br    Br    0.443066 0.542230 0.844897 -0.330969
Br5   Br    Br    0.012926 0.278278 0.586919 -0.320825
Br6   Br    Br    0.921149 0.105591 0.945165 -0.422354
Br7   Br    Br    0.016728 0.429583 0.739589 -0.309111
Br8   Br    Br    0.805964 0.548830 0.244795 -0.396495
Br9   Br    Br    0.515616 0.521943 0.278601 -0.393715
Br10  Br    Br    0.812786 0.741522 0.216180 -0.302787
Br11  Br    Br    0.693373 0.369290 0.546616 -0.238076
Br12  Br    Br    0.752162 0.716248 0.722186 -0.505369
Br13  Br    Br    0.025625 0.509236 0.245778 -0.355908
C1    C     C_R   0.997218 0.117259 0.617678 0.609095
C2    C     C_R   0.228713 0.298706 0.652373 0.245202
C3    C     C_R   0.902549 0.080577 0.710303 0.111489
C4    C     C_R   0.119337 0.120038 0.500983 0.659589
C5    C     C_R   0.891185 0.062378 0.773033 -0.045161
C6    C     C_R   0.934338 0.129715 0.858320 0.168682
C7    C     C_R   0.978301 0.215861 0.877359 -0.058790
C8    C     C_R   0.984568 0.233685 0.811905 -0.059109
C9    C     C_R   0.963399 0.164691 0.735441 -0.007529
C10   C     C_R   0.990824 0.182833 0.679977 -0.000013
C11   C     C_R   0.006503 0.262102 0.681168 0.165972
C12   C     C_R   0.216025 0.164811 0.441947 -0.011325
C13   C     C_R   0.009969 0.327451 0.747852 0.167370
C14   C     C_R   0.003283 0.315043 0.816064 -0.023439
C15   C     C_R   0.811022 0.688979 0.380903 0.274127
C16   C     C_R   0.001864 0.883061 0.381176 0.586580
C17   C     C_R   0.761531 0.602560 0.311114 0.171078
C18   C     C_R   0.675185 0.552814 0.286407 -0.060577
C19   C     C_R   0.640054 0.582129 0.336384 0.154018
C20   C     C_R   0.693995 0.661210 0.416562 -0.010681
C21   C     C_R   0.773871 0.720352 0.429713 0.013414
C22   C     C_R   0.817233 0.807520 0.496271 0.056520
C23   C     C_R   0.340111 0.311515 0.522621 0.009952
C24   C     C_R   0.797550 0.828151 0.562450 -0.114986
C25   C     C_R   0.726182 0.767918 0.556435 -0.100191
C26   C     C_R   0.674120 0.683788 0.485124 0.037119
C27   C     C_R   0.165086 0.897631 0.390315 -0.088113
C28   C     C_R   0.881824 0.878605 0.497977 0.618889
C29   C     C_R   0.243671 0.899540 0.401544 0.261308
C30   C     C_R   0.241455 0.826883 0.346363 -0.029706
C31   C     C_R   0.162478 0.754867 0.277893 -0.115993
C32   C     C_R   0.082968 0.753831 0.262772 -0.020254
C33   C     C_R   0.083940 0.823557 0.323299 -0.053618
C34   C     C_R   0.323011 0.332603 0.591708 -0.056848
C35   C     C_R   0.003950 0.818664 0.313540 -0.043366
C36   C     C_R   0.924735 0.750202 0.238784 0.201890
C37   C     C_R   0.924049 0.683379 0.177714 0.219422
C38   C     C_R   0.002748 0.684966 0.188895 -0.002492
C39   C     C_R   0.625882 0.506452 0.618301 0.605680
C40   C     C_R   0.166107 0.082095 0.364535 0.221865
C41   C     C_R   0.390937 0.381050 0.508795 0.563218
C42   C     C_R   0.381172 0.500151 0.381846 0.597055
C43   C     C_R   0.612582 0.618377 0.493356 0.598302
C44   C     C_R   0.881451 0.500528 0.882024 0.518576
C45   C     C_R   0.245351 0.272918 0.582106 0.003032
C46   C     C_R   0.001939 0.381353 0.882776 0.544064
C47   C     C_R   0.118864 0.506068 0.125003 0.565870
C48   C     C_R   0.000714 0.618558 0.119577 0.534213
C49   C     C_R   0.756758 0.666497 0.795795 0.154236
C50   C     C_R   0.791453 0.726174 0.882352 0.021831
C51   C     C_R   0.829344 0.709804 0.947496 0.266869
C52   C     C_R   0.205666 0.054600 0.317975 -0.133775
C53   C     C_R   0.835997 0.634033 0.925385 -0.065606
C54   C     C_R   0.799798 0.572034 0.837819 -0.062361
C55   C     C_R   0.750812 0.583599 0.771665 0.001185
C56   C     C_R   0.189453 0.189260 0.504507 0.029152
C57   C     C_R   0.703445 0.514532 0.684403 -0.014936
C58   C     C_R   0.726191 0.448221 0.663185 0.223516
C59   C     C_R   0.780489 0.440677 0.728151 0.268575
C60   C     C_R   0.815427 0.501317 0.815459 -0.012834
C61   C     C_R   0.199585 0.389374 0.316867 -0.130345
C62   C     C_R   0.115481 0.350972 0.303120 -0.116638
C63   C     C_R   0.058524 0.379869 0.271327 0.308443
C64   C     C_R   0.293289 0.105372 0.348454 -0.098008
C65   C     C_R   0.084463 0.442210 0.246295 0.254075
C66   C     C_R   0.164071 0.469374 0.244968 -0.070046
C67   C     C_R   0.386240 0.407535 0.673733 0.195060
C68   C     C_R   0.225925 0.451728 0.291571 -0.075635
C69   C     C_R   0.313749 0.501232 0.316920 0.047578
C70   C     C_R   0.339212 0.564815 0.293753 0.240457
C71   C     C_R   0.275446 0.566357 0.229574 0.211844
C72   C     C_R   0.186510 0.516155 0.202554 0.001116
C73   C     C_R   0.340883 0.188195 0.420367 0.187708
C74   C     C_R   0.299101 0.222773 0.460386 -0.025052
C75   C     C_R   0.363797 0.435566 0.736940 0.180264
C76   C     C_R   0.284762 0.382232 0.725157 -0.086789
Cu1   Cu    Cu3+1 0.061810 0.999990 0.561790 1.065058
Cu2   Cu    Cu3+1 0.938190 0.000010 0.438210 1.206459
Cu3   Cu    Cu3+1 0.499980 0.561850 0.561820 1.123742
Cu4   Cu    Cu3+1 0.500030 0.438250 0.438240 1.147652
Cu5   Cu    Cu3+1 0.061790 0.561800 0.999990 1.085047
Cu6   Cu    Cu3+1 0.938200 0.438200 0.000000 1.101071
H1    H     H_    0.269817 0.403267 0.776454 0.153166
H2    H     H_    0.794760 0.788804 0.899717 0.190579
H3    H     H_    0.169587 0.991312 0.260424 0.126317
H4    H     H_    0.870725 0.624674 0.976888 0.143849
H5    H     H_    0.244057 0.370714 0.348370 0.130593
H6    H     H_    0.096976 0.303229 0.323131 0.131875
H7    H     H_    0.324881 0.079169 0.317283 0.171323
H8    H     H_    0.916877 0.708493 0.373802 0.363101
H9    H     H_    0.054885 0.975817 0.279369 0.331125
H10   H     H_    0.314110 0.017604 0.498594 0.335602
H11   H     H_    0.837194 0.562993 0.098583 0.384066
H12   H     H_    0.844880 0.997748 0.754672 0.166182
H13   H     H_    0.895375 0.754266 0.070795 0.345899
H14   H     H_    0.829715 0.368040 0.752783 0.342811
H15   H     H_    0.432546 0.678570 0.333471 0.349206
H16   H     H_    0.970961 0.308426 0.288220 0.342718
H17   H     H_    0.354180 0.622380 0.195090 0.357634
H18   H     H_    0.165455 0.266110 0.709656 0.318865
H19   H     H_    0.004920 0.267582 0.941998 0.163632
H20   H     H_    0.838952 0.890938 0.620353 0.150696
H21   H     H_    0.634619 0.490605 0.227223 0.192831
H22   H     H_    0.713449 0.787134 0.609533 0.192834
H23   H     H_    0.168584 0.955470 0.432892 0.130453
H24   H     H_    0.301517 0.826684 0.355665 0.168347
H25   H     H_    0.164755 0.700184 0.237418 0.159198
O1    O     O_R   0.052180 0.090150 0.642360 -0.504992
O2    O     O_R   0.857610 0.447810 0.909840 -0.501688
O3    O     O_R   0.052190 0.462030 0.909810 -0.465349
O4    O     O_R   0.947790 0.090180 0.538000 -0.444981
O5    O     O_R   0.947820 0.357640 0.909820 -0.516973
O6    O     O_R   0.142370 0.552190 0.090140 -0.449270
O7    O     O_R   0.038000 0.447800 0.090150 -0.496622
O8    O     O_R   0.052170 0.642360 0.090160 -0.536007
O9    O     O_R   0.947800 0.537970 0.090170 -0.477389
O10   O     O_R   0.142370 0.090170 0.552180 -0.506220
O11   O     O_R   0.037980 0.090190 0.447820 -0.436826
O12   O     O_R   0.590200 0.447870 0.538030 -0.455103
O13   O     O_R   0.052210 0.909820 0.462000 -0.507021
O14   O     O_R   0.947820 0.909850 0.357640 -0.453510
O15   O     O_R   0.962020 0.909810 0.552180 -0.490532
O16   O     O_R   0.857630 0.909830 0.447820 -0.469766
O17   O     O_R   0.590160 0.552240 0.642380 -0.450395
O18   O     O_3   0.897126 0.741112 0.407926 -0.673232
O19   O     O_3   0.078965 0.030054 0.333522 -0.680796
O20   O     O_3   0.323398 0.971200 0.465918 -0.649249
O21   O     O_3   0.845377 0.619866 0.104431 -0.645553
O22   O     O_3   0.865369 0.772289 0.032141 -0.642138
O23   O     O_R   0.409810 0.462060 0.552200 -0.497495
O24   O     O_3   0.798897 0.373672 0.702941 -0.592829
O25   O     O_3   0.426538 0.624821 0.335324 -0.661327
O26   O     O_3   0.978903 0.351264 0.267727 -0.600727
O27   O     O_3   0.298899 0.616272 0.192960 -0.670327
O28   O     O_3   0.159537 0.241897 0.651377 -0.668648
O29   O     O_R   0.409850 0.357690 0.447850 -0.496622
O30   O     O_R   0.409800 0.552230 0.462030 -0.502966
O31   O     O_R   0.409840 0.447860 0.357670 -0.480917
O32   O     O_R   0.590160 0.642410 0.552210 -0.487073
O33   O     O_R   0.590200 0.538040 0.447850 -0.483045
O34   O     O_R   0.961980 0.552200 0.909830 -0.488721

loop_
_geom_bond_atom_site_label_1
_geom_bond_atom_site_label_2
_ccdc_geom_bond_type
C1    C10   S    
C27   H23   S    
C39   C57   S    
C4    C56   S    
C4    O11   A    
C16   O13   A    
C6    C7    A    
C38   C48   S    
C28   O15   A    
C62   C63   A    
H13   O22   S    
C68   C69   A    
C32   C33   A    
C27   C33   A    
Br6   C6    S    
Br5   C11   S    
C13   C14   A    
C20   C26   A    
Br7   C13   S    
H11   O21   S    
Cu4   O31   S    
H18   O28   S    
C22   C24   A    
C63   C65   A    
C52   H3    S    
C5    C6    A    
C2    O28   S    
Br11  C58   S    
Cu2   O11   S    
C32   C38   A    
C12   C74   A    
C23   C34   A    
C21   C22   A    
C44   C60   S    
C47   O6    A    
Cu3   O23   S    
C5    H12   S    
Br9   C19   S    
C44   O2    A    
C70   O25   S    
C25   H22   S    
Cu4   O29   S    
Cu2   O16   S    
C70   C71   A    
Cu3   O32   S    
C10   C11   A    
C57   C58   A    
C54   C60   A    
C43   O32   A    
Cu4   O12   S    
C40   C52   A    
C37   O21   S    
C48   O9    A    
Cu5   O3    S    
C27   C29   A    
C41   O23   A    
C8    C14   A    
C63   O26   S    
C1    O1    A    
C40   O19   S    
C8    C9    A    
C64   H7    S    
C34   C67   A    
Cu3   O17   S    
C39   O17   A    
C41   O29   A    
Cu5   O6    S    
C23   C74   A    
C46   O3    A    
C25   C26   A    
C33   C35   A    
C1    O4    A    
C61   C62   A    
C16   C35   S    
C29   O20   S    
C54   C55   A    
C39   O12   A    
C52   C64   A    
C71   C72   A    
H16   O26   S    
C66   C68   A    
Cu1   O13   S    
C65   C66   A    
C43   O33   A    
C61   H5    S    
C16   O14   A    
C48   O8    A    
C51   C53   A    
C53   H4    S    
C30   C31   A    
C24   C25   A    
C2    C76   A    
Br12  C49   S    
Cu6   O5    S    
C18   C19   A    
Cu5   O34   S    
C49   C50   A    
C37   C38   A    
C15   O18   S    
Br1   C3    S    
C7    C8    A    
C42   C69   S    
C24   H20   S    
Cu6   O2    S    
C55   C57   A    
C35   C36   A    
C50   H2    S    
C64   C73   A    
C36   C37   A    
Cu2   O4    S    
Cu3   O30   S    
Cu1   O1    S    
H8    O18   S    
C12   C56   A    
C29   C30   A    
C61   C68   A    
H15   O25   S    
C18   H21   S    
C66   C72   A    
C31   C32   A    
C42   O30   A    
C62   H6    S    
C71   O27   S    
C59   O24   S    
Br13  C65   S    
C3    C9    A    
C4    O10   A    
C73   C74   A    
C47   O7    A    
C11   C13   A    
C12   C40   A    
C59   C60   A    
C47   C72   S    
H17   O27   S    
C45   C56   A    
C42   O31   A    
Br4   C75   S    
Cu5   O8    S    
C46   O5    A    
C44   O34   A    
H9    O19   S    
C49   C55   A    
Br8   C17   S    
C19   C20   A    
C76   H1    S    
Cu4   O33   S    
C15   C17   A    
C67   C75   A    
C14   C46   S    
C53   C54   A    
H10   O20   S    
C7    H19   S    
Cu1   O15   S    
Cu1   Cu2   S    
C17   C18   A    
Cu2   O14   S    
C51   O22   S    
Br3   C67   S    
Cu3   Cu4   S    
C2    C45   A    
C20   C21   A    
Br2   C73   S    
H14   O24   S    
Cu5   Cu6   S    
C22   C28   S    
C23   C41   S    
C15   C21   A    
C50   C51   A    
Cu1   O10   S    
Cu6   O7    S    
C58   C59   A    
C75   C76   A    
C3    C5    A    
C69   C70   A    
Cu6   O9    S    
C26   C43   S    
C31   H25   S    
C9    C10   A    
Br10  C36   S    
C28   O16   A    
C30   H24   S    
C34   C45   A    
