data_mof_unit_46303.cif
_audit_creation_date              2012-12-11T20:21:45-0500
_audit_creation_method            fapswitch 2.2
_symmetry_space_group_name_H-M    P1
_symmetry_Int_Tables_number       1
_space_group_crystal_system       triclinic
_cell_length_a                    8.233038
_cell_length_b                    17.367344
_cell_length_c                    26.934939
_cell_angle_alpha                 99.566786
_cell_angle_beta                  92.592413
_cell_angle_gamma                 81.295334
_cell_volume                      3753.21650149

loop_
_atom_site_label
_atom_site_type_symbol
_atom_type_description
_atom_site_fract_x
_atom_site_fract_y
_atom_site_fract_z
_atom_type_partial_charge
Ba1   Ba    Ba6+2 0.860160 0.462360 0.521850 1.645303
Ba2   Ba    Ba6+2 0.329680 0.537570 0.478140 1.646079
C1    C     C_3   0.664539 0.189885 0.653065 -0.369287
C2    C     C_R   0.931329 0.583968 0.184176 0.586908
C3    C     C_2   0.761942 0.559301 0.275401 -0.095560
C4    C     C_3   0.172235 0.261928 0.649502 0.315028
C5    C     C_3   0.736044 0.582138 0.331434 -0.070663
C6    C     C_1   0.984379 0.488433 0.343203 0.040469
C7    C     C_2   0.026426 0.483609 0.295374 -0.085287
C8    C     C_2   0.908255 0.519081 0.258087 0.208779
C9    C     C_R   0.032747 0.510258 0.103546 -0.080694
C10   C     C_R   0.060842 0.441210 0.125773 -0.034168
C11   C     C_R   0.129384 0.370206 0.096420 -0.060319
C12   C     C_3   0.654073 0.267911 0.633650 0.368642
C13   C     C_R   0.966871 0.581924 0.133115 -0.025872
C14   C     C_2   0.847097 0.530479 0.362280 -0.276166
C15   C     C_2   0.355574 0.482737 0.640590 -0.279731
C16   C     C_3   0.110623 0.244099 0.698120 -0.361428
C17   C     C_R   0.186962 0.434263 0.971662 0.019966
C18   C     C_R   0.066913 0.574665 0.977531 0.020327
C19   C     C_R   0.145676 0.503441 0.949031 0.049388
C20   C     C_R   0.270981 0.365894 0.942036 -0.099434
C21   C     C_R   0.309485 0.365027 0.892009 -0.062839
C22   C     C_R   0.266136 0.432152 0.868910 -0.033071
C23   C     C_3   0.489756 0.664987 0.634574 0.304777
C24   C     C_R   0.183686 0.501490 0.897340 -0.078642
C25   C     C_R   0.139422 0.568990 0.874104 -0.031876
C26   C     C_R   0.178867 0.566578 0.823206 0.585033
C27   C     C_R   0.304173 0.431407 0.817991 0.587512
C28   C     C_3   0.249544 0.295794 0.404002 0.326044
C29   C     C_2   0.461529 0.482367 0.728799 -0.077254
C30   C     C_3   0.503922 0.489008 0.675427 -0.062284
C31   C     C_1   0.210061 0.516363 0.657611 0.046606
C32   C     C_2   0.170856 0.517045 0.705051 -0.094357
C33   C     C_2   0.302588 0.497665 0.743472 0.212460
C34   C     C_3   0.477559 0.694541 0.690877 -0.386772
C35   C     C_R   0.143890 0.435757 0.022846 0.019796
C36   C     C_R   0.070908 0.507846 0.051813 0.049260
C37   C     C_R   0.035720 0.577698 0.029657 0.020383
C38   C     C_R   0.170514 0.367452 0.046358 -0.099601
C39   C     C_R   0.938647 0.650754 0.111276 -0.062705
C40   C     C_3   0.307820 0.209438 0.380661 -0.241581
C41   C     C_R   0.020824 0.640625 0.952538 -0.101310
C42   C     C_R   0.056542 0.637754 0.902189 -0.063249
C43   C     C_R   0.971636 0.648812 0.060868 -0.101934
C44   C     C_2   0.442922 0.278595 0.513025 -0.248574
C45   C     C_3   0.962655 0.743278 0.349075 0.328346
C46   C     C_3   0.374512 0.227608 0.544839 -0.044885
C47   C     C_2   0.427591 0.140752 0.528828 -0.119569
C48   C     C_2   0.555761 0.115368 0.497628 0.013891
C49   C     C_2   0.636141 0.174410 0.476906 -0.126007
C50   C     C_1   0.572645 0.249978 0.484825 0.047412
C51   C     C_R   0.777581 0.860135 0.465628 -0.138729
C52   C     C_3   0.987268 0.705193 0.588570 0.287834
C53   C     C_R   0.847569 0.781904 0.465800 0.010246
C54   C     C_R   0.615035 0.759151 0.509789 0.045696
C55   C     C_R   0.543138 0.837421 0.510042 -0.119649
C56   C     C_3   0.962401 0.782348 0.302008 -0.206761
C57   C     C_R   0.622929 0.888496 0.487409 0.008145
C58   C     C_2   0.629649 0.031263 0.487331 -0.090490
C59   C     C_2   0.545295 0.971681 0.490376 -0.091981
C60   C     C_R   0.763020 0.731023 0.485827 -0.273791
C61   C     C_3   0.005313 0.793014 0.601574 -0.254789
C62   C     C_3   0.693136 0.365481 0.369206 0.291644
C63   C     C_3   0.699574 0.346280 0.312098 -0.364062
C64   C     C_3   0.211687 0.151623 0.400477 -0.417205
C65   C     C_R   0.859460 0.841923 0.629285 0.041390
C66   C     C_R   0.770829 0.906117 0.609502 -0.071232
C67   C     C_3   0.465722 0.747020 0.372685 0.408689
C68   C     C_R   0.633971 0.950959 0.634376 -0.062538
C69   C     C_R   0.586150 0.933079 0.679728 -0.042499
C70   C     C_R   0.676104 0.870794 0.700473 -0.056936
C71   C     C_R   0.812660 0.825560 0.675571 -0.007901
C72   C     C_R   0.946815 0.871587 0.313241 0.070136
C73   C     C_R   0.058845 0.911082 0.292865 -0.061372
C74   C     C_R   0.041427 0.993685 0.301450 -0.069499
C75   C     C_R   0.910785 0.037712 0.329805 -0.056730
C76   C     C_R   0.797719 0.999222 0.349772 -0.071257
C77   C     C_R   0.814716 0.916666 0.341211 -0.054153
C78   C     C_3   0.421520 0.825744 0.354324 -0.375643
C79   C     C_R   0.018298 0.444423 0.176725 0.593224
H1    H     H_    0.741398 0.259174 0.601957 0.086147
H2    H     H_    0.634152 0.143147 0.621917 0.064370
H3    H     H_    0.803605 0.298827 0.300671 0.133676
H4    H     H_    0.716615 0.399433 0.296259 0.073800
H5    H     H_    0.582808 0.326428 0.296589 0.128238
H6    H     H_    0.526122 0.285536 0.620757 -0.072017
H7    H     H_    0.576233 0.195706 0.684107 0.126776
H8    H     H_    0.366652 0.652099 0.620138 0.026552
H9    H     H_    0.580415 0.610204 0.628250 0.034724
H10   H     H_    0.395489 0.752043 0.697833 0.130839
H11   H     H_    0.425862 0.651728 0.709656 0.081072
H12   H     H_    0.442323 0.193248 0.389331 0.078599
H13   H     H_    0.601385 0.702047 0.707353 0.114893
H14   H     H_    0.791447 0.172080 0.667442 0.130884
H15   H     H_    0.191001 0.265400 0.730190 0.121892
H16   H     H_    0.978926 0.677990 0.337431 0.034628
H17   H     H_    0.841175 0.763040 0.366481 -0.066572
H18   H     H_    0.075819 0.756718 0.280609 0.126586
H19   H     H_    0.855401 0.767174 0.277802 0.113387
H20   H     H_    0.600415 0.737258 0.379063 -0.105852
H21   H     H_    0.406746 0.750714 0.409372 0.097192
H22   H     H_    0.465820 0.873083 0.382288 0.067306
H23   H     H_    0.293339 0.201954 0.338362 0.143935
H24   H     H_    0.286575 0.840392 0.350574 0.156774
H25   H     H_    0.166435 0.327212 0.652719 0.041414
H26   H     H_    0.478388 0.823373 0.317302 0.106170
H27   H     H_    0.148266 0.455538 0.283230 0.121762
H28   H     H_    0.152144 0.315877 0.112166 0.119811
H29   H     H_    0.559945 0.471274 0.756069 0.096753
H30   H     H_    0.374204 0.310947 0.871351 0.117922
H31   H     H_    0.311653 0.311838 0.956573 0.067544
H32   H     H_    0.220772 0.310019 0.026846 0.067712
H33   H     H_    0.671680 0.584923 0.249855 0.109933
H34   H     H_    0.858251 0.697884 0.579058 -0.003037
H35   H     H_    0.889579 0.707068 0.133186 0.117447
H36   H     H_    0.953854 0.695611 0.970533 0.067656
H37   H     H_    0.301729 0.232742 0.645432 -0.027056
H38   H     H_    0.018472 0.690284 0.885247 0.118978
H39   H     H_    0.044171 0.533391 0.716654 0.118363
H40   H     H_    0.948132 0.704996 0.047880 0.067406
H41   H     H_    0.826722 0.540205 0.402498 0.081394
H42   H     H_    0.368289 0.451224 0.602288 0.071353
H43   H     H_    0.414991 0.984458 0.498231 0.079717
H44   H     H_    0.743729 0.154350 0.453661 0.076657
H45   H     H_    0.063175 0.679783 0.555233 0.078021
H46   H     H_    0.844473 0.897396 0.448474 0.068381
H47   H     H_    0.759176 0.019584 0.478785 0.079956
H48   H     H_    0.373680 0.100481 0.547682 0.061256
H49   H     H_    0.983365 0.274601 0.705058 0.164488
H50   H     H_    0.428742 0.859187 0.529426 0.086021
H51   H     H_    0.399500 0.341538 0.519949 0.072384
H52   H     H_    0.817580 0.670305 0.485813 0.060075
H53   H     H_    0.112974 0.179390 0.695854 0.105803
H54   H     H_    0.359274 0.326303 0.411538 0.012582
H55   H     H_    0.185853 0.299681 0.440446 0.047184
H56   H     H_    0.021721 0.815267 0.566047 0.066987
H57   H     H_    0.076332 0.171108 0.397362 0.157127
H58   H     H_    0.241915 0.091515 0.378298 0.121347
H59   H     H_    0.247811 0.148106 0.440580 0.144568
H60   H     H_    0.807976 0.921773 0.574939 0.070367
H61   H     H_    0.565306 0.999689 0.618520 0.061142
H62   H     H_    0.480271 0.967897 0.699028 0.059981
H63   H     H_    0.639921 0.857497 0.735881 0.060737
H64   H     H_    0.881026 0.777881 0.692436 0.103388
H65   H     H_    0.159483 0.878048 0.270143 0.063463
H66   H     H_    0.128680 0.023591 0.285823 0.068815
H67   H     H_    0.118854 0.800030 0.624801 0.110922
H68   H     H_    0.896267 0.101634 0.335886 0.074257
H69   H     H_    0.695977 0.033349 0.371518 0.064304
H70   H     H_    0.724417 0.888246 0.356272 0.052565
H71   H     H_    0.811894 0.382568 0.384110 0.020257
H72   H     H_    0.593426 0.415493 0.379485 0.079503
N1    N     N_R   0.953109 0.515430 0.205523 -0.420858
N2    N     N_R   0.260911 0.498340 0.795676 -0.424912
O1    O     O_2   0.906370 0.542040 0.619810 -0.460869
O2    O     O_2   0.182806 0.781219 0.477363 -0.503434
O3    O     O_3   0.091788 0.763506 0.382286 -0.591005
O4    O     O_3   0.138370 0.541980 0.559630 -0.491510
O5    O     O_3   0.572820 0.404940 0.471170 -0.496198
O6    O     O_2   0.345130 0.693150 0.532000 -0.468467
O7    O     O_3   0.541140 0.723409 0.611326 -0.636726
O8    O     O_2   0.419361 0.532197 0.323943 -0.484553
O9    O     O_3   0.411636 0.686236 0.337312 -0.573617
O10   O     O_2   0.037525 0.383763 0.195105 -0.600696
O11   O     O_2   0.374772 0.370942 0.793439 -0.602204
O12   O     O_3   0.663835 0.298530 0.388029 -0.645569
O13   O     O_2   0.882143 0.647399 0.209832 -0.631486
O14   O     O_2   0.142071 0.625740 0.803610 -0.604511
O15   O     O_3   0.686580 0.398330 0.583860 -0.486677
O16   O     O_2   0.847224 0.442457 0.669303 -0.480771
O17   O     O_3   0.038258 0.668442 0.630292 -0.646120
O18   O     O_3   0.694621 0.326148 0.672965 -0.590806
O19   O     O_2   0.844570 0.306830 0.467970 -0.442608
O20   O     O_3   0.101900 0.357890 0.557750 -0.472123
O21   O     O_2   0.047798 0.216667 0.509936 -0.485100
O22   O     O_3   0.075075 0.231890 0.608485 -0.588201
O23   O     O_2   0.283330 0.457940 0.380160 -0.468696
O24   O     O_3   0.051340 0.457960 0.440360 -0.487212
O25   O     O_3   0.503130 0.601610 0.416130 -0.480104
O26   O     O_3   0.142451 0.331589 0.369439 -0.636217
O27   O     O_3   0.616890 0.595000 0.528820 -0.476931
O28   O     O_3   0.087820 0.642040 0.442240 -0.475379
P1    P     P_3+3 0.071770 0.565500 0.613330 0.992585
P2    P     P_3+3 0.664870 0.318630 0.453960 0.971505
P3    P     P_3+3 0.149253 0.256039 0.554032 0.954213
P4    P     P_3+3 0.117940 0.434440 0.386660 0.991474
P5    P     P_3+3 0.053129 0.743623 0.441964 0.947712
P6    P     P_3+3 0.682037 0.415542 0.650019 0.980766
P7    P     P_3+3 0.531646 0.694512 0.546018 0.950396
P8    P     P_3+3 0.517208 0.596876 0.351134 0.966225

loop_
_geom_bond_atom_site_label_1
_geom_bond_atom_site_label_2
_ccdc_geom_bond_type
C2    N1    Am   
C19   C24   A    
C3    H33   S    
C9    C36   A    
C40   H12   S    
C16   H15   S    
O2    P5    D    
C41   C42   A    
C8    N1    S    
C51   C57   A    
C63   H5    S    
C75   C76   A    
C7    H27   S    
C52   H45   S    
O15   P6    S    
C56   C72   S    
C23   H9    S    
C45   H17   S    
C15   C31   D    
C62   H71   S    
C59   H43   S    
C60   H52   S    
C77   H70   S    
C17   C19   A    
C33   N2    S    
C12   H6    S    
Ba1   Ba2   S    
C62   O12   S    
O19   P2    D    
C44   H51   S    
C36   C37   A    
C55   C57   A    
O24   P4    S    
C52   C61   S    
O12   P2    S    
C53   C60   A    
C44   C50   D    
Ba1   O15   S    
C54   C55   A    
O16   P6    D    
C32   C33   S    
Ba2   O27   S    
C14   H41   S    
Ba2   P4    S    
C11   C38   A    
C11   H28   S    
C51   H46   S    
C22   C27   A    
C9    C13   A    
C25   C42   A    
C15   H42   S    
C64   H58   S    
C29   C30   S    
C74   H66   S    
Ba2   O4    S    
C6    P4    S    
C10   C79   A    
C26   N2    Am   
C21   C22   A    
C67   O9    S    
C68   C69   A    
C65   C71   A    
O4    P1    S    
O9    P8    S    
C17   C35   A    
C7    C8    S    
C27   N2    Am   
C34   H11   S    
C6    C14   D    
C32   H39   S    
C61   H56   S    
C5    P8    S    
Ba2   O25   S    
O5    P2    S    
Ba2   O6    S    
Ba1   P1    S    
O27   P7    S    
C48   C49   S    
C44   C46   S    
C51   C53   A    
C73   H65   S    
O1    P1    D    
C4    C16   S    
C61   C65   S    
Ba1   O19   S    
C57   C59   S    
C68   H61   S    
C72   C73   A    
C78   H22   S    
C65   C66   A    
C49   H44   S    
C52   O17   S    
C58   H47   S    
C17   C20   A    
C56   H19   S    
C74   C75   A    
C13   C39   A    
C70   C71   A    
C75   H68   S    
C3    C5    S    
C18   C37   A    
C76   C77   A    
C6    C7    D    
C63   H3    S    
C42   H38   S    
C43   H40   S    
C67   H21   S    
C47   H48   S    
C62   H72   S    
C79   N1    Am   
C49   C50   D    
C71   H64   S    
C58   C59   D    
C27   O11   D    
Ba1   O1    S    
C73   C74   A    
C46   P3    S    
C35   C36   A    
C34   H13   S    
O17   P1    S    
C38   H32   S    
C64   H57   S    
Ba1   O4    S    
C23   O7    S    
C9    C10   A    
C52   H34   S    
C31   P1    S    
C31   C32   D    
C24   C25   A    
C66   H60   S    
C54   P7    S    
C53   P5    S    
C18   C19   A    
O21   P3    D    
C4    H25   S    
C1    C12   S    
C41   H36   S    
O23   P4    D    
C34   H10   S    
C66   C68   A    
C46   C47   S    
C28   H54   S    
O3    P5    S    
C72   C77   A    
C4    O22   S    
C1    H2    S    
C28   O26   S    
C54   C60   A    
C16   H49   S    
Ba2   O24   S    
C12   H1    S    
C39   H35   S    
C35   C38   A    
C61   H67   S    
O7    P7    S    
C18   C41   A    
C76   H69   S    
C69   H62   S    
C70   H63   S    
Ba1   O20   S    
C79   O10   D    
C1    H7    S    
C55   H50   S    
Ba1   O5    S    
C5    C14   S    
C56   H18   S    
C22   C24   A    
O6    P7    D    
O25   P8    S    
C40   H23   S    
C1    H14   S    
Ba1   O27   S    
C63   H4    S    
C67   H20   S    
C12   O18   S    
C21   H30   S    
C23   H8    S    
C45   H16   S    
C37   C43   A    
C48   C58   S    
Ba1   P2    S    
C2    C13   A    
C69   C70   A    
O28   P5    S    
C62   C63   S    
C45   C56   S    
C78   H26   S    
Ba1   O24   S    
C78   H24   S    
O18   P6    S    
C29   H29   S    
C30   P6    S    
C16   H53   S    
C29   C33   D    
Ba2   O28   S    
O22   P3    S    
C23   C34   S    
C2    O13   D    
C26   O14   D    
C3    C8    D    
C64   H59   S    
C10   C11   A    
Ba2   O5    S    
C47   C48   D    
C50   P2    S    
C25   C26   A    
C40   C64   S    
C15   C30   S    
C39   C43   A    
C20   C21   A    
C28   C40   S    
C67   C78   S    
O8    P8    D    
Ba2   O23   S    
C28   H55   S    
C4    H37   S    
O26   P4    S    
C20   H31   S    
O20   P3    S    
C45   O3    S    
