data_mof_unit_31279.cif
_audit_creation_date              2012-12-10T20:27:54-0500
_audit_creation_method            fapswitch 2.2
_symmetry_space_group_name_H-M    P1
_symmetry_Int_Tables_number       1
_space_group_crystal_system       triclinic
_cell_length_a                    12.862063
_cell_length_b                    10.708341
_cell_length_c                    9.8529
_cell_angle_alpha                 90.161288
_cell_angle_beta                  97.293128
_cell_angle_gamma                 89.579194
_cell_volume                      1346.03555287

loop_
_atom_site_label
_atom_site_type_symbol
_atom_type_description
_atom_site_fract_x
_atom_site_fract_y
_atom_site_fract_z
_atom_type_partial_charge
C1    C     C_R   0.502400 0.260116 0.499991 0.876466
C2    C     C_R   0.028655 0.534679 0.562678 -0.021571
C3    C     C_R   0.973062 0.473267 0.447669 0.075405
C4    C     C_R   0.866259 0.458673 0.439651 -0.235652
C5    C     C_R   0.868155 0.550063 0.665209 -0.262583
C6    C     C_R   0.975666 0.565379 0.676190 0.435560
C7    C     C_R   0.550403 0.064090 0.618210 0.052381
C8    C     C_R   0.515111 0.128695 0.498695 -0.054359
C9    C     C_R   0.496333 0.064183 0.374045 -0.207920
C10   C     C_R   0.494744 0.935505 0.374615 -0.196185
C11   C     C_R   0.511364 0.871753 0.499822 -0.052948
C12   C     C_R   0.298224 0.503300 0.473089 0.947199
C13   C     C_R   0.546903 0.936887 0.619381 0.018667
C14   C     C_3   0.520841 0.934016 0.763539 0.243540
C15   C     C_3   0.525326 0.076031 0.761552 -0.494539
C16   C     C_R   0.449302 0.408321 0.062677 0.194903
C17   C     C_R   0.557793 0.583641 0.081846 -0.100024
C18   C     C_R   0.557877 0.583567 0.937790 -0.061911
C19   C     C_R   0.449184 0.408406 0.920026 0.184118
C20   C     C_3   0.334861 0.380633 0.895654 -0.435763
C21   C     C_3   0.335146 0.380381 0.049762 -0.479727
C22   C     C_R   0.500967 0.740050 0.500237 0.922344
C23   C     C_R   0.701810 0.499105 0.527140 0.895974
C24   C     C_R   0.813863 0.501744 0.545291 -0.111985
C25   C     C_R   0.185932 0.504952 0.456863 -0.161065
C26   C     C_R   0.024136 0.428357 0.340404 -0.141507
C27   C     C_R   0.131238 0.440231 0.347523 -0.224439
C28   C     C_R   0.134184 0.561703 0.558131 0.343405
H1    H     H_    0.823414 0.415580 0.349730 0.164791
H2    H     H_    0.583822 0.890458 0.836178 0.092869
H3    H     H_    0.448861 0.123537 0.767527 0.235314
H4    H     H_    0.592197 0.114279 0.831489 0.174161
H5    H     H_    0.602797 0.652715 0.143920 0.148124
H6    H     H_    0.603056 0.652398 0.891007 0.133888
H7    H     H_    0.287772 0.458502 0.844278 0.271203
H8    H     H_    0.319112 0.287296 0.848193 0.200150
H9    H     H_    0.288439 0.458216 0.086891 0.243514
H10   H     H_    0.319841 0.286855 0.091381 0.199342
H11   H     H_    0.826811 0.577368 0.749994 0.188106
H12   H     H_    0.981790 0.380174 0.253732 0.158493
H13   H     H_    0.171463 0.397552 0.268870 0.174209
H14   H     H_    0.475658 0.112232 0.277620 0.172804
H15   H     H_    0.473765 0.887183 0.278362 0.185515
N1    N     N_R   0.499290 0.499140 0.142710 -0.107728
N2    N     N_R   0.499290 0.499180 0.857070 -0.097715
O1    O     O_R   0.500010 0.316790 0.614690 -0.625331
O2    O     O_R   0.500000 0.316760 0.385350 -0.633267
O3    O     O_R   0.346360 0.499990 0.595720 -0.580021
O4    O     O_R   0.346350 0.499960 0.366370 -0.623969
O5    O     O_R   0.500000 0.683240 0.614650 -0.577705
O6    O     O_R   0.499990 0.683210 0.385310 -0.636048
O7    O     O_R   0.653650 0.500040 0.633630 -0.635732
O8    O     O_R   0.653640 0.500010 0.404280 -0.625918
Zn1   Zn    Zn3+2 0.500010 0.500020 0.653130 0.997587
Zn2   Zn    Zn3+2 0.499990 0.499980 0.346870 0.959627
Cl1   Cl    Cl    0.037715 0.607302 0.839986 -0.550583
Cl2   Cl    Cl    0.197777 0.683552 0.657882 -0.455041
Cl3   Cl    Cl    0.392053 0.879653 0.779123 -0.498421

loop_
_geom_bond_atom_site_label_1
_geom_bond_atom_site_label_2
_ccdc_geom_bond_type
C2    C28   A    
C23   C24   S    
C19   N2    A    
C15   H3    S    
C16   C21   S    
C25   C27   A    
C1    C8    S    
C11   C13   A    
C9    C10   A    
C16   N1    A    
C11   C22   S    
C19   C20   S    
C12   O3    A    
C12   C25   S    
C22   O5    A    
O4    Zn2   S    
O1    Zn1   S    
C7    C15   S    
C17   C18   A    
C9    H14   S    
C17   N1    A    
C7    C8    A    
C2    C6    A    
C13   C14   S    
C25   C28   A    
O3    Zn1   S    
C18   H6    S    
N1    Zn2   S    
C26   H12   S    
C23   O7    A    
O5    Zn1   S    
C5    C24   A    
C17   H5    S    
C14   H2    S    
C16   C19   A    
C4    C24   A    
O7    Zn1   S    
N2    Zn1   S    
C23   O8    A    
O6    Zn2   S    
C5    H11   S    
C26   C27   A    
C5    C6    A    
C14   Cl3   S    
C1    O1    A    
C22   O6    A    
C12   O4    A    
C10   C11   A    
O8    Zn2   S    
C3    C4    A    
C20   H8    S    
C18   N2    A    
C7    C13   A    
C21   H9    S    
C20   C21   S    
O2    Zn2   S    
C27   H13   S    
C14   C15   S    
C1    O2    A    
C2    C3    A    
C10   H15   S    
C28   Cl2   S    
C20   H7    S    
C3    C26   A    
C21   H10   S    
C4    H1    S    
C6    Cl1   S    
C8    C9    A    
C15   H4    S    
