data_mof_unit_18335.cif
_audit_creation_date              2012-12-11T15:41:19-0500
_audit_creation_method            fapswitch 2.2
_symmetry_space_group_name_H-M    P1
_symmetry_Int_Tables_number       1
_space_group_crystal_system       triclinic
_cell_length_a                    14.934392
_cell_length_b                    15.00666
_cell_length_c                    15.071909
_cell_angle_alpha                 109.061223
_cell_angle_beta                  109.06328
_cell_angle_gamma                 109.890942
_cell_volume                      2612.83088089

loop_
_atom_site_label
_atom_site_type_symbol
_atom_type_description
_atom_site_fract_x
_atom_site_fract_y
_atom_site_fract_z
_atom_type_partial_charge
C1    C     C_R   0.248087 0.062432 0.972649 -0.132540
C2    C     C_R   0.805645 0.009244 0.097785 -0.147908
C3    C     C_R   0.778462 0.323153 0.323456 -0.179178
C4    C     C_R   0.142254 0.692600 0.693477 -0.159394
C5    C     C_R   0.499985 0.943145 0.304016 -0.114082
C6    C     C_R   0.504798 0.959542 0.678324 -0.129021
C7    C     C_R   0.502421 0.295787 0.925263 0.022866
C8    C     C_R   0.503491 0.676925 0.960365 0.040730
C9    C     C_R   0.253740 0.093789 0.600670 -0.283255
C10   C     C_R   0.702448 0.790266 0.294836 -0.320663
C11   C     C_R   0.339066 0.201219 0.668901 -0.184141
C12   C     C_R   0.634120 0.699019 0.192412 -0.176194
C13   C     C_R   0.326006 0.277810 0.738685 0.037384
C14   C     C_R   0.675499 0.671144 0.122999 0.035808
C15   C     C_R   0.224254 0.247497 0.734456 -0.330473
C16   C     C_R   0.787518 0.731699 0.159555 -0.360839
C17   C     C_R   0.139697 0.138789 0.670237 0.540426
C18   C     C_R   0.856752 0.825029 0.261508 0.500620
C19   C     C_R   0.154960 0.060171 0.603701 0.440115
C20   C     C_R   0.813727 0.855650 0.329759 0.500024
C21   C     C_R   0.424622 0.480157 0.843458 -0.253654
C22   C     C_R   0.604313 0.486917 0.986436 -0.261654
C23   C     C_R   0.751589 0.221741 0.313303 -0.182315
C24   C     C_R   0.200370 0.788449 0.698332 -0.172063
C25   C     C_R   0.510147 0.578409 0.936424 0.054397
C26   C     C_R   0.511283 0.386757 0.905807 0.049966
C27   C     C_R   0.599521 0.580728 0.010334 0.080840
C28   C     C_R   0.422846 0.382623 0.828616 0.090546
C29   C     C_R   0.957607 0.479972 0.413295 -0.115314
C30   C     C_R   0.955158 0.542176 0.608454 -0.105070
C31   C     C_R   0.045471 0.572127 0.503709 -0.206079
C32   C     C_R   0.865086 0.449834 0.516264 -0.216026
C33   C     C_R   0.044481 0.602280 0.600856 0.185550
C34   C     C_R   0.867091 0.420018 0.419296 0.168564
C35   C     C_R   0.570478 0.044801 0.586157 -0.158465
C36   C     C_R   0.446066 0.843749 0.395188 -0.158624
C37   C     C_R   0.565368 0.041041 0.492962 -0.189651
C38   C     C_R   0.451602 0.847461 0.489919 -0.214438
C39   C     C_R   0.502766 0.941067 0.398048 0.147112
C40   C     C_R   0.512129 0.948576 0.584097 0.166139
C41   C     C_R   0.112540 0.042902 0.146728 0.651406
C42   C     C_R   0.044537 0.167346 0.066994 0.651198
C43   C     C_R   0.032480 0.062733 0.159800 -0.396166
C44   C     C_R   0.135358 0.159747 0.066754 -0.412024
C45   C     C_R   0.408676 0.909195 0.211308 -0.207278
C46   C     C_R   0.594453 0.029726 0.780299 -0.218814
C47   C     C_R   0.986604 0.108793 0.105253 -0.090209
C48   C     C_R   0.160482 0.086745 0.093103 -0.098723
C49   C     C_R   0.591096 0.291862 0.985176 -0.075436
C50   C     C_R   0.410094 0.685170 0.942238 -0.166127
C51   C     C_R   0.590818 0.999474 0.299640 0.503320
C52   C     C_R   0.411166 0.942457 0.686848 0.540996
C53   C     C_R   0.410506 0.208343 0.903680 -0.118664
C54   C     C_R   0.593015 0.780493 0.025369 -0.080188
C55   C     C_R   0.745143 0.312603 0.221405 0.604632
C56   C     C_R   0.199449 0.696380 0.787555 0.609998
C57   C     C_R   0.252696 0.973083 0.066018 -0.159311
C58   C     C_R   0.804626 0.098369 0.005717 -0.128556
C59   C     C_R   0.221947 0.046013 0.049398 0.133477
C60   C     C_R   0.870582 0.074090 0.070651 0.122959
H1    H     H_    0.235157 0.113485 0.939365 0.104248
H2    H     H_    0.832104 0.986220 0.158092 0.117634
H3    H     H_    0.266483 0.035840 0.548725 0.186377
H4    H     H_    0.667914 0.811201 0.346048 0.145846
H5    H     H_    0.417116 0.223534 0.671107 0.147155
H6    H     H_    0.548023 0.651741 0.165758 0.146886
H7    H     H_    0.214077 0.306088 0.789127 0.172611
H8    H     H_    0.819940 0.709438 0.106524 0.161603
H9    H     H_    0.356613 0.478701 0.786305 0.146369
H10   H     H_    0.673807 0.491852 0.044694 0.144798
H11   H     H_    0.961315 0.454476 0.339151 0.159698
H12   H     H_    0.955474 0.566446 0.684622 0.142492
H13   H     H_    0.116080 0.617521 0.498798 0.145405
H14   H     H_    0.794996 0.401736 0.520163 0.129776
H15   H     H_    0.615498 0.123425 0.658612 0.121239
H16   H     H_    0.398168 0.766675 0.320731 0.123961
H17   H     H_    0.608330 0.116437 0.494198 0.127456
H18   H     H_    0.406124 0.773415 0.489428 0.129023
H19   H     H_    0.772595 0.203277 0.377987 0.200781
H20   H     H_    0.169023 0.817026 0.644987 0.208819
H21   H     H_    0.998016 0.028843 0.201592 0.193520
H22   H     H_    0.181019 0.204867 0.038611 0.162869
H23   H     H_    0.324858 0.854138 0.185549 0.124761
H24   H     H_    0.679729 0.065512 0.801612 0.132689
H25   H     H_    0.673645 0.336159 0.000651 0.144871
H26   H     H_    0.326791 0.619094 0.896336 0.170127
H27   H     H_    0.326104 0.180322 0.852407 0.109824
H28   H     H_    0.677730 0.804578 0.050902 0.106305
H29   H     H_    0.249798 0.943787 0.121325 0.177846
H30   H     H_    0.829081 0.157358 0.980286 0.158989
N1    N     N_R   0.293810 0.002730 0.945950 -0.043848
N2    N     N_R   0.706190 0.997270 0.054050 -0.045252
N3    N     N_R   0.706160 0.152130 0.208910 -0.061782
N4    N     N_R   0.293840 0.847870 0.791090 -0.068751
N5    N     N_R   0.443140 0.945920 0.152090 -0.070304
N6    N     N_R   0.556860 0.054080 0.847910 -0.068196
N7    N     N_R   0.556830 0.208940 0.002760 -0.052100
N8    N     N_R   0.443170 0.791060 0.997240 -0.050118
N9    N     N_R   0.556790 0.002750 0.208910 -0.064590
N10   N     N_R   0.443210 0.997250 0.791090 -0.065096
N11   N     N_R   0.443180 0.152110 0.945950 -0.052007
N12   N     N_R   0.556820 0.847890 0.054050 -0.039940
N13   N     N_R   0.706170 0.208950 0.152090 -0.096350
N14   N     N_R   0.293830 0.791050 0.847910 -0.108884
N15   N     N_R   0.293800 0.945910 0.002760 -0.064269
N16   N     N_R   0.706200 0.054090 0.997240 -0.053368
Ni1   Ni    Ni4+2 0.369690 0.999990 0.869700 0.228335
Ni2   Ni    Ni4+2 0.630310 0.000010 0.130300 0.256517
Ni3   Ni    Ni4+2 0.369670 0.869670 0.000000 0.187832
Ni4   Ni    Ni4+2 0.630330 0.130330 0.000000 0.217815
O1    O     O_3   0.046355 0.112261 0.679416 -0.762549
H31   H     H_    0.999818 0.032118 0.641375 0.360620
O2    O     O_3   0.965011 0.884616 0.290487 -0.768460
H32   H     H_    0.001850 0.953584 0.358687 0.369656
O3    O     O_3   0.141200 0.979526 0.185672 -0.617278
C61   C     C_3   0.056932 0.869395 0.116759 -0.245967
H33   H     H_    0.042119 0.840321 0.032545 0.102996
H34   H     H_    0.979254 0.856233 0.116992 0.181594
H35   H     H_    0.082589 0.818546 0.145936 0.182144
O4    O     O_3   0.015716 0.235602 0.036424 -0.634973
C62   C     C_3   0.000624 0.211830 0.932052 -0.253105
H36   H     H_    0.956915 0.122609 0.875267 0.138392
H37   H     H_    0.080094 0.253524 0.935675 0.169862
H38   H     H_    0.949371 0.243999 0.898666 0.171621
O5    O     O_3   0.696138 0.023912 0.360475 -0.779144
H39   H     H_    0.698626 0.003882 0.417265 0.308377
O6    O     O_3   0.306666 0.898100 0.605728 -0.816974
H40   H     H_    0.304461 0.868786 0.535607 0.312627
O7    O     O_3   0.770041 0.395930 0.196808 -0.646701
C63   C     C_3   0.732403 0.464701 0.240076 -0.274077
H41   H     H_    0.773425 0.506234 0.329332 0.156483
H42   H     H_    0.642087 0.419133 0.205413 0.145923
H43   H     H_    0.752522 0.530430 0.219186 0.181407
O8    O     O_3   0.157846 0.623131 0.819886 -0.636271
C64   C     C_3   0.158895 0.677742 0.916354 -0.318495
H44   H     H_    0.120836 0.729384 0.910901 0.136036
H45   H     H_    0.242983 0.726323 0.985977 0.159105
H46   H     H_    0.109672 0.615975 0.931246 0.180719
O9    O     O_3   0.074538 0.951841 0.545186 -0.750835
H47   H     H_    0.099581 0.908219 0.505460 0.343621
O10   O     O_3   0.880880 0.949227 0.428836 -0.729320
H48   H     H_    0.838774 0.956390 0.467115 0.326802

loop_
_geom_bond_atom_site_label_1
_geom_bond_atom_site_label_2
_ccdc_geom_bond_type
N11   Ni1   S    
C64   H46   S    
C57   N15   A    
N1    N15   A    
C3    C23   A    
O1    H31   S    
N3    N13   A    
C64   H44   S    
N9    Ni2   S    
C35   H15   S    
C7    C26   S    
C57   H29   S    
N13   Ni4   S    
C35   C37   A    
O7    C63   S    
C44   H22   S    
C1    C59   A    
N3    Ni2   S    
C32   H14   S    
N14   Ni3   S    
C4    C24   A    
C2    C60   A    
C31   H13   S    
C58   C60   A    
O3    C61   S    
C55   N13   A    
C61   H33   S    
C15   C17   A    
C12   H6    S    
C62   H38   S    
N15   Ni3   S    
C36   H16   S    
C24   H20   S    
C47   C60   S    
C3    C55   A    
N2    Ni2   S    
C53   N11   A    
C55   O7    S    
C31   C33   A    
C13   C28   S    
N12   Ni2   S    
C16   H8    S    
C10   C20   A    
C14   C27   S    
C30   C32   A    
C18   C20   A    
N4    N14   A    
C1    N1    A    
N8    Ni3   S    
C5    C45   A    
C4    C56   A    
C8    C25   S    
C41   C43   A    
C45   H23   S    
C42   C44   A    
C41   O3    S    
C17   O1    S    
C18   O2    S    
C52   O6    S    
C9    C19   A    
C51   N9    A    
N4    Ni1   S    
C50   N8    A    
C51   O5    S    
C49   H25   S    
C6    C40   S    
C7    C49   A    
N5    Ni3   S    
C8    C54   A    
C38   H18   S    
C3    C34   S    
N8    N12   A    
N6    Ni4   S    
C29   C34   A    
C52   N10   A    
C23   N3    A    
C21   H9    S    
C58   N16   A    
C32   C34   A    
C63   H42   S    
C24   N4    A    
C58   H30   S    
C56   O8    S    
C15   H7    S    
C53   H27   S    
C16   C18   A    
C2    N2    A    
C9    C11   A    
C56   N14   A    
C62   H36   S    
C10   C12   A    
C46   H24   S    
N2    N16   A    
C21   C28   A    
C12   C14   A    
C22   C27   A    
C13   C15   A    
O5    H39   S    
C43   H21   S    
C14   C16   A    
C63   H43   S    
C7    C53   A    
O6    H40   S    
C45   N5    A    
C8    C50   A    
O4    C62   S    
C48   C59   S    
O2    H32   S    
N16   Ni4   S    
C64   H45   S    
C21   C25   A    
C4    C33   S    
N10   Ni1   S    
C6    C46   A    
C30   C33   A    
C9    H3    S    
C11   H5    S    
C20   O10   S    
C54   N12   A    
C36   C39   A    
C10   H4    S    
C1    H1    S    
C30   H12   S    
O9    H47   S    
O8    C64   S    
C25   C27   A    
C26   C28   A    
C61   H35   S    
C6    C52   A    
C54   H28   S    
C5    C39   S    
C35   C40   A    
C29   C31   A    
O10   H48   S    
C38   C40   A    
N7    Ni4   S    
C11   C13   A    
C42   O4    S    
C37   H17   S    
N6    N10   A    
C36   C38   A    
C17   C19   A    
C41   C48   A    
C61   H34   S    
C63   H41   S    
N5    N9    A    
C42   C47   A    
C62   H37   S    
C57   C59   A    
C50   H26   S    
C49   N7    A    
C2    H2    S    
C46   N6    A    
C37   C39   A    
C22   C26   A    
C5    C51   A    
C23   H19   S    
C43   C47   A    
C22   H10   S    
C19   O9    S    
N7    N11   A    
C44   C48   A    
C29   H11   S    
N1    Ni1   S    
