data_mof_unit_6065.cif
_audit_creation_date              2012-12-11T14:30:10-0500
_audit_creation_method            fapswitch 2.2
_symmetry_space_group_name_H-M    P1
_symmetry_Int_Tables_number       1
_space_group_crystal_system       triclinic
_cell_length_a                    12.688214
_cell_length_b                    12.688125
_cell_length_c                    26.838586
_cell_angle_alpha                 90.000345
_cell_angle_beta                  89.999866
_cell_angle_gamma                 119.87836
_cell_volume                      3746.4438509

loop_
_atom_site_label
_atom_site_type_symbol
_atom_type_description
_atom_site_fract_x
_atom_site_fract_y
_atom_site_fract_z
_atom_type_partial_charge
C1    C     C_R   0.555753 0.457519 0.821450 0.543401
C2    C     C_R   0.457518 0.555756 0.178548 0.543407
C3    C     C_R   0.977895 0.305839 0.471246 -0.117168
C4    C     C_R   0.302603 0.975745 0.022944 -0.114751
C5    C     C_R   0.685257 0.685370 0.474119 -0.118654
C6    C     C_R   0.305865 0.977952 0.528748 -0.117172
C7    C     C_R   0.975948 0.302703 0.977036 -0.114783
C8    C     C_R   0.685381 0.685249 0.525877 -0.118663
C9    C     C_R   0.305826 0.977874 0.971245 -0.117167
C10   C     C_R   0.975771 0.302619 0.522944 -0.114756
C11   C     C_R   0.685366 0.685262 0.974117 -0.118656
C12   C     C_3   0.935003 0.712584 0.150313 -0.306349
C13   C     C_R   0.443327 0.900798 0.321648 0.539648
C14   C     C_3   0.735742 0.926104 0.364484 -0.302304
C15   C     C_3   0.181696 0.273776 0.133765 -0.291513
C16   C     C_3   0.935021 0.712695 0.349740 -0.306438
C17   C     C_3   0.735773 0.926160 0.135500 -0.302333
C18   C     C_3   0.181668 0.273799 0.366240 -0.291494
C19   C     C_3   0.712629 0.935037 0.650312 -0.306401
C20   C     C_3   0.926066 0.735726 0.864488 -0.302309
C21   C     C_3   0.273790 0.181679 0.633761 -0.291503
C22   C     C_3   0.712784 0.934856 0.849925 -0.306487
C23   C     C_3   0.926133 0.735758 0.635511 -0.302315
C24   C     C_R   0.098934 0.543244 0.178498 0.555848
C25   C     C_3   0.273797 0.181665 0.866240 -0.291496
C26   C     C_R   0.992411 0.502487 0.974494 0.033315
C27   C     C_R   0.507572 0.998799 0.526968 0.038131
C28   C     C_R   0.494670 0.492266 0.973705 0.033099
C29   C     C_R   0.992353 0.502454 0.525496 0.033308
C30   C     C_R   0.507569 0.998809 0.973029 0.038125
C31   C     C_R   0.494674 0.492263 0.526292 0.033100
C32   C     C_R   0.502462 0.992367 0.474501 0.033311
C33   C     C_R   0.900794 0.443325 0.678351 0.539649
C34   C     C_R   0.998838 0.507589 0.026962 0.038132
C35   C     C_R   0.492264 0.494670 0.473706 0.033098
C36   C     C_R   0.502456 0.992373 0.025496 0.033307
C37   C     C_R   0.998788 0.507567 0.473028 0.038126
C38   C     C_R   0.492264 0.494676 0.026291 0.033100
C39   C     C_R   0.015531 0.704035 0.972596 -0.122114
C40   C     C_R   0.707937 0.019034 0.524510 -0.142186
C41   C     C_R   0.302734 0.302736 0.974001 -0.132902
C42   C     C_R   0.015598 0.704053 0.527404 -0.122117
C43   C     C_R   0.708001 0.019200 0.975491 -0.142181
C44   C     C_R   0.543241 0.098927 0.821499 0.555916
C45   C     C_R   0.302723 0.302748 0.525999 -0.132902
C46   C     C_R   0.704035 0.015550 0.472596 -0.122112
C47   C     C_R   0.019014 0.707932 0.024510 -0.142195
C48   C     C_R   0.302739 0.302729 0.474001 -0.132903
C49   C     C_R   0.704087 0.015699 0.027405 -0.122119
C50   C     C_R   0.019086 0.707961 0.475490 -0.142175
C51   C     C_R   0.302756 0.302719 0.025999 -0.132900
C52   C     C_R   0.988257 0.591522 0.893987 0.134977
C53   C     C_R   0.618915 0.030573 0.604858 0.132311
C54   C     C_R   0.407350 0.391741 0.894182 0.136031
C55   C     C_R   0.555756 0.457518 0.678549 0.543409
C56   C     C_R   0.988255 0.591505 0.606007 0.134972
C57   C     C_R   0.618908 0.030578 0.895141 0.132266
C58   C     C_R   0.407353 0.391749 0.605816 0.136026
C59   C     C_R   0.591507 0.988250 0.393991 0.134973
C60   C     C_R   0.030577 0.618913 0.104855 0.132314
C61   C     C_R   0.391742 0.407351 0.394183 0.136027
C62   C     C_R   0.591508 0.988278 0.106008 0.134970
C63   C     C_R   0.030575 0.618916 0.395141 0.132313
C64   C     C_R   0.391758 0.407352 0.105816 0.136024
C65   C     C_R   0.035052 0.523192 0.130286 0.014769
C66   C     C_R   0.900803 0.443331 0.821647 0.539639
C67   C     C_R   0.480370 0.960743 0.370886 -0.003152
C68   C     C_R   0.480513 0.514341 0.130056 -0.004084
C69   C     C_R   0.035030 0.523188 0.369707 0.014764
C70   C     C_R   0.480355 0.960726 0.129110 -0.003142
C71   C     C_R   0.480510 0.514329 0.369941 -0.004095
C72   C     C_R   0.523190 0.035037 0.630291 0.014767
C73   C     C_R   0.960772 0.480392 0.870880 -0.003158
C74   C     C_R   0.514337 0.480511 0.630057 -0.004084
C75   C     C_R   0.523182 0.035029 0.869707 0.014790
C76   C     C_R   0.960727 0.480359 0.629111 -0.003146
C77   C     C_R   0.543244 0.098932 0.678499 0.555867
C78   C     C_R   0.514325 0.480513 0.869940 -0.004102
C79   C     C_R   0.999906 0.600886 0.946691 0.048412
C80   C     C_R   0.611883 0.014492 0.552438 0.025776
C81   C     C_R   0.399857 0.395187 0.946968 0.047580
C82   C     C_R   0.999905 0.600874 0.553304 0.048408
C83   C     C_R   0.611900 0.014549 0.947562 0.025796
C84   C     C_R   0.399857 0.395193 0.553030 0.047580
C85   C     C_R   0.600872 0.999894 0.446694 0.048410
C86   C     C_R   0.014501 0.611886 0.052435 0.025771
C87   C     C_R   0.395188 0.399856 0.446969 0.047579
C88   C     C_R   0.457518 0.555754 0.321451 0.543404
C89   C     C_R   0.600886 0.999950 0.053305 0.048401
C90   C     C_R   0.014505 0.611889 0.447561 0.025793
C91   C     C_R   0.395199 0.399855 0.053030 0.047582
C92   C     C_R   0.968774 0.390862 0.898588 -0.150341
C93   C     C_R   0.414116 0.000863 0.605380 -0.169117
C94   C     C_R   0.597079 0.584273 0.896346 -0.162895
C95   C     C_R   0.968653 0.390794 0.601396 -0.150298
C96   C     C_R   0.414104 0.000842 0.894616 -0.169135
C97   C     C_R   0.597104 0.584260 0.603648 -0.162881
C98   C     C_R   0.390819 0.968699 0.398598 -0.150312
C99   C     C_R   0.443324 0.900793 0.178351 0.539648
C100  C     C_R   0.000904 0.414128 0.105371 -0.169105
C101  C     C_R   0.584266 0.597088 0.396349 -0.162881
C102  C     C_R   0.390783 0.968639 0.101395 -0.150292
C103  C     C_R   0.000841 0.414108 0.394616 -0.169131
C104  C     C_R   0.584256 0.597116 0.103646 -0.162883
C105  C     C_R   0.981054 0.399356 0.949899 0.007336
C106  C     C_R   0.407770 0.989695 0.553875 0.009160
C107  C     C_R   0.591381 0.588740 0.947902 0.007090
C108  C     C_R   0.980932 0.399293 0.550086 0.007324
C109  C     C_R   0.407752 0.989664 0.946121 0.009149
C110  C     C_R   0.098930 0.543243 0.321500 0.555867
C111  C     C_R   0.591396 0.588730 0.552093 0.007076
C112  C     C_R   0.399315 0.980975 0.449909 0.007328
C113  C     C_R   0.989756 0.407794 0.053865 0.009168
C114  C     C_R   0.588735 0.591386 0.447904 0.007087
C115  C     C_R   0.399284 0.980925 0.050086 0.007322
C116  C     C_R   0.989664 0.407757 0.446121 0.009155
C117  C     C_R   0.588728 0.591403 0.052091 0.007071
C118  C     C_R   0.978052 0.305906 0.028735 -0.117178
C119  C     C_R   0.302651 0.975836 0.477049 -0.114765
C120  C     C_R   0.685246 0.685387 0.025875 -0.118664
Cr1   Cr    Cr6+3 0.487630 0.241180 0.750000 0.979687
Cr2   Cr    Cr6+3 0.753550 0.512370 0.750000 0.978544
Cr3   Cr    Cr6+3 0.758820 0.246450 0.750000 1.040042
Cr4   Cr    Cr6+3 0.241180 0.487630 0.250000 0.979685
Cr5   Cr    Cr6+3 0.512370 0.753550 0.250000 0.978549
Cr6   Cr    Cr6+3 0.246450 0.758820 0.250000 1.040008
H1    H     H_    0.026468 0.787840 0.042155 0.096813
H2    H     H_    0.787970 0.026799 0.957846 0.096870
H3    H     H_    0.023695 0.782383 0.546688 0.126468
H4    H     H_    0.226607 0.228007 0.955581 0.129204
H5    H     H_    0.993979 0.337093 0.125611 0.124569
H6    H     H_    0.308735 0.955823 0.380734 0.134928
H7    H     H_    0.658375 0.672159 0.122969 0.115027
H8    H     H_    0.993906 0.337072 0.374373 0.124569
H9    H     H_    0.308680 0.955721 0.119256 0.134971
H10   H     H_    0.658398 0.672111 0.377023 0.115023
H11   H     H_    0.337082 0.993934 0.625621 0.124571
H12   H     H_    0.782354 0.023619 0.453314 0.126456
H13   H     H_    0.955930 0.308793 0.880721 0.134856
H14   H     H_    0.672137 0.658385 0.622972 0.115022
H15   H     H_    0.337066 0.993901 0.874373 0.124569
H16   H     H_    0.955753 0.308698 0.619258 0.134963
H17   H     H_    0.672095 0.658410 0.877019 0.115040
H18   H     H_    0.973771 0.230047 0.049042 0.092966
H19   H     H_    0.223917 0.968887 0.458240 0.088229
H20   H     H_    0.759645 0.760326 0.045352 0.085687
H21   H     H_    0.973580 0.229968 0.450935 0.093024
H22   H     H_    0.223851 0.968757 0.041752 0.088223
H23   H     H_    0.228038 0.226587 0.044421 0.129208
H24   H     H_    0.759654 0.760307 0.454641 0.085672
H25   H     H_    0.229999 0.973652 0.549057 0.093004
H26   H     H_    0.969031 0.223985 0.958224 0.088236
H27   H     H_    0.760319 0.759646 0.545355 0.085690
H28   H     H_    0.229950 0.973546 0.950935 0.093038
H29   H     H_    0.968801 0.223875 0.541752 0.088223
H30   H     H_    0.760305 0.759657 0.954639 0.085617
H31   H     H_    0.104601 0.805268 0.116132 0.235843
H32   H     H_    0.956138 0.793355 0.173420 0.126153
H33   H     H_    0.885118 0.630010 0.173815 0.155053
H34   H     H_    0.026608 0.787899 0.457847 0.096838
H35   H     H_    0.876563 0.708189 0.118629 0.127228
H36   H     H_    0.698871 0.051819 0.329703 0.247298
H37   H     H_    0.717765 0.879895 0.327821 0.170576
H38   H     H_    0.689431 0.857329 0.394066 0.151917
H39   H     H_    0.835175 0.973475 0.371372 0.110380
H40   H     H_    0.338637 0.295959 0.169036 0.248514
H41   H     H_    0.152670 0.284275 0.171529 0.172422
H42   H     H_    0.124481 0.177226 0.122609 0.111959
H43   H     H_    0.166876 0.331881 0.107093 0.159465
H44   H     H_    0.104716 0.805273 0.383845 0.235896
H45   H     H_    0.782432 0.023836 0.046691 0.126489
H46   H     H_    0.956176 0.793305 0.326533 0.126257
H47   H     H_    0.876834 0.708696 0.381443 0.127104
H48   H     H_    0.884859 0.629965 0.326360 0.155046
H49   H     H_    0.698849 0.051817 0.170303 0.247307
H50   H     H_    0.717766 0.879896 0.172151 0.170574
H51   H     H_    0.835214 0.973566 0.128630 0.110399
H52   H     H_    0.689513 0.857425 0.105899 0.151886
H53   H     H_    0.338593 0.295950 0.330964 0.248514
H54   H     H_    0.152635 0.284279 0.328474 0.172422
H55   H     H_    0.166866 0.331929 0.392906 0.159487
H56   H     H_    0.228012 0.226602 0.455581 0.129209
H57   H     H_    0.124444 0.177258 0.377405 0.111955
H58   H     H_    0.805274 0.104633 0.616132 0.235859
H59   H     H_    0.793370 0.956171 0.673427 0.126173
H60   H     H_    0.708287 0.876631 0.618638 0.127207
H61   H     H_    0.630062 0.885133 0.673796 0.155113
H62   H     H_    0.051797 0.698890 0.829701 0.247302
H63   H     H_    0.879864 0.717758 0.827824 0.170584
H64   H     H_    0.973416 0.835156 0.871383 0.110368
H65   H     H_    0.857288 0.689390 0.894066 0.151933
H66   H     H_    0.295958 0.338613 0.669036 0.248516
H67   H     H_    0.787858 0.026515 0.542153 0.096819
H68   H     H_    0.284278 0.152648 0.671526 0.172423
H69   H     H_    0.331906 0.166867 0.607092 0.159476
H70   H     H_    0.177245 0.124460 0.622601 0.111958
H71   H     H_    0.805235 0.104853 0.883797 0.235956
H72   H     H_    0.793287 0.955950 0.826637 0.126329
H73   H     H_    0.629855 0.884240 0.826671 0.155072
H74   H     H_    0.709200 0.877091 0.881742 0.126987
H75   H     H_    0.051823 0.698860 0.670297 0.247302
H76   H     H_    0.879903 0.717765 0.672170 0.170578
H77   H     H_    0.857373 0.689472 0.605922 0.151900
H78   H     H_    0.023575 0.782346 0.953316 0.126448
H79   H     H_    0.973519 0.835196 0.628633 0.110391
H80   H     H_    0.295948 0.338591 0.830964 0.248514
H81   H     H_    0.284279 0.152632 0.828474 0.172425
H82   H     H_    0.177255 0.124442 0.877404 0.111960
H83   H     H_    0.331924 0.166862 0.892906 0.159485
H84   H     H_    0.226593 0.228026 0.544420 0.129211
N1    N     N_2   0.046712 0.722384 0.132044 -0.487489
N2    N     N_2   0.722351 0.046663 0.867948 -0.487429
N3    N     N_2   0.014212 0.694999 0.635797 -0.522488
N4    N     N_2   0.304848 0.307887 0.865438 -0.521318
N5    N     N_2   0.695000 0.014198 0.364203 -0.522489
N6    N     N_2   0.307922 0.304845 0.134563 -0.521312
N7    N     N_2   0.046729 0.722394 0.367954 -0.487484
N8    N     N_2   0.694998 0.014228 0.135798 -0.522483
N9    N     N_2   0.307889 0.304848 0.365438 -0.521317
N10   N     N_2   0.722396 0.046729 0.632044 -0.487490
N11   N     N_2   0.014179 0.695010 0.864201 -0.522489
N12   N     N_2   0.304850 0.307903 0.634562 -0.521313
O1    O     O_R   0.460870 0.120930 0.805240 -0.544734
O2    O     O_R   0.120930 0.460870 0.194760 -0.544720
O3    O     O_R   0.539130 0.660060 0.305240 -0.535023
O4    O     O_R   0.339940 0.879070 0.194760 -0.516485
O5    O     O_R   0.498910 0.350470 0.801870 -0.489147
O6    O     O_R   0.851560 0.501090 0.698130 -0.491555
O7    O     O_R   0.649530 0.148440 0.801870 -0.456141
O8    O     O_R   0.498910 0.350470 0.698130 -0.489150
O9    O     O_R   0.851560 0.501090 0.801870 -0.491544
O10   O     O_R   0.649530 0.148440 0.698130 -0.456112
O11   O     O_R   0.350470 0.498910 0.301870 -0.489148
O12   O     O_R   0.660060 0.539130 0.694760 -0.535020
O13   O     O_R   0.501090 0.851560 0.198130 -0.491553
O14   O     O_R   0.148440 0.649530 0.301870 -0.456134
O15   O     O_R   0.350470 0.498910 0.198130 -0.489150
O16   O     O_R   0.501090 0.851560 0.301870 -0.491547
O17   O     O_R   0.148440 0.649530 0.198130 -0.456133
O18   O     O_3   0.666667 0.333333 0.750000 -0.229729
O19   O     O_3   0.333333 0.666667 0.250000 -0.229722
O20   O     O_R   0.879070 0.339940 0.805240 -0.516544
O21   O     O_R   0.460870 0.120930 0.694760 -0.544724
O22   O     O_R   0.660060 0.539130 0.805240 -0.535026
O23   O     O_R   0.879070 0.339940 0.694760 -0.516480
O24   O     O_R   0.120930 0.460870 0.305240 -0.544728
O25   O     O_R   0.539130 0.660060 0.194760 -0.535019
O26   O     O_R   0.339940 0.879070 0.305240 -0.516499

loop_
_geom_bond_atom_site_label_1
_geom_bond_atom_site_label_2
_ccdc_geom_bond_type
C36   C89   A    
C17   H52   S    
C12   N1    S    
C3    H21   S    
C56   C76   A    
C5    C114  A    
C43   C83   A    
C45   H84   S    
C4    C115  A    
C10   C108  A    
C27   C80   A    
C55   O8    A    
C44   O7    A    
C33   O6    A    
C20   H65   S    
C58   N12   S    
C100  H5    S    
C37   C116  A    
C34   C113  A    
C40   C46   A    
Cr2   O9    S    
C51   C91   A    
C62   C70   A    
C37   C90   A    
C94   H17   S    
C64   C68   A    
C22   H74   S    
C25   N4    S    
C103  H8    S    
C104  C117  A    
C2    C68   S    
C3    C116  A    
C76   C95   A    
C20   H64   S    
C41   H4    S    
C97   C111  A    
C59   N5    S    
C101  H10   S    
C40   C80   A    
C11   C120  A    
C28   C107  A    
C17   H51   S    
C4    H22   S    
C62   C89   A    
C120  H20   S    
C30   C83   A    
C15   H43   S    
C35   C114  A    
C54   N4    S    
C34   C86   A    
C14   H37   S    
C102  H9    S    
C102  C115  A    
C61   C87   A    
C67   C98   A    
C19   H61   S    
C96   H15   S    
C55   C74   S    
C35   C87   A    
C26   C34   A    
Cr2   O18   S    
Cr3   O10   S    
C63   C69   A    
C110  O14   A    
C22   H72   S    
C22   N2    S    
C23   N3    S    
C20   N11   S    
C7    C105  A    
C29   C108  A    
C33   O23   A    
C57   C75   A    
C21   H68   S    
C56   C82   A    
C25   H82   S    
Cr6   O14   S    
C97   H14   S    
C17   H50   S    
C40   H67   S    
H44   N7    S    
C59   C67   A    
H62   N11   S    
C110  O24   A    
C53   N10   S    
C69   C103  A    
C71   C101  A    
C57   N2    S    
Cr2   O6    S    
C52   N11   S    
C21   H70   S    
C39   H78   S    
C23   H79   S    
Cr4   O24   S    
C101  C114  A    
C38   C117  A    
C7    C118  A    
C15   H41   S    
C61   C71   A    
Cr6   O4    S    
C7    H26   S    
C63   N7    S    
Cr5   O3    S    
Cr6   O17   S    
C26   C105  A    
C50   C90   A    
C75   C96   A    
C74   C97   A    
H36   N5    S    
C24   O2    A    
C9    C109  A    
C94   C107  A    
C98   C112  A    
C104  H7    S    
C30   C109  A    
C1    C78   S    
C47   C86   A    
C68   C104  A    
C22   H73   S    
C53   C80   A    
C93   H11   S    
C73   C92   A    
C52   C73   A    
C21   N12   S    
C8    C111  A    
C20   H63   S    
Cr3   O23   S    
C60   C86   A    
C43   C49   A    
Cr2   O22   S    
C23   H76   S    
C18   H55   S    
C50   H34   S    
C66   C73   S    
Cr6   O26   S    
C38   C91   A    
C31   C84   A    
C71   C88   S    
C23   H77   S    
C39   C79   A    
C43   H2    S    
C44   C75   S    
C25   H83   S    
C2    O25   A    
C59   C85   A    
C49   H45   S    
C72   C77   S    
Cr5   O13   S    
C1    O22   A    
C58   C84   A    
C93   C106  A    
C5    C8    A    
C99   O13   A    
C69   C110  S    
C16   H46   S    
C33   C76   S    
C88   O3    A    
Cr3   O7    S    
C28   C38   A    
C41   C81   A    
Cr6   O19   S    
C57   C83   A    
Cr1   O1    S    
C48   C87   A    
C16   N7    S    
C44   O1    A    
C21   H69   S    
C14   H39   S    
Cr5   O19   S    
C8    H27   S    
C6    C106  A    
H75   N3    S    
C56   N3    S    
C92   H13   S    
C24   O17   A    
C24   C65   S    
C42   C50   A    
Cr4   O11   S    
C11   H30   S    
Cr2   O12   S    
C60   C65   A    
H31   N1    S    
C16   H47   S    
C11   C107  A    
H49   N8    S    
C18   N9    S    
C15   H42   S    
C117  C120  A    
C45   C84   A    
C6    H25   S    
C55   O12   A    
C29   C37   A    
C52   C79   A    
C62   N8    S    
C6    C119  A    
C70   C99   S    
C58   C74   A    
C39   C47   A    
Cr3   O18   S    
C13   C67   S    
C45   C48   A    
C16   H48   S    
Cr4   O19   S    
Cr1   O21   S    
C77   O10   A    
Cr1   O8    S    
C32   C112  A    
H53   N9    S    
C27   C32   A    
C77   O21   A    
C64   N6    S    
C100  C113  A    
C61   N9    S    
C65   C100  A    
C49   C89   A    
C15   N6    S    
C10   H29   S    
C9    H28   S    
C112  C119  A    
C70   C102  A    
C2    O15   A    
C47   H1    S    
C13   O16   A    
C119  H19   S    
Cr1   O18   S    
C66   O20   A    
C96   C109  A    
C118  H18   S    
C26   C79   A    
Cr1   O5    S    
C30   C36   A    
C88   O11   A    
Cr5   O16   S    
C46   C85   A    
C1    O5    A    
C28   C81   A    
H66   N12   S    
C29   C82   A    
C19   H60   S    
H71   N2    S    
C19   H59   S    
C48   H56   S    
Cr4   O15   S    
C53   C72   A    
H80   N4    S    
C18   H57   S    
C78   C94   A    
C103  C116  A    
C32   C85   A    
C66   O9    A    
C63   C90   A    
C72   C93   A    
C14   N5    S    
C27   C106  A    
C42   H3    S    
C31   C35   A    
Cr3   O20   S    
C12   H33   S    
C14   H38   S    
C60   N1    S    
C99   O4    A    
Cr5   O25   S    
C95   C108  A    
C5    H24   S    
C18   H54   S    
C113  C118  A    
C92   C105  A    
H58   N10   S    
C13   O26   A    
C51   H23   S    
C95   H16   S    
C98   H6    S    
C3    C10   A    
Cr4   O2    S    
C31   C111  A    
C46   H12   S    
C12   H35   S    
C19   N10   S    
C64   C91   A    
C12   H32   S    
C4    C9    A    
C25   H81   S    
C36   C115  A    
C41   C51   A    
C54   C81   A    
C17   N8    S    
C42   C82   A    
H40   N6    S    
C54   C78   A    
