data_mof_unit_5996.cif
_audit_creation_date              2013-03-05T15:39:43-0500
_audit_creation_method            fapswitch 2.2
_symmetry_space_group_name_H-M    P1
_symmetry_Int_Tables_number       1
_space_group_crystal_system       triclinic
_cell_length_a                    19.752099
_cell_length_b                    17.204001
_cell_length_c                    15.513957
_cell_angle_alpha                 90.169539
_cell_angle_beta                  53.00465
_cell_angle_gamma                 89.622271
_cell_volume                      4210.31608783

loop_
_atom_site_label
_atom_site_type_symbol
_atom_site_description
_atom_site_fract_x
_atom_site_fract_y
_atom_site_fract_z
_atom_type_partial_charge
C1    C     C_R   0.373834 0.196738 0.994235 -0.029965
C2    C     C_R   0.661015 0.825486 0.950482 -0.079876
C3    C     C_R   0.634476 0.193316 0.994158 -0.075216
C4    C     C_R   0.339655 0.826400 0.049082 -0.019113
C5    C     C_R   0.873858 0.696746 0.994212 -0.029962
C6    C     C_R   0.161011 0.325480 0.950466 -0.079026
C7    C     C_R   0.134603 0.693259 0.993987 -0.074936
C8    C     C_R   0.839721 0.326306 0.048947 -0.019356
H1    H     H_    0.382097 0.252136 0.018418 0.192775
H2    H     H_    0.671569 0.776900 0.900116 0.153263
H3    H     H_    0.636522 0.246503 0.956813 0.156846
H4    H     H_    0.328597 0.779494 0.101499 0.141943
H5    H     H_    0.882157 0.752145 0.018360 0.192768
H6    H     H_    0.171554 0.276891 0.900089 0.152854
H7    H     H_    0.136730 0.746433 0.956561 0.156674
H8    H     H_    0.828786 0.279279 0.101143 0.141977
N1    N     N_R   0.408680 0.130810 0.995780 -0.066708
N2    N     N_R   0.591320 0.869190 0.004220 -0.052526
N3    N     N_R   0.591320 0.130810 0.004220 -0.048202
N4    N     N_R   0.408680 0.869190 0.995780 -0.048040
N5    N     N_R   0.908680 0.630810 0.995780 -0.066728
N6    N     N_R   0.091320 0.369190 0.004220 -0.052419
N7    N     N_R   0.091320 0.630810 0.004220 -0.048168
N8    N     N_R   0.908680 0.369190 0.995780 -0.048220
C9    C     C_R   0.394544 0.802507 0.211917 0.353098
C10   C     C_R   0.613074 0.195504 0.785340 0.322580
C11   C     C_R   0.612162 0.803667 0.783677 0.343544
C12   C     C_R   0.350596 0.174120 0.220507 0.341122
C13   C     C_R   0.894332 0.302563 0.212016 0.353156
C14   C     C_R   0.113151 0.695477 0.785303 0.323045
C15   C     C_R   0.112094 0.303640 0.783734 0.343230
C16   C     C_R   0.850606 0.674131 0.220491 0.341134
N9    N     N_R   0.421410 0.867210 0.153620 -0.099566
N10   N     N_R   0.578590 0.132790 0.846380 -0.090099
N11   N     N_R   0.578590 0.867210 0.846380 -0.103487
N12   N     N_R   0.421410 0.132790 0.153620 -0.086901
N13   N     N_R   0.921410 0.367210 0.153620 -0.099571
N14   N     N_R   0.078590 0.632790 0.846380 -0.090160
N15   N     N_R   0.078590 0.367210 0.846380 -0.103475
N16   N     N_R   0.921410 0.632790 0.153620 -0.086914
C17   C     C_R   0.331067 0.912300 0.948726 -0.147496
C18   C     C_R   0.640200 0.107556 0.096065 -0.140173
C19   C     C_R   0.670041 0.913084 0.048873 -0.123966
C20   C     C_R   0.364632 0.109375 0.897655 -0.132302
C21   C     C_R   0.831068 0.412300 0.948729 -0.147525
C22   C     C_R   0.140344 0.607489 0.095884 -0.140157
C23   C     C_R   0.170044 0.413075 0.048865 -0.123978
C24   C     C_R   0.864640 0.609384 0.897646 -0.132269
H9    H     H_    0.311596 0.944366 0.907024 0.119393
H10   H     H_    0.645176 0.082080 0.155749 0.107924
H11   H     H_    0.690236 0.946360 0.088798 0.124217
H12   H     H_    0.360881 0.082817 0.837368 0.105430
H13   H     H_    0.811567 0.444406 0.907088 0.119433
H14   H     H_    0.145385 0.582003 0.155508 0.107838
H15   H     H_    0.190244 0.446339 0.088792 0.124185
H16   H     H_    0.860887 0.582827 0.837361 0.105457
N17   N     N_R   0.403840 0.921910 0.935760 -0.053653
N18   N     N_R   0.596160 0.078090 0.064240 -0.051126
N19   N     N_R   0.596160 0.921910 0.064240 -0.054889
N20   N     N_R   0.403840 0.078090 0.935760 -0.054656
N21   N     N_R   0.903840 0.421910 0.935760 -0.053618
N22   N     N_R   0.096160 0.578090 0.064240 -0.051133
N23   N     N_R   0.096160 0.421910 0.064240 -0.054905
N24   N     N_R   0.903840 0.578090 0.935760 -0.054650
C25   C     C_R   0.356661 0.079649 0.315074 -0.219851
C26   C     C_R   0.608271 0.898113 0.687477 -0.189793
C27   C     C_R   0.609904 0.101215 0.687372 -0.175807
C28   C     C_R   0.400693 0.894987 0.307628 -0.190589
C29   C     C_R   0.856662 0.579666 0.315074 -0.219759
C30   C     C_R   0.108216 0.398073 0.687506 -0.189738
C31   C     C_R   0.110018 0.601169 0.687323 -0.176228
C32   C     C_R   0.900550 0.395031 0.307703 -0.190226
H17   H     H_    0.345319 0.045451 0.380731 0.125002
H18   H     H_    0.605252 0.927517 0.628365 0.112221
H19   H     H_    0.613578 0.069487 0.624429 0.114234
H20   H     H_    0.402847 0.924886 0.367290 0.110869
H21   H     H_    0.845321 0.545490 0.380747 0.124952
H22   H     H_    0.105188 0.427469 0.628395 0.112199
H23   H     H_    0.113732 0.569428 0.624359 0.114301
H24   H     H_    0.902690 0.424915 0.367385 0.110831
N25   N     N_R   0.426250 0.076100 0.213650 -0.062457
N26   N     N_R   0.573750 0.923900 0.786350 -0.061019
N27   N     N_R   0.573750 0.076100 0.786350 -0.059464
N28   N     N_R   0.426250 0.923900 0.213650 -0.058732
N29   N     N_R   0.926250 0.576100 0.213650 -0.062466
N30   N     N_R   0.073750 0.423900 0.786350 -0.060991
N31   N     N_R   0.073750 0.576100 0.786350 -0.059471
N32   N     N_R   0.926250 0.423900 0.213650 -0.058750
C33   C     C_R   0.345882 0.185046 0.932993 0.108061
C34   C     C_R   0.712618 0.852313 0.976175 0.114361
C35   C     C_R   0.664082 0.180795 0.053435 0.122122
C36   C     C_R   0.289524 0.851545 0.020207 0.107368
C37   C     C_R   0.845903 0.685059 0.932974 0.108003
C38   C     C_R   0.212618 0.352305 0.976159 0.114142
C39   C     C_R   0.164312 0.680686 0.053132 0.122067
C40   C     C_R   0.789547 0.351511 0.020157 0.107395
C41   C     C_R   0.379049 0.819585 0.309130 -0.012849
C42   C     C_R   0.636627 0.175187 0.684462 -0.003232
C43   C     C_R   0.632831 0.823090 0.684355 0.003292
C44   C     C_R   0.307851 0.140507 0.321766 -0.000991
C45   C     C_R   0.878784 0.319671 0.309240 -0.012991
C46   C     C_R   0.136804 0.675121 0.684389 -0.003229
C47   C     C_R   0.132734 0.323033 0.684415 0.003178
C48   C     C_R   0.807858 0.640527 0.321752 -0.001040
Ni1   Ni    Ni4+2 0.500000 0.131570 0.000000 0.307188
Ni2   Ni    Ni4+2 0.500000 0.868430 0.000000 0.319553
Ni3   Ni    Ni4+2 0.000000 0.631570 0.000000 0.307231
Ni4   Ni    Ni4+2 0.000000 0.368430 0.000000 0.319614
Ni5   Ni    Ni4+2 0.488900 0.000000 0.862310 0.197743
Ni6   Ni    Ni4+2 0.511100 0.000000 0.137690 0.198490
Ni7   Ni    Ni4+2 0.988900 0.500000 0.862310 0.197737
Ni8   Ni    Ni4+2 0.011100 0.500000 0.137690 0.198541
C49   C     C_3   0.212627 0.153286 0.536383 -0.307316
C50   C     C_3   0.706831 0.800589 0.478261 -0.324374
C51   C     C_3   0.736686 0.180695 0.472886 -0.277092
C52   C     C_3   0.283169 0.812315 0.520901 -0.342202
C53   C     C_3   0.712617 0.653327 0.536359 -0.307656
C54   C     C_3   0.206689 0.300519 0.478334 -0.324202
C55   C     C_3   0.237141 0.680467 0.472819 -0.277159
C56   C     C_3   0.783143 0.312249 0.520967 -0.342160
C57   C     C_3   0.629943 0.699749 0.579206 -0.279069
C58   C     C_3   0.288551 0.254711 0.437035 -0.311755
C59   C     C_3   0.327122 0.696451 0.439550 -0.188020
C60   C     C_3   0.692851 0.296617 0.554336 -0.263976
C61   C     C_3   0.129903 0.199635 0.579269 -0.279569
C62   C     C_3   0.788644 0.754707 0.436998 -0.311506
C63   C     C_3   0.826766 0.196429 0.439421 -0.188161
C64   C     C_3   0.192977 0.796431 0.554084 -0.263882
H25   H     H_    0.563789 0.680106 0.639037 0.184036
H26   H     H_    0.354359 0.275860 0.378634 0.179551
H27   H     H_    0.383748 0.657775 0.392098 0.179916
H28   H     H_    0.636593 0.335778 0.600582 0.183154
H29   H     H_    0.063769 0.179951 0.639131 0.183806
H30   H     H_    0.854475 0.775806 0.378602 0.179526
H31   H     H_    0.883316 0.157677 0.391780 0.179839
H32   H     H_    0.136632 0.835497 0.600209 0.183034
H33   H     H_    0.215574 0.092663 0.558294 0.167913
H34   H     H_    0.704734 0.861219 0.455715 0.161743
H35   H     H_    0.715910 0.128114 0.453338 0.163921
H36   H     H_    0.303168 0.866191 0.539047 0.147022
H37   H     H_    0.715501 0.592692 0.558288 0.167906
H38   H     H_    0.204531 0.361136 0.455799 0.161697
H39   H     H_    0.216555 0.627756 0.453251 0.163944
H40   H     H_    0.803324 0.366005 0.539097 0.146978
C65   C     C_3   0.669303 0.771542 0.592698 0.003249
C66   C     C_3   0.250390 0.182591 0.421972 0.019601
C67   C     C_3   0.320767 0.778937 0.407820 0.013201
C68   C     C_3   0.698996 0.213787 0.585886 -0.014352
C69   C     C_3   0.169207 0.271475 0.592760 0.003196
C70   C     C_3   0.750425 0.682634 0.421938 0.019633
C71   C     C_3   0.820515 0.279018 0.407895 0.012823
C72   C     C_3   0.199230 0.713704 0.585815 -0.014034
C73   C     C_3   0.250155 0.225801 0.550466 0.644010
C74   C     C_3   0.669384 0.727839 0.463610 0.658011
C75   C     C_3   0.731459 0.263614 0.441629 0.612007
C76   C     C_3   0.287986 0.728952 0.553197 0.612034
C77   C     C_3   0.750202 0.725797 0.550442 0.643774
C78   C     C_3   0.169300 0.227723 0.463681 0.658256
C79   C     C_3   0.231801 0.763288 0.441383 0.611708
C80   C     C_3   0.787852 0.228788 0.553074 0.612196
C81   C     C_2   0.206099 0.736173 0.075167 -0.187354
C82   C     C_2   0.719638 0.308858 0.037909 -0.176866
C83   C     C_2   0.808552 0.742687 0.905277 -0.195069
C84   C     C_2   0.286784 0.312745 0.952822 -0.142167
C85   C     C_2   0.705699 0.236358 0.075676 -0.187243
C86   C     C_2   0.219706 0.808793 0.037859 -0.177305
C87   C     C_2   0.308530 0.242667 0.905289 -0.195117
C88   C     C_2   0.786784 0.812754 0.952844 -0.142100
H41   H     H_    0.234050 0.712823 0.111961 0.157096
H42   H     H_    0.690336 0.332142 0.002646 0.156663
H43   H     H_    0.785734 0.721907 0.861160 0.157418
H44   H     H_    0.311274 0.334386 0.994688 0.165942
H45   H     H_    0.733338 0.213127 0.112931 0.157025
H46   H     H_    0.190152 0.832153 0.002961 0.156904
H47   H     H_    0.285697 0.221877 0.861193 0.157311
H48   H     H_    0.811256 0.834383 0.994737 0.165951
N33   N     N_R   0.409908 0.726153 0.166189 0.220596
O1    O     O_R   0.469301 0.715209 0.063873 -0.360500
O2    O     O_R   0.367294 0.666809 0.226022 -0.389459
N34   N     N_R   0.595394 0.273056 0.829065 0.206153
O3    O     O_R   0.533853 0.285126 0.930370 -0.401021
O4    O     O_R   0.632358 0.332922 0.767328 -0.432083
N35   N     N_R   0.589372 0.726629 0.825363 0.244759
O5    O     O_R   0.647978 0.677120 0.803170 -0.372256
O6    O     O_R   0.515650 0.700698 0.858558 -0.358887
N36   N     N_R   0.342223 0.253739 0.201945 0.212109
O7    O     O_R   0.407119 0.299490 0.157582 -0.366687
O8    O     O_R   0.270534 0.280861 0.227968 -0.417729
N37   N     N_R   0.909743 0.226182 0.166386 0.220416
O9    O     O_R   0.970165 0.214931 0.064489 -0.359937
O10   O     O_R   0.866037 0.167122 0.225960 -0.389672
N38   N     N_R   0.095478 0.773047 0.828970 0.206195
O11   O     O_R   0.033982 0.785139 0.930288 -0.401012
O12   O     O_R   0.132309 0.832900 0.767157 -0.431974
N39   N     N_R   0.089218 0.226636 0.825528 0.244446
O13   O     O_R   0.147816 0.176875 0.802723 -0.371914
O14   O     O_R   0.015101 0.201053 0.859891 -0.358944
N40   N     N_R   0.842265 0.753754 0.201913 0.212122
O15   O     O_R   0.907180 0.799482 0.157541 -0.366717
O16   O     O_R   0.770608 0.780888 0.227849 -0.417749
O17   O     O_3   0.290490 0.228802 0.600708 -0.613092
C89   C     C_3   0.360934 0.177585 0.546887 0.319046
H49   H     H_    0.408738 0.195630 0.461730 0.071709
H50   H     H_    0.341413 0.116792 0.548207 0.084622
C90   C     C_3   0.402118 0.178756 0.603935 -0.906453
H51   H     H_    0.357166 0.156425 0.687191 0.261373
H52   H     H_    0.459718 0.141099 0.559589 0.197775
H53   H     H_    0.420287 0.238967 0.607540 0.255675
O18   O     O_3   0.630054 0.720337 0.412507 -0.597143
C91   C     C_3   0.577056 0.785188 0.437590 0.298640
H54   H     H_    0.614749 0.839331 0.404698 0.115557
H55   H     H_    0.528476 0.791607 0.526408 0.057579
C92   C     C_3   0.532809 0.774295 0.385188 -0.825044
H56   H     H_    0.493221 0.721348 0.417147 0.262942
H57   H     H_    0.491736 0.825511 0.402670 0.179549
H58   H     H_    0.580499 0.768171 0.296318 0.274658
O19   O     O_3   0.707624 0.282243 0.374601 -0.631745
C93   C     C_3   0.618798 0.278070 0.434250 0.247814
H59   H     H_    0.588316 0.329097 0.489602 0.109602
H60   H     H_    0.593397 0.223500 0.481837 0.085961
C94   C     C_3   0.595576 0.279874 0.356951 -0.845760
H61   H     H_    0.616975 0.225131 0.308971 0.241036
H62   H     H_    0.525829 0.285594 0.403077 0.215432
H63   H     H_    0.626002 0.330080 0.301634 0.269749
O20   O     O_3   0.314493 0.700634 0.614265 -0.629722
C95   C     C_3   0.330827 0.762308 0.659152 0.216769
H64   H     H_    0.272584 0.797037 0.716283 0.155906
H65   H     H_    0.380691 0.800925 0.595234 0.088265
C96   C     C_3   0.361350 0.729282 0.721309 -0.845856
H66   H     H_    0.419842 0.693927 0.666501 0.263300
H67   H     H_    0.375333 0.777411 0.756158 0.209462
H68   H     H_    0.311669 0.692004 0.787865 0.261466
O21   O     O_3   0.790535 0.728743 0.600690 -0.613015
C97   C     C_3   0.860884 0.677417 0.546946 0.319274
H69   H     H_    0.908655 0.695302 0.461714 0.071480
H70   H     H_    0.841221 0.616642 0.548519 0.084765
C98   C     C_3   0.902199 0.678659 0.603829 -0.906554
H71   H     H_    0.857282 0.656465 0.687162 0.261412
H72   H     H_    0.959733 0.640920 0.559517 0.197752
H73   H     H_    0.920497 0.738866 0.607196 0.255725
O22   O     O_3   0.129972 0.220160 0.412580 -0.597167
C99   C     C_3   0.076877 0.284942 0.437730 0.298396
H74   H     H_    0.114488 0.339133 0.404895 0.115491
H75   H     H_    0.028288 0.291303 0.526555 0.057625
C100  C     C_3   0.032646 0.273988 0.385314 -0.824859
H76   H     H_    0.993126 0.220997 0.417222 0.263120
H77   H     H_    0.991507 0.325157 0.402836 0.179567
H78   H     H_    0.080348 0.267911 0.296439 0.274634
O23   O     O_3   0.208059 0.781660 0.374194 -0.632018
C101  C     C_3   0.119267 0.777234 0.433675 0.247932
H79   H     H_    0.088574 0.828237 0.489020 0.109606
H80   H     H_    0.093997 0.722647 0.481240 0.085975
C102  C     C_3   0.096208 0.778805 0.356210 -0.846359
H81   H     H_    0.117887 0.724087 0.308167 0.241146
H82   H     H_    0.026464 0.784268 0.402187 0.215421
H83   H     H_    0.126472 0.829066 0.300973 0.269725
O24   O     O_3   0.814478 0.200218 0.613905 -0.629711
C103  C     C_3   0.830718 0.261713 0.659133 0.216868
H84   H     H_    0.772435 0.296342 0.716427 0.155738
H85   H     H_    0.880545 0.300469 0.595423 0.088337
C104  C     C_3   0.861249 0.228428 0.721159 -0.846098
H86   H     H_    0.919782 0.193155 0.666193 0.263381
H87   H     H_    0.875175 0.276422 0.756250 0.209539
H88   H     H_    0.811593 0.191017 0.787532 0.261477

loop_
_geom_bond_atom_site_label_1
_geom_bond_atom_site_label_2
_geom_bond_distance
_ccdc_geom_bond_type
C76   O20   1.416126 S    
N16   N29   1.392466 A    
C2    H2    1.072613 S    
C15   N39   1.428280 S    
C27   N27   1.320159 A    
N8    N21   1.345290 A    
N39   O14   1.300668 A    
C100  H76   1.110194 S    
C2    N2    1.325469 A    
N22   Ni8   1.913335 S    
C55   H39   1.109810 S    
O17   C89   1.410989 S    
N13   N32   1.389484 A    
C29   H21   1.079126 S    
C8    C40   1.377642 A    
N29   Ni8   1.869932 S    
C67   C79   1.528875 S    
C55   C59   1.550511 S    
C18   N18   1.333682 A    
C31   H23   1.080649 S    
C28   N28   1.322792 A    
C51   C63   1.550498 S    
N6    Ni4   1.844028 S    
C90   H51   1.109714 S    
C60   C68   1.535689 S    
C14   N14   1.328244 A    
O23   C101  1.409846 S    
C96   H66   1.110484 S    
C89   H50   1.113066 S    
C22   N22   1.333588 A    
C23   H15   1.081084 S    
C30   H22   1.081035 S    
C63   H31   1.109997 S    
O22   C99   1.408477 S    
C74   O18   1.410912 S    
C12   N36   1.429393 S    
N35   O6    1.300781 A    
C91   H54   1.112231 S    
C68   C80   1.528910 S    
C102  H81   1.109715 S    
C50   C62   1.542551 S    
C9    N33   1.432138 S    
C24   N24   1.336543 A    
C49   C61   1.555519 S    
C32   C45   1.364355 A    
C37   C83   1.444394 S    
C101  H80   1.114715 S    
C6    N6    1.325481 A    
C98   H72   1.110411 S    
N14   Ni3   1.907439 S    
N19   Ni6   1.892938 S    
C25   H17   1.079140 S    
C60   H28   1.109607 S    
C3    C35   1.371425 A    
C18   C35   1.372885 A    
C54   C58   1.542554 S    
C48   C70   1.444961 S    
N23   Ni8   1.892938 S    
C2    C34   1.380188 A    
C95   C96   1.521377 S    
C53   C57   1.555503 S    
C28   C41   1.364395 A    
C33   C87   1.444377 S    
N5    N24   1.342422 A    
C16   N40   1.429399 S    
N20   Ni5   1.892938 S    
C27   C42   1.371396 A    
C63   C71   1.532262 S    
N6    N23   1.342420 A    
C93   H60   1.114747 S    
C10   N10   1.328252 A    
N7    N22   1.345288 A    
N17   Ni5   1.913337 S    
C22   C39   1.372853 A    
C72   C76   1.528878 S    
N34   O4    1.298200 A    
C6    C38   1.380222 A    
C89   C90   1.520530 S    
C56   H40   1.109755 S    
C99   H75   1.112688 S    
C16   C48   1.389433 A    
C3    N3    1.326766 A    
C53   C70   1.542023 S    
N8    Ni4   1.843864 S    
C71   C75   1.528854 S    
C4    H4    1.073607 S    
C83   H43   1.082268 S    
O21   C97   1.410963 S    
C5    H5    1.072120 S    
C81   C86   1.337757 D    
C19   N19   1.337032 A    
C95   H65   1.109904 S    
C81   H41   1.081558 S    
C12   C44   1.389476 A    
C101  C102  1.520275 S    
C90   H52   1.110442 S    
C43   C65   1.441779 S    
N36   O7    1.300408 A    
C21   H13   1.081468 S    
C8    H8    1.073609 S    
C98   H71   1.109638 S    
C64   H32   1.109597 S    
C41   C67   1.433242 S    
C14   C46   1.380664 A    
C97   H70   1.112998 S    
C17   H9    1.081465 S    
C32   N32   1.322731 A    
N11   N26   1.392469 A    
C64   C72   1.535657 S    
O20   C95   1.409026 S    
C73   O17   1.411613 S    
C59   C76   1.538500 S    
C92   H57   1.110145 S    
N3    N18   1.345288 A    
N15   Ni4   1.907059 S    
C54   H38   1.109550 S    
C86   H46   1.083488 S    
C99   C100  1.521947 S    
C52   C76   1.541678 S    
C89   H49   1.112794 S    
C60   C75   1.531327 S    
C53   C77   1.535941 S    
C19   C34   1.382845 A    
N26   Ni5   1.869932 S    
C1    H1    1.072096 S    
C79   O23   1.412322 S    
N13   Ni4   1.907440 S    
C57   C74   1.544424 S    
C44   C66   1.445031 S    
C104  H87   1.111023 S    
N4    Ni2   1.843864 S    
C30   C47   1.366364 A    
N24   Ni7   1.892938 S    
C56   C80   1.541659 S    
C7    H7    1.072403 S    
C58   H26   1.110727 S    
N33   O2    1.299651 A    
O19   C93   1.409912 S    
C92   H56   1.110164 S    
C59   H27   1.109971 S    
C51   C68   1.539296 S    
C45   C71   1.432925 S    
N28   Ni6   1.890178 S    
C103  H84   1.107529 S    
C32   H24   1.080725 S    
C40   C82   1.441495 S    
C78   O22   1.410927 S    
N38   O12   1.298186 A    
C26   C43   1.366267 A    
C15   C47   1.378589 A    
C54   C69   1.541929 S    
C53   H37   1.109878 S    
N35   O5    1.299861 A    
N2    Ni2   1.844028 S    
C94   H61   1.109806 S    
N1    Ni1   1.844029 S    
C26   N26   1.322065 A    
C82   C85   1.337744 D    
C65   C77   1.523857 S    
C97   H69   1.112701 S    
C25   N25   1.328270 A    
C82   H42   1.083529 S    
C54   C78   1.542105 S    
C52   C67   1.542525 S    
N12   N25   1.392466 A    
N39   O13   1.300004 A    
N7    Ni3   1.843862 S    
C22   H14   1.081873 S    
N27   Ni5   1.890177 S    
O18   C91   1.408477 S    
C13   C45   1.376472 A    
N5    Ni3   1.844029 S    
C61   C78   1.544478 S    
C20   N20   1.336523 A    
C62   H30   1.110725 S    
N40   O15   1.300408 A    
C61   C69   1.542962 S    
C10   C42   1.380669 A    
N16   Ni3   1.907059 S    
C31   N31   1.320188 A    
N32   Ni8   1.890179 S    
N3    Ni1   1.843862 S    
C50   H34   1.109552 S    
C9    C41   1.376677 A    
C31   C46   1.371459 A    
C59   C67   1.532331 S    
N33   O1    1.298279 A    
C14   N38   1.437224 S    
C100  H77   1.110160 S    
C70   C74   1.523241 S    
C58   C73   1.524220 S    
C57   C65   1.542958 S    
C84   H44   1.083312 S    
C103  C104  1.521388 S    
C28   H20   1.080736 S    
N10   N27   1.389487 A    
C52   C64   1.554644 S    
N36   O8    1.299207 A    
C30   N30   1.322109 A    
C38   C84   1.444781 S    
C103  H85   1.109932 S    
O24   C103  1.409053 S    
C16   N16   1.332050 A    
C29   N29   1.328280 A    
N34   O3    1.298583 A    
C93   C94   1.520356 S    
C87   H47   1.082272 S    
C46   C72   1.430762 S    
C90   H53   1.110708 S    
C61   H29   1.109609 S    
C55   C72   1.539266 S    
C24   H16   1.081813 S    
C92   H58   1.110904 S    
C98   H73   1.110660 S    
C57   H25   1.109587 S    
C56   C71   1.542409 S    
C1    C33   1.371000 A    
N30   Ni7   1.869933 S    
C18   H10   1.081881 S    
C34   C88   1.444794 S    
N12   Ni1   1.907059 S    
N18   Ni6   1.913335 S    
N10   Ni1   1.907439 S    
C1    N1    1.330598 A    
C35   C85   1.434672 S    
C84   C87   1.337351 D    
N9    Ni2   1.907440 S    
C55   C79   1.530759 S    
C50   C65   1.541891 S    
C49   C73   1.535931 S    
C25   C44   1.379154 A    
C20   H12   1.081813 S    
C104  H88   1.110552 S    
C5    C37   1.370981 A    
C66   C78   1.523255 S    
C10   N34   1.437227 S    
C94   H63   1.110967 S    
C91   C92   1.521913 S    
C7    C39   1.371350 A    
C91   H55   1.112676 S    
C5    N5    1.330581 A    
N14   N31   1.389489 A    
N15   N30   1.392468 A    
C49   H33   1.109877 S    
C11   N11   1.337495 A    
N38   O11   1.298583 A    
C62   C77   1.524232 S    
C102  H83   1.110891 S    
C39   C81   1.434370 S    
C83   C88   1.337368 D    
C51   C75   1.530773 S    
C17   N17   1.337649 A    
C6    H6    1.072810 S    
C96   H67   1.110975 S    
C29   C48   1.379193 A    
N31   Ni7   1.890176 S    
C23   N23   1.337040 A    
C62   C70   1.544295 S    
C77   O21   1.411607 S    
C93   H59   1.112176 S    
C104  H86   1.110519 S    
C42   C68   1.430667 S    
C19   H11   1.081089 S    
N21   Ni7   1.913337 S    
C7    N7    1.326715 A    
C69   C73   1.523869 S    
C99   H74   1.112237 S    
C21   N21   1.337615 A    
C80   O24   1.416166 S    
C8    N8    1.320849 A    
C23   C38   1.382885 A    
C15   N15   1.337422 A    
C75   O19   1.412386 S    
C13   N37   1.431929 S    
C58   C66   1.544288 S    
C50   C74   1.542102 S    
N37   O9    1.298233 A    
C11   C43   1.378536 A    
N9    N28   1.389485 A    
C11   N35   1.428309 S    
C24   C37   1.370274 A    
C101  H79   1.112107 S    
C49   C66   1.542054 S    
C3    H3    1.072393 S    
C47   C69   1.441844 S    
N1    N20   1.342422 A    
C96   H68   1.110496 S    
C4    N4    1.320818 A    
C36   C86   1.441466 S    
N2    N19   1.342420 A    
C17   C36   1.385149 A    
C27   H19   1.080653 S    
N25   Ni6   1.869932 S    
C12   N12   1.332108 A    
C94   H62   1.109513 S    
C95   H64   1.107554 S    
C102  H82   1.109359 S    
C100  H78   1.110914 S    
C13   N13   1.332081 A    
N11   Ni2   1.907059 S    
N40   O16   1.299197 A    
C88   H48   1.083310 S    
C52   H36   1.109734 S    
N4    N17   1.345290 A    
C51   H35   1.109830 S    
C21   C40   1.385175 A    
C85   H45   1.081693 S    
C63   C80   1.538536 S    
C97   C98   1.520532 S    
C20   C33   1.370248 A    
C56   C60   1.554676 S    
C64   C79   1.531311 S    
C9    N9    1.332217 A    
N37   O10   1.299509 A    
C4    C36   1.377547 A    
C26   H18   1.081029 S    
