data_mof_unit_49628.cif
_audit_creation_date              2012-12-10T18:04:36-0500
_audit_creation_method            fapswitch 2.2
_symmetry_space_group_name_H-M    P1
_symmetry_Int_Tables_number       1
_space_group_crystal_system       triclinic
_cell_length_a                    10.846291
_cell_length_b                    9.784321
_cell_length_c                    15.901408
_cell_angle_alpha                 94.072136
_cell_angle_beta                  99.214445
_cell_angle_gamma                 91.21141
_cell_volume                      1660.62735869

loop_
_atom_site_label
_atom_site_type_symbol
_atom_type_description
_atom_site_fract_x
_atom_site_fract_y
_atom_site_fract_z
_atom_type_partial_charge
C1    C     C_R   0.869889 0.504404 0.485572 -0.372349
C2    C     C_R   0.130940 0.496664 0.517852 -0.364889
C3    C     C_R   0.264386 0.499146 0.507720 0.921591
C4    C     C_R   0.735889 0.501141 0.493233 0.917370
C5    C     C_R   0.500372 0.496045 0.341659 0.838846
C6    C     C_R   0.499574 0.503966 0.658339 0.838304
C7    C     C_R   0.466815 0.620914 0.960968 -0.126547
C8    C     C_R   0.532994 0.379095 0.039010 -0.127889
C9    C     C_R   0.466269 0.614338 0.048229 -0.138744
C10   C     C_R   0.533543 0.385673 0.951749 -0.134128
C11   C     C_R   0.500519 0.506570 0.912862 0.114947
C12   C     C_R   0.499306 0.493445 0.087118 0.116346
C13   C     C_1   0.500041 0.511896 0.823336 0.009960
C14   C     C_1   0.499839 0.488131 0.176651 0.005189
C15   C     C_1   0.500215 0.488383 0.252043 -0.023388
C16   C     C_1   0.499712 0.511644 0.747950 -0.016101
C17   C     C_R   0.433765 0.063431 0.431233 0.316501
C18   C     C_R   0.568805 0.936129 0.567846 0.374586
C19   C     C_R   0.574461 0.084977 0.564865 0.352910
C20   C     C_R   0.426678 0.914881 0.434638 0.332040
C21   C     C_R   0.057870 0.373673 0.501727 0.295593
C22   C     C_R   0.942866 0.627859 0.504072 0.250526
C23   C     C_R   0.929427 0.379677 0.473648 0.304732
C24   C     C_R   0.071738 0.621061 0.531262 0.260051
Cu1   Cu    Cu3+1 0.500000 0.640660 0.500000 1.180637
Cu2   Cu    Cu3+1 0.500000 0.359340 0.500000 1.174045
H1    H     H_    0.440315 0.703222 0.085352 0.186527
H2    H     H_    0.559505 0.296792 0.914628 0.186664
H3    H     H_    0.440993 0.714591 0.931089 0.181055
H4    H     H_    0.558817 0.285418 0.068888 0.176974
N1    N     N_R   0.500000 0.852070 0.500000 -0.289639
N2    N     N_R   0.500000 0.147930 0.500000 -0.296462
O1    O     O_R   0.319640 0.618740 0.499990 -0.486940
O2    O     O_R   0.680360 0.381260 0.500010 -0.485696
O3    O     O_R   0.680360 0.618740 0.500010 -0.501862
O4    O     O_R   0.319640 0.381260 0.499990 -0.507331
O5    O     O_R   0.499970 0.618750 0.380310 -0.516850
O6    O     O_R   0.500030 0.381250 0.619690 -0.520935
O7    O     O_R   0.500030 0.618750 0.619690 -0.504563
O8    O     O_R   0.499970 0.381250 0.380310 -0.501432
S1    S     S_3+6 0.372663 0.137303 0.330328 0.135573
O9    O     O_2   0.484038 0.169865 0.288984 -0.255395
O10   O     O_2   0.285930 0.054032 0.262205 -0.174650
O11   O     O_3   0.290083 0.277124 0.347287 -0.477878
H5    H     H_    0.266486 0.313192 0.290439 0.346180
S2    S     S_3+6 0.632759 0.861452 0.668133 0.131228
O12   O     O_2   0.723731 0.943732 0.734147 -0.181528
O13   O     O_2   0.523242 0.831914 0.712026 -0.253284
O14   O     O_3   0.711753 0.719149 0.651015 -0.513055
H6    H     H_    0.735741 0.683548 0.707964 0.337271
S3    S     S_3+6 0.685890 0.182160 0.647227 0.132045
O15   O     O_2   0.635920 0.174332 0.729803 -0.264072
O16   O     O_2   0.808445 0.112143 0.651198 -0.156644
O17   O     O_3   0.726708 0.348027 0.646504 -0.542429
H7    H     H_    0.787424 0.369725 0.699589 0.352739
S4    S     S_3+6 0.316419 0.817516 0.351475 0.113784
O18   O     O_2   0.194580 0.889310 0.343829 -0.225078
O19   O     O_2   0.370232 0.821386 0.270097 -0.258563
O20   O     O_3   0.272744 0.652856 0.353788 -0.530552
H8    H     H_    0.215258 0.629624 0.299394 0.355196
S5    S     S_3+6 0.116998 0.217810 0.539591 0.144900
O21   O     O_2   0.220349 0.246199 0.614430 -0.282238
O22   O     O_2   0.015710 0.133702 0.567523 -0.113126
O23   O     O_3   0.171254 0.129231 0.460289 -0.405871
H9    H     H_    0.218502 0.055741 0.488593 0.383803
S6    S     S_3+6 0.884525 0.785696 0.467840 0.127238
O24   O     O_2   0.785087 0.758823 0.390405 -0.302659
O25   O     O_2   0.830355 0.864709 0.536662 -0.153998
O26   O     O_3   0.000902 0.881039 0.441436 -0.397602
H10   H     H_    0.968267 0.910936 0.384189 0.402203
S7    S     S_3+6 0.852912 0.244720 0.401639 0.099243
O27   O     O_2   0.797359 0.138696 0.449673 -0.192643
O28   O     O_2   0.750877 0.301840 0.339806 -0.302438
O29   O     O_3   0.956068 0.170906 0.345732 -0.457712
H11   H     H_    0.904637 0.113119 0.298808 0.377018
S8    S     S_3+6 0.149664 0.751236 0.606148 0.123168
O30   O     O_2   0.239912 0.686980 0.672615 -0.301235
O31   O     O_2   0.221273 0.848503 0.561824 -0.208876
O32   O     O_3   0.047151 0.840033 0.655350 -0.379353
H12   H     H_    0.005307 0.771264 0.684984 0.349639

loop_
_geom_bond_atom_site_label_1
_geom_bond_atom_site_label_2
_ccdc_geom_bond_type
Cu1   N1    S    
S6    O25   D    
Cu2   N2    S    
C7    H3    S    
C5    O5    A    
S1    O9    D    
S8    O32   S    
C20   S4    S    
C7    C11   A    
S2    O14   S    
S8    O31   D    
S6    O26   S    
C3    O1    A    
C17   C20   A    
S4    O18   D    
C18   C19   A    
S5    O22   D    
C22   S6    S    
Cu1   O5    S    
O17   H7    S    
Cu2   O2    S    
C6    O6    A    
C21   S5    S    
S6    O24   D    
C4    O3    A    
O20   H8    S    
S1    O10   D    
S5    O21   D    
C19   N2    A    
C18   S2    S    
S2    O13   D    
C4    O2    A    
O29   H11   S    
S3    O15   D    
C23   S7    S    
S8    O30   D    
S7    O28   D    
Cu2   O6    S    
Cu1   Cu2   S    
S3    O16   D    
S5    O23   S    
C8    C12   A    
C2    C21   A    
Cu1   O3    S    
Cu2   O4    S    
C12   C14   S    
C1    C23   A    
C21   C23   A    
C2    C24   A    
S1    O11   S    
C22   C24   A    
C13   C16   T    
O11   H5    S    
C9    H1    S    
C10   H2    S    
C7    C9    A    
S2    O12   D    
C14   C15   T    
C24   S8    S    
S7    O29   S    
S4    O20   S    
C1    C4    S    
C8    H4    S    
O23   H9    S    
S3    O17   S    
C2    C3    S    
S7    O27   D    
Cu1   O7    S    
C11   C13   S    
Cu2   O8    S    
C3    O4    A    
S4    O19   D    
O26   H10   S    
C9    C12   A    
C17   S1    S    
C5    C15   S    
C10   C11   A    
C6    C16   S    
O32   H12   S    
C19   S3    S    
C1    C22   A    
C8    C10   A    
O14   H6    S    
C5    O8    A    
C17   N2    A    
C6    O7    A    
C18   N1    A    
Cu1   O1    S    
C20   N1    A    
