data_mof_unit_65858.cif
_audit_creation_date              2012-10-26T17:29:20-0400
_audit_creation_method            fapswitch 2.2
_symmetry_space_group_name_H-M    P1
_symmetry_Int_Tables_number       1
_space_group_crystal_system       triclinic
_cell_length_a                    28.299964
_cell_length_b                    18.361687
_cell_length_c                    21.582916
_cell_angle_alpha                 90.00078
_cell_angle_beta                  139.545561
_cell_angle_gamma                 89.999307
_cell_volume                      7276.93214162

loop_
_atom_site_label
_atom_site_type_symbol
_atom_type_description
_atom_site_fract_x
_atom_site_fract_y
_atom_site_fract_z
_atom_type_partial_charge
C1    C     C_R   0.860084 0.000000 0.860031 0.558076
C2    C     C_R   1.000000 0.139888 0.499999 0.543711
C3    C     C_R   0.500000 0.360112 0.500000 0.543762
C4    C     C_R   0.500000 0.639888 0.499999 0.543701
C5    C     C_R   0.999853 0.000016 0.620144 0.569436
C6    C     C_R   0.000147 0.000002 0.379856 0.569438
C7    C     C_R   0.499853 0.500022 0.620144 0.569435
C8    C     C_R   0.500147 0.500015 0.379856 0.569438
C9    C     C_R   0.500000 0.139629 0.500000 0.557224
C10   C     C_R   0.500000 0.860371 0.499999 0.557226
C11   C     C_R   1.000000 0.639629 0.500000 0.557223
C12   C     C_R   0.139916 1.000000 0.139969 0.558076
C13   C     C_R   1.000000 0.360371 0.500000 0.557227
C14   C     C_R   0.639628 0.000000 0.639562 0.557759
C15   C     C_R   0.360372 0.000000 0.360438 0.557759
C16   C     C_R   0.139628 0.500000 0.639562 0.557759
C17   C     C_R   0.860372 0.500000 0.360438 0.557759
C18   C     C_1   0.000000 0.782546 0.500001 -0.068198
C19   C     C_1   1.000000 0.217454 0.499999 -0.068140
C20   C     C_1   0.500000 0.282546 0.500001 -0.068228
C21   C     C_1   0.500000 0.717454 0.499999 -0.068111
C22   C     C_1   0.500000 0.217217 0.500001 -0.061085
C23   C     C_R   0.360084 0.500000 0.860031 0.558076
C24   C     C_1   0.500000 0.782783 0.499999 -0.061016
C25   C     C_1   0.000000 0.717217 0.500001 -0.061070
C26   C     C_1   1.000000 0.282783 0.499999 -0.061031
C27   C     C_R   0.997741 0.999999 0.877582 0.549925
C28   C     C_R   0.002259 0.000000 0.122418 0.549926
C29   C     C_R   0.497740 0.499999 0.877581 0.549925
C30   C     C_R   0.502259 0.500000 0.122418 0.549925
C31   C     C_3   0.958128 0.931346 0.743774 -0.194608
C32   C     C_3   0.042042 0.068560 0.256386 -0.194626
C33   C     C_3   0.042004 0.931420 0.256349 -0.194618
C34   C     C_R   0.639916 0.500000 0.139969 0.558076
C35   C     C_3   0.957827 0.068485 0.743491 -0.194630
C36   C     C_3   0.458176 0.431318 0.743820 -0.194606
C37   C     C_3   0.542154 0.568497 0.256492 -0.194638
C38   C     C_3   0.541893 0.431358 0.256244 -0.194606
C39   C     C_3   0.457776 0.568457 0.743443 -0.194634
C40   C     C_3   0.959855 0.930013 0.673801 0.177357
C41   C     C_3   0.040311 0.069911 0.326355 0.177397
C42   C     C_3   0.040267 0.930069 0.326311 0.177393
C43   C     C_3   0.959568 0.069854 0.673533 0.177435
C44   C     C_3   0.459898 0.429992 0.673842 0.177342
C45   C     C_1   0.717199 0.000000 0.717009 -0.054056
C46   C     C_3   0.540413 0.569866 0.326451 0.177431
C47   C     C_3   0.540166 0.430024 0.326217 0.177358
C48   C     C_3   0.459522 0.569834 0.673490 0.177448
C49   C     C_3   0.076860 0.000179 0.863902 -0.281035
C50   C     C_3   0.923141 0.000024 0.136098 -0.281034
C51   C     C_3   0.576858 0.500238 0.863902 -0.281032
C52   C     C_3   0.423141 0.500158 0.136098 -0.281033
C53   C     C_3   0.997534 1.000000 0.808519 -0.016029
C54   C     C_3   0.002466 0.000001 0.191481 -0.016027
C55   C     C_3   0.497533 0.500000 0.808518 -0.016028
C56   C     C_1   0.282801 1.000000 0.282991 -0.054057
C57   C     C_3   0.502467 0.500001 0.191481 -0.016027
C58   C     C_3   0.998698 0.000015 0.688128 0.090766
C59   C     C_3   0.001303 0.000002 0.311872 0.090765
C60   C     C_3   0.498697 0.500020 0.688127 0.090764
C61   C     C_3   0.501303 0.500015 0.311873 0.090765
C62   C     C_3   0.077851 0.000173 0.793526 -0.323102
C63   C     C_3   0.922149 0.000026 0.206475 -0.323102
C64   C     C_3   0.577850 0.500228 0.793525 -0.323101
C65   C     C_3   0.422149 0.500152 0.206474 -0.323102
C66   C     C_1   0.782522 0.000000 0.782361 -0.058102
C67   C     C_1   0.217199 0.500000 0.717009 -0.054056
C68   C     C_1   0.217478 1.000000 0.217639 -0.058102
C69   C     C_1   0.282522 0.500000 0.782361 -0.058102
C70   C     C_1   0.717478 0.500000 0.217639 -0.058102
C71   C     C_3   0.866527 0.852484 0.548967 -0.007214
C72   C     C_3   0.786588 0.849949 0.451016 -0.352252
C73   C     C_3   0.133819 0.147233 0.451350 -0.007221
C74   C     C_3   0.213766 0.149588 0.549300 -0.352270
C75   C     C_3   0.133723 0.852683 0.451252 -0.007218
C76   C     C_3   0.213665 0.850274 0.549209 -0.352263
C77   C     C_3   0.865936 0.147030 0.548423 -0.007223
C78   C     C_1   0.782801 0.500000 0.282991 -0.054057
C79   C     C_3   0.785988 0.149257 0.450464 -0.352276
C80   C     C_3   0.366618 0.352408 0.549049 -0.007207
C81   C     C_3   0.286678 0.349821 0.451103 -0.352251
C82   C     C_3   0.634031 0.647070 0.451531 -0.007223
C83   C     C_3   0.713980 0.649320 0.549488 -0.352278
C84   C     C_3   0.633512 0.352521 0.451077 -0.007210
C85   C     C_3   0.713451 0.350008 0.549031 -0.352249
C86   C     C_3   0.365844 0.646957 0.548338 -0.007220
C87   C     C_3   0.285896 0.649138 0.450374 -0.352276
C88   C     C_R   0.000000 0.860112 0.500001 0.543752
Cu1   Cu    Cu3+1 0.000000 0.927450 0.000000 0.911504
Cu2   Cu    Cu3+1 0.500040 0.000000 0.562520 0.930156
Cu3   Cu    Cu3+1 0.999960 0.500000 0.437480 0.930157
Cu4   Cu    Cu3+1 0.000040 0.500000 0.562520 0.930156
Cu5   Cu    Cu3+1 0.000000 0.072550 0.000000 0.911508
Cu6   Cu    Cu3+1 0.500000 0.427450 0.000000 0.911508
Cu7   Cu    Cu3+1 0.500000 0.572550 0.000000 0.911505
Cu8   Cu    Cu3+1 0.927450 0.000000 0.427440 0.944353
Cu9   Cu    Cu3+1 0.072550 0.000000 0.572560 0.944363
Cu10  Cu    Cu3+1 0.427450 0.500000 0.427440 0.944357
Cu11  Cu    Cu3+1 0.572550 0.500000 0.572560 0.944360
Cu12  Cu    Cu3+1 0.499960 0.000000 0.437480 0.930156
H1    H     H_    0.984834 0.880989 0.787965 0.097668
H2    H     H_    0.099270 0.069133 0.296413 0.148680
H3    H     H_    0.099233 0.930817 0.296380 0.148695
H4    H     H_    0.900595 0.068940 0.703454 0.148663
H5    H     H_    0.400953 0.430551 0.703803 0.148724
H6    H     H_    0.599386 0.568968 0.296529 0.148661
H7    H     H_    0.599118 0.430653 0.296266 0.148716
H8    H     H_    0.400543 0.568867 0.703401 0.148656
H9    H     H_    0.993747 0.882635 0.692282 0.057015
H10   H     H_    0.006528 0.117370 0.307976 0.056991
H11   H     H_    0.006451 0.882632 0.307895 0.057000
H12   H     H_    0.015466 0.118981 0.212316 0.097668
H13   H     H_    0.993275 0.117373 0.691849 0.056968
H14   H     H_    0.493820 0.382636 0.692346 0.057025
H15   H     H_    0.506694 0.617375 0.308125 0.056981
H16   H     H_    0.506286 0.382636 0.307747 0.057009
H17   H     H_    0.493201 0.617374 0.691782 0.056962
H18   H     H_    0.106305 0.951373 0.910864 0.134789
H19   H     H_    0.893820 0.048907 0.089264 0.134843
H20   H     H_    0.893793 0.951157 0.089238 0.134830
H21   H     H_    0.106082 0.049123 0.910634 0.134885
H22   H     H_    0.606341 0.451456 0.910904 0.134773
H23   H     H_    0.015403 0.881013 0.212251 0.097665
H24   H     H_    0.393904 0.549092 0.089352 0.134877
H25   H     H_    0.393710 0.451343 0.089149 0.134796
H26   H     H_    0.606044 0.549204 0.910595 0.134899
H27   H     H_    0.108130 0.951406 0.807127 0.132037
H28   H     H_    0.891982 0.048860 0.192991 0.131973
H29   H     H_    0.891950 0.951213 0.192959 0.131992
H30   H     H_    0.107938 0.049053 0.806924 0.131927
H31   H     H_    0.608160 0.451479 0.807161 0.132053
H32   H     H_    0.392049 0.549024 0.193062 0.131934
H33   H     H_    0.391883 0.451378 0.192885 0.132030
H34   H     H_    0.984298 0.118956 0.787469 0.097666
H35   H     H_    0.607908 0.549125 0.806893 0.131910
H36   H     H_    0.873639 0.820625 0.599574 0.106406
H37   H     H_    0.898971 0.827038 0.543498 0.132818
H38   H     H_    0.777989 0.880552 0.398648 0.167241
H39   H     H_    0.769390 0.792540 0.426924 0.089731
H40   H     H_    0.752740 0.874588 0.454392 0.154669
H41   H     H_    0.101440 0.172767 0.456880 0.132832
H42   H     H_    0.126777 0.179094 0.400804 0.106398
H43   H     H_    0.247551 0.124854 0.545866 0.154696
H44   H     H_    0.231100 0.206959 0.573510 0.089718
H45   H     H_    0.484922 0.380980 0.788046 0.097671
H46   H     H_    0.222299 0.118982 0.601610 0.167195
H47   H     H_    0.126670 0.820834 0.400690 0.106395
H48   H     H_    0.101320 0.827162 0.456749 0.132814
H49   H     H_    0.222209 0.880869 0.601535 0.167208
H50   H     H_    0.230961 0.792891 0.573376 0.089694
H51   H     H_    0.247474 0.874991 0.545806 0.154690
H52   H     H_    0.898278 0.172626 0.542863 0.132835
H53   H     H_    0.872921 0.178892 0.598917 0.106389
H54   H     H_    0.752239 0.124465 0.453929 0.154707
H55   H     H_    0.768562 0.206600 0.426166 0.089684
H56   H     H_    0.515669 0.618961 0.212502 0.097665
H57   H     H_    0.777510 0.118641 0.398205 0.167171
H58   H     H_    0.373755 0.320546 0.599677 0.106410
H59   H     H_    0.399074 0.326988 0.543588 0.132820
H60   H     H_    0.278054 0.380420 0.398711 0.167241
H61   H     H_    0.269515 0.292401 0.427046 0.089751
H62   H     H_    0.252818 0.374438 0.454469 0.154665
H63   H     H_    0.601686 0.672674 0.457082 0.132824
H64   H     H_    0.627039 0.678916 0.401022 0.106387
H65   H     H_    0.747734 0.624521 0.546034 0.154707
H66   H     H_    0.731394 0.706670 0.573759 0.089687
H67   H     H_    0.515202 0.380994 0.212066 0.097670
H68   H     H_    0.722466 0.618723 0.601763 0.167170
H69   H     H_    0.626411 0.320654 0.400483 0.106407
H70   H     H_    0.601072 0.327073 0.456551 0.132821
H71   H     H_    0.722040 0.380618 0.601388 0.167234
H72   H     H_    0.730665 0.292605 0.573143 0.089724
H73   H     H_    0.747294 0.374653 0.545652 0.154672
H74   H     H_    0.398172 0.672579 0.542768 0.132832
H75   H     H_    0.372806 0.678817 0.598813 0.106382
H76   H     H_    0.252158 0.624324 0.453847 0.154709
H77   H     H_    0.268435 0.706471 0.426043 0.089660
H78   H     H_    0.484207 0.618947 0.787385 0.097665
H79   H     H_    0.277439 0.618521 0.398134 0.167163
H80   H     H_    0.900903 0.930624 0.703753 0.148718
O1    O     O_R   0.894190 0.938730 0.894180 -0.504841
O2    O     O_R   0.000020 0.061270 0.091170 -0.515172
O3    O     O_R   0.000020 0.938730 0.091170 -0.515178
O4    O     O_R   0.999980 0.061270 0.908830 -0.515167
O5    O     O_R   0.499980 0.438730 0.908830 -0.515185
O6    O     O_R   0.500020 0.561270 0.091170 -0.515166
O7    O     O_R   0.500020 0.438730 0.091170 -0.515183
O8    O     O_R   0.499980 0.561270 0.908830 -0.515164
O9    O     O_R   0.938700 0.894210 0.438700 -0.510886
O10   O     O_R   0.061300 0.105790 0.561300 -0.510927
O11   O     O_R   0.061300 0.894210 0.561300 -0.510907
O12   O     O_R   0.105810 0.061270 0.105820 -0.504848
O13   O     O_R   0.938700 0.105790 0.438700 -0.510954
O14   O     O_R   0.438700 0.394210 0.438700 -0.510871
O15   O     O_R   0.561300 0.605790 0.561300 -0.510945
O16   O     O_R   0.561300 0.394210 0.561300 -0.510891
O17   O     O_R   0.438700 0.605790 0.438700 -0.510968
O18   O     O_R   0.938740 0.000000 0.529880 -0.422671
O19   O     O_R   0.061260 0.000000 0.470120 -0.422665
O20   O     O_R   0.438740 0.500000 0.529880 -0.422669
O21   O     O_R   0.561260 0.500000 0.470120 -0.422667
O22   O     O_R   0.061220 0.000000 0.652370 -0.547509
O23   O     O_R   0.105810 0.938730 0.105820 -0.504845
O24   O     O_R   0.938780 0.000000 0.347630 -0.547508
O25   O     O_R   0.561220 0.500000 0.652370 -0.547507
O26   O     O_R   0.438780 0.500000 0.347630 -0.547508
O27   O     O_R   0.499910 0.105770 0.447130 -0.506745
O28   O     O_R   0.500090 0.894230 0.552870 -0.506725
O29   O     O_R   0.500090 0.105770 0.552870 -0.506750
O30   O     O_R   0.499910 0.894230 0.447130 -0.506730
O31   O     O_R   0.999910 0.605770 0.447130 -0.506738
O32   O     O_R   0.000090 0.394230 0.552870 -0.506724
O33   O     O_R   0.000090 0.605770 0.552870 -0.506751
O34   O     O_R   0.894190 0.061270 0.894180 -0.504851
O35   O     O_R   0.999910 0.394230 0.447130 -0.506736
O36   O     O_R   0.605760 0.000000 0.553010 -0.505987
O37   O     O_R   0.394240 0.000000 0.446990 -0.505987
O38   O     O_R   0.105760 0.500000 0.553010 -0.505987
O39   O     O_R   0.894240 0.500000 0.446990 -0.505987
O40   O     O_R   0.605780 0.000000 0.658540 -0.504198
O41   O     O_R   0.394220 0.000000 0.341460 -0.504198
O42   O     O_R   0.105780 0.500000 0.658540 -0.504198
O43   O     O_R   0.894220 0.500000 0.341460 -0.504198
O44   O     O_3   0.887674 0.925792 0.578401 -0.492154
O45   O     O_R   0.394190 0.438730 0.894180 -0.504841
O46   O     O_3   0.112501 0.073971 0.421764 -0.492120
O47   O     O_3   0.112452 0.925959 0.421721 -0.492125
O48   O     O_3   0.887375 0.073802 0.578115 -0.492094
O49   O     O_3   0.387719 0.425728 0.578445 -0.492163
O50   O     O_3   0.612605 0.573834 0.421869 -0.492091
O51   O     O_3   0.612348 0.425823 0.421618 -0.492154
O52   O     O_3   0.387328 0.573741 0.578068 -0.492083
O53   O     O_R   0.605810 0.561270 0.105820 -0.504851
O54   O     O_R   0.605810 0.438730 0.105820 -0.504842
O55   O     O_R   0.394190 0.561270 0.894180 -0.504851
O56   O     O_R   0.999980 0.938730 0.908830 -0.515183

loop_
_geom_bond_atom_site_label_1
_geom_bond_atom_site_label_2
_ccdc_geom_bond_type
C58   C62   S    
C4    O15   A    
C74   H43   S    
C34   C70   S    
C35   C53   S    
C81   H62   S    
C62   H30   S    
C16   O42   A    
C37   H56   S    
Cu6   O5    S    
C80   O49   S    
C7    O25   A    
C39   H78   S    
C71   H37   S    
C73   H41   S    
C42   O47   S    
Cu8   O18   S    
C87   H76   S    
C12   C68   S    
C85   H71   S    
C46   H15   S    
C40   O44   S    
C50   H20   S    
C33   C42   S    
C31   H1    S    
Cu1   O56   S    
C11   O31   A    
C8    O21   A    
C28   O3    A    
C84   H70   S    
C6    O19   A    
Cu5   O4    S    
C9    C22   S    
C31   C53   S    
C70   C78   T    
C82   H63   S    
C11   C25   S    
C30   C57   S    
Cu11  O15   S    
C38   H7    S    
C31   C40   S    
Cu10  O14   S    
C86   H75   S    
C73   C74   S    
C12   O23   A    
Cu2   Cu12  S    
C7    O20   A    
C84   O51   S    
C19   C26   T    
C28   O2    A    
C27   O4    A    
Cu2   O37   S    
Cu3   O35   S    
C43   C58   S    
C77   H53   S    
Cu9   O10   S    
C10   O30   A    
C72   H39   S    
C39   C55   S    
C9    O29   A    
C85   H73   S    
C32   C41   S    
Cu1   O3    S    
C16   O38   A    
C71   O44   S    
C15   O37   A    
C35   C43   S    
Cu9   O22   S    
Cu2   O40   S    
C63   H28   S    
C17   O39   A    
C8    C61   S    
C23   O55   A    
Cu12  O30   S    
C72   H38   S    
Cu5   O34   S    
C64   H35   S    
C44   H14   S    
C81   H60   S    
Cu11  O21   S    
C51   C55   S    
C37   H6    S    
C50   C63   S    
C46   O50   S    
C13   O32   A    
C14   O40   A    
C38   H67   S    
C18   C25   T    
Cu7   O55   S    
C77   H52   S    
C32   C54   S    
C23   O45   A    
Cu12  O27   S    
Cu7   O8    S    
C48   C60   S    
C14   C45   S    
C73   H42   S    
C77   C79   S    
C39   H8    S    
C12   O12   A    
C83   H66   S    
C3    O14   A    
C40   C58   S    
C46   C61   S    
C50   H19   S    
C85   H72   S    
C1    O34   A    
C47   C61   S    
Cu4   O33   S    
C84   C85   S    
C41   C59   S    
Cu3   O31   S    
C84   H69   S    
C9    O27   A    
C5    O22   A    
C28   C54   S    
C86   C87   S    
Cu6   O54   S    
C80   H59   S    
C29   C55   S    
C76   H51   S    
C10   C24   S    
C2    C19   S    
C87   H79   S    
C23   C69   S    
C82   C83   S    
Cu1   Cu5   S    
C18   C88   S    
Cu4   O32   S    
C67   C69   T    
Cu1   O1    S    
Cu8   O9    S    
C15   O41   A    
Cu4   O39   S    
C75   C76   S    
C6    O24   A    
C17   O43   A    
C87   H77   S    
C38   C57   S    
C83   H65   S    
Cu5   O2    S    
C36   H45   S    
C88   O11   A    
C80   H58   S    
C49   H18   S    
C64   H31   S    
C76   H50   S    
C49   H21   S    
Cu8   Cu9   S    
C1    C66   S    
C14   O36   A    
C3    C20   S    
C16   C67   S    
C50   C54   S    
Cu6   O7    S    
C8    O26   A    
C38   C47   S    
C40   H9    S    
C27   O56   A    
C11   O33   A    
Cu2   O28   S    
C5    C58   S    
C4    O17   A    
Cu6   O45   S    
Cu11  O25   S    
C35   H4    S    
C41   H10   S    
C32   H2    S    
C13   C26   S    
C36   C44   S    
C76   H49   S    
Cu3   O43   S    
C34   O54   A    
C35   H34   S    
C30   O6    A    
C7    C60   S    
C71   H36   S    
C65   H32   S    
C43   O48   S    
C33   H23   S    
Cu5   O12   S    
C33   C54   S    
C74   H44   S    
C41   O46   S    
Cu8   O13   S    
C1    O1    A    
C49   C62   S    
C32   H12   S    
Cu10  O17   S    
Cu1   O23   S    
C36   H5    S    
C33   H3    S    
C51   H26   S    
C81   H61   S    
C6    C59   S    
C74   H46   S    
C42   H11   S    
C51   C64   S    
C2    O10   A    
C20   C22   T    
C80   C81   S    
C39   C48   S    
C42   C59   S    
C79   H57   S    
Cu2   O29   S    
C52   H25   S    
C27   C53   S    
C5    O18   A    
C75   H48   S    
C83   H68   S    
Cu9   O11   S    
C59   C63   S    
C3    O16   A    
C29   O8    A    
Cu10  O20   S    
C31   H80   S    
C60   C64   S    
C2    O13   A    
C75   H47   S    
C30   O7    A    
C13   O35   A    
Cu3   O38   S    
C75   O47   S    
C86   O52   S    
C71   C72   S    
C44   O49   S    
C56   C68   T    
C43   H13   S    
C79   H54   S    
C4    C21   S    
C52   H24   S    
Cu9   O19   S    
C73   O46   S    
C82   H64   S    
Cu12  O41   S    
C44   C60   S    
C49   C53   S    
Cu11  O16   S    
Cu4   O42   S    
C17   C78   S    
C29   O5    A    
Cu8   O24   S    
C63   H29   S    
C82   O50   S    
Cu6   Cu7   S    
C15   C56   S    
C37   C57   S    
C47   H16   S    
C52   C57   S    
C48   H17   S    
C79   H55   S    
C10   O28   A    
C48   O52   S    
C61   C65   S    
C62   H27   S    
C72   H40   S    
C52   C65   S    
C47   O51   S    
C77   O48   S    
Cu12  O36   S    
Cu10  Cu11  S    
C21   C24   T    
C45   C66   T    
C36   C55   S    
C51   H22   S    
Cu10  O26   S    
Cu7   O53   S    
C86   H74   S    
C37   C46   S    
C34   O53   A    
C65   H33   S    
Cu3   Cu4   S    
Cu7   O6    S    
C88   O9    A    
