data_mof_unit_6614.cif
_audit_creation_date              2012-12-10T19:15:23-0500
_audit_creation_method            fapswitch 2.2
_symmetry_space_group_name_H-M    P1
_symmetry_Int_Tables_number       1
_space_group_crystal_system       triclinic
_cell_length_a                    10.646848
_cell_length_b                    9.713869
_cell_length_c                    23.400193
_cell_angle_alpha                 89.50814
_cell_angle_beta                  89.182956
_cell_angle_gamma                 90.391263
_cell_volume                      2419.70308811

loop_
_atom_site_label
_atom_site_type_symbol
_atom_type_description
_atom_site_fract_x
_atom_site_fract_y
_atom_site_fract_z
_atom_type_partial_charge
C1    C     C_R   0.257839 0.499318 0.500865 0.867782
C2    C     C_R   0.245857 0.519692 0.968566 -0.199719
C3    C     C_R   0.238854 0.514868 0.028182 -0.019553
C4    C     C_R   0.348582 0.487394 0.060200 -0.060713
C5    C     C_R   0.462910 0.460596 0.030653 -0.029782
C6    C     C_R   0.573062 0.430283 0.061004 -0.011450
C7    C     C_R   0.685784 0.403188 0.031503 -0.151472
C8    C     C_R   0.690608 0.408714 0.972222 -0.158139
C9    C     C_R   0.350624 0.488528 0.120509 0.504189
C10   C     C_R   0.568752 0.430888 0.120446 0.509721
C11   C     C_R   0.529794 0.588157 0.232024 -0.134519
C12   C     C_R   0.499306 0.500323 0.389220 0.867554
C13   C     C_R   0.543114 0.599034 0.290890 -0.028995
C14   C     C_R   0.487326 0.498174 0.327116 -0.092897
C15   C     C_R   0.418288 0.389332 0.303340 -0.240474
C16   C     C_R   0.406396 0.379201 0.244573 -0.092405
C17   C     C_R   0.463135 0.477915 0.208998 0.297965
C18   C     C_R   0.494436 0.364559 0.761299 -0.098566
C19   C     C_R   0.500723 0.368980 0.702117 -0.202510
C20   C     C_R   0.498130 0.496134 0.673121 -0.051707
C21   C     C_R   0.491206 0.618882 0.704206 -0.208236
C22   C     C_R   0.484690 0.614044 0.763563 -0.097251
C23   C     C_R   0.742669 0.500421 0.498934 0.853116
C24   C     C_R   0.485875 0.486840 0.791941 0.316768
C25   C     C_3   0.070218 0.592819 0.547438 -0.389230
C26   C     C_3   0.070008 0.350085 0.508822 -0.410127
C27   C     C_3   0.926587 0.586702 0.548856 -0.449759
C28   C     C_3   0.927500 0.351273 0.507356 -0.445147
C29   C     C_3   0.080171 0.551776 0.440483 -0.386833
C30   C     C_3   0.121909 0.498299 0.499634 0.103993
C31   C     C_3   0.879526 0.501247 0.497444 0.169161
C32   C     C_3   0.934403 0.561773 0.438605 0.395899
C33   C     C_3   0.374382 0.080842 0.516065 -0.074521
C34   C     C_3   0.374176 0.916962 0.515800 -0.073124
C35   C     C_3   0.529418 0.082737 0.441147 -0.261046
C36   C     C_3   0.530607 0.920357 0.441348 -0.264200
C37   C     C_3   0.595328 0.080849 0.538050 -0.251328
C38   C     C_3   0.594684 0.918862 0.538382 -0.254455
C39   C     C_R   0.500345 0.499264 0.610770 0.890601
C40   C     C_R   0.586309 0.449606 0.881828 0.502560
C41   C     C_R   0.367861 0.504325 0.879908 0.514667
C42   C     C_R   0.359662 0.496910 0.939575 -0.028077
C43   C     C_R   0.468189 0.465673 0.970537 -0.019151
C44   C     C_R   0.582669 0.440861 0.941395 -0.012864
H1    H     H_    0.161582 0.542001 0.944764 0.194171
H2    H     H_    0.507207 0.272854 0.679207 0.164094
H3    H     H_    0.490306 0.718110 0.682803 0.166233
H4    H     H_    0.478983 0.708674 0.787562 0.141221
H5    H     H_    0.100672 0.701160 0.539453 0.185554
H6    H     H_    0.105813 0.280253 0.474866 0.174358
H7    H     H_    0.107044 0.560397 0.589737 0.187745
H8    H     H_    0.100649 0.308546 0.550802 0.197280
H9    H     H_    0.894128 0.537915 0.589769 0.178839
H10   H     H_    0.890151 0.309576 0.548799 0.182161
H11   H     H_    0.887961 0.692681 0.548995 0.181250
H12   H     H_    0.894218 0.279688 0.473939 0.181696
H13   H     H_    0.125658 0.653431 0.431301 0.164869
H14   H     H_    0.117117 0.481561 0.406875 0.154851
H15   H     H_    0.304253 0.115298 0.484237 0.096337
H16   H     H_    0.304491 0.883586 0.483608 0.099726
H17   H     H_    0.459259 0.119604 0.409854 0.153130
H18   H     H_    0.462865 0.881533 0.409430 0.163557
H19   H     H_    0.690411 0.118809 0.525101 0.152094
H20   H     H_    0.689787 0.881440 0.526191 0.153098
H21   H     H_    0.579078 0.118873 0.582172 0.154730
H22   H     H_    0.576840 0.880096 0.582588 0.157454
H23   H     H_    0.622164 0.123149 0.425917 0.168455
H24   H     H_    0.624897 0.884775 0.427575 0.174290
H25   H     H_    0.771122 0.379416 0.054125 0.199428
H26   H     H_    0.779307 0.388714 0.950712 0.194565
H27   H     H_    0.574112 0.663219 0.203539 0.146893
H28   H     H_    0.373747 0.311427 0.330316 0.152873
H29   H     H_    0.355170 0.293564 0.226600 0.147417
H30   H     H_    0.495894 0.266282 0.783484 0.140290
N1    N     N_R   0.480004 0.481267 0.852667 -0.360584
N2    N     N_R   0.459830 0.462842 0.148558 -0.354116
N3    N     N_3   0.499750 0.138610 0.498760 -0.058381
N4    N     N_3   0.499750 0.861390 0.498760 -0.060513
O1    O     O_R   0.314910 0.616040 0.499990 -0.633171
O2    O     O_R   0.314910 0.383960 0.499990 -0.632334
O3    O     O_R   0.500080 0.616070 0.416130 -0.621137
O4    O     O_R   0.500080 0.383930 0.416130 -0.626376
O5    O     O_R   0.685320 0.616040 0.499970 -0.634462
O6    O     O_R   0.685320 0.383960 0.499970 -0.636166
O7    O     O_R   0.500150 0.616010 0.583820 -0.618828
O8    O     O_R   0.500150 0.383990 0.583820 -0.619283
O9    O     O_2   0.695092 0.427488 0.853108 -0.550268
O10   O     O_2   0.264860 0.533561 0.849218 -0.544816
O11   O     O_2   0.246210 0.517968 0.151201 -0.547649
O12   O     O_2   0.673016 0.401434 0.150273 -0.546651
Zn1   Zn    Zn3+2 0.500150 0.654960 0.499970 0.920502
Zn2   Zn    Zn3+2 0.500150 0.345040 0.499970 0.918010
C45   C     C_3   0.899461 0.715053 0.428353 -0.883617
H31   H     H_    0.933196 0.782674 0.462902 0.215888
H32   H     H_    0.943625 0.753729 0.387920 0.244474
H33   H     H_    0.797147 0.728184 0.423765 0.264029
C46   C     C_3   0.885547 0.480096 0.386549 -0.873617
H34   H     H_    0.781391 0.481421 0.385074 0.229503
H35   H     H_    0.922039 0.526476 0.345958 0.259360
H36   H     H_    0.916960 0.371552 0.387287 0.223218
C47   C     C_1   0.116955 0.538525 0.054174 0.278078
N5    N     N_1   0.019106 0.557422 0.074720 -0.157876
C48   C     C_1   0.330569 0.139906 0.570928 0.201278
N6    N     N_1   0.295557 0.185148 0.613842 -0.219278
C49   C     C_1   0.329042 0.854775 0.570407 0.201722
N7    N     N_1   0.292875 0.807183 0.613118 -0.220107
C50   C     C_1   0.620856 0.709420 0.311574 0.172722
N8    N     N_1   0.684121 0.798623 0.326880 -0.233938

loop_
_geom_bond_atom_site_label_1
_geom_bond_atom_site_label_2
_ccdc_geom_bond_type
C22   H4    S    
N3    Zn2   S    
C45   H31   S    
C41   C42   A    
C19   C20   A    
C13   C50   S    
C46   H34   S    
C28   H12   S    
C19   H2    S    
C7    C8    A    
C15   H28   S    
C47   N5    T    
C23   O5    A    
C18   C24   A    
C40   O9    S    
C37   C38   S    
C29   C32   S    
C26   H6    S    
C5    C6    A    
C11   H27   S    
C15   C16   A    
O4    Zn2   S    
C32   C46   S    
C18   C19   A    
C37   H19   S    
C10   N2    A    
C38   H22   S    
C16   C17   A    
C37   H21   S    
C17   N2    S    
C50   N8    T    
C9    N2    A    
O1    Zn1   S    
C3    C47   S    
C32   C45   S    
C5    C43   A    
C33   H15   S    
C21   C22   A    
C34   H16   S    
C36   H18   S    
C46   H35   S    
C38   H20   S    
C2    H1    S    
O7    Zn1   S    
C23   O6    A    
C27   C31   S    
C16   H29   S    
C9    O11   S    
C20   C39   S    
C28   H10   S    
C38   N4    S    
C37   N3    S    
C35   N3    S    
C35   C36   S    
C23   C31   S    
O2    Zn2   S    
C43   C44   A    
C25   H7    S    
C7    H25   S    
C29   C30   S    
C26   H8    S    
C41   N1    A    
C31   C32   S    
C35   H23   S    
C27   H9    S    
C33   C34   S    
C12   O4    A    
C35   H17   S    
C20   C21   A    
C12   C14   S    
C26   C30   S    
C45   H33   S    
C1    O1    A    
C22   C24   A    
C42   C43   A    
C39   O7    A    
C3    C4    A    
C46   H36   S    
C25   C30   S    
C41   O10   S    
C11   C17   A    
C33   C48   S    
C34   C49   S    
C8    H26   S    
C28   C31   S    
C8    C44   A    
C29   H13   S    
C4    C5    A    
C6    C10   A    
C36   H24   S    
C24   N1    S    
C6    C7    A    
N4    Zn1   S    
C25   C27   S    
O5    Zn1   S    
C49   N7    T    
C26   C28   S    
C40   N1    A    
C2    C3    A    
O8    Zn2   S    
C34   N4    S    
C11   C13   A    
C33   N3    S    
C45   H32   S    
C2    C42   A    
C1    C30   S    
C12   O3    A    
C27   H11   S    
C25   H5    S    
O3    Zn1   S    
C40   C44   A    
C29   H14   S    
C10   O12   S    
C18   H30   S    
C48   N6    T    
C1    O2    A    
C14   C15   A    
C36   N4    S    
O6    Zn2   S    
C39   O8    A    
C4    C9    A    
C13   C14   A    
C21   H3    S    
