data_mof_unit_11675.cif
_audit_creation_date              2012-12-10T19:11:30-0500
_audit_creation_method            fapswitch 2.2
_symmetry_space_group_name_H-M    P1
_symmetry_Int_Tables_number       1
_space_group_crystal_system       triclinic
_cell_length_a                    10.78673
_cell_length_b                    9.705421
_cell_length_c                    10.523064
_cell_angle_alpha                 90.604384
_cell_angle_beta                  90.923556
_cell_angle_gamma                 89.223827
_cell_volume                      1101.35402209

loop_
_atom_site_label
_atom_site_type_symbol
_atom_type_description
_atom_site_fract_x
_atom_site_fract_y
_atom_site_fract_z
_atom_type_partial_charge
C1    C     C_R   0.257558 0.500540 0.489454 0.844115
C2    C     C_3   0.917758 0.599755 0.394123 -0.420020
C3    C     C_3   0.386292 0.081529 0.436724 -0.217972
C4    C     C_3   0.384768 0.919740 0.440555 -0.217364
C5    C     C_3   0.606928 0.078916 0.427370 -0.226834
C6    C     C_3   0.604861 0.916450 0.424098 -0.233814
C7    C     C_3   0.507433 0.082549 0.628125 -0.242643
C8    C     C_3   0.510688 0.920194 0.628073 -0.240513
C9    C     C_R   0.500350 0.499401 0.256984 0.876650
C10   C     C_R   0.741876 0.498848 0.500685 0.873003
C11   C     C_R   0.504231 0.500688 0.742435 0.903064
C12   C     C_3   0.502539 0.498796 0.121766 -0.099825
C13   C     C_3   0.425215 0.596876 0.038767 0.182795
C14   C     C_3   0.469368 0.376651 0.035250 0.201629
C15   C     C_3   0.389587 0.474152 0.952202 -0.182107
C16   C     C_3   0.506466 0.502125 0.876711 -0.052592
C17   C     C_3   0.541057 0.625912 0.960699 -0.164208
C18   C     C_3   0.585867 0.403601 0.957505 -0.154658
C19   C     C_3   0.619183 0.527106 0.045367 -0.231088
C20   C     C_3   0.340126 0.712412 0.087209 -0.400790
C21   C     C_3   0.254537 0.766673 0.981977 -0.839620
C22   C     C_3   0.429830 0.234179 0.077648 -0.381611
C23   C     C_3   0.075120 0.554567 0.620074 -0.213602
C24   C     C_3   0.406035 0.137995 0.964879 -0.906358
C25   C     C_1   0.117595 0.695891 0.652364 0.238817
C26   C     C_1   0.124052 0.266312 0.364049 0.221056
C27   C     C_1   0.869075 0.659140 0.690217 0.200838
C28   C     C_1   0.874497 0.301524 0.337084 0.221342
C29   C     C_1   0.101595 0.735791 0.368341 0.149065
C30   C     C_1   0.085119 0.533321 0.247498 0.125704
C31   C     C_3   0.070229 0.347823 0.470394 -0.217894
C32   C     C_3   0.932232 0.538405 0.630258 -0.228765
C33   C     C_3   0.926524 0.349172 0.462164 -0.204229
C34   C     C_3   0.059728 0.592312 0.374769 0.021674
C35   C     C_3   0.119663 0.501135 0.485890 -0.042764
C36   C     C_3   0.877269 0.496851 0.496998 0.004407
H1    H     H_    0.296777 0.452405 0.909997 0.135397
H2    H     H_    0.591509 0.122329 0.678092 0.150554
H3    H     H_    0.598286 0.883165 0.673982 0.167654
H4    H     H_    0.426344 0.120233 0.683043 0.160711
H5    H     H_    0.434144 0.882025 0.687362 0.159491
H6    H     H_    0.695075 0.113341 0.472944 0.154650
H7    H     H_    0.694169 0.875947 0.463559 0.163104
H8    H     H_    0.569924 0.727893 0.925491 0.149828
H9    H     H_    0.651484 0.324902 0.919410 0.140389
H10   H     H_    0.712107 0.548356 0.087486 0.155457
H11   H     H_    0.118873 0.487585 0.694095 0.107295
H12   H     H_    0.887410 0.705229 0.424808 0.182344
H13   H     H_    0.097759 0.290458 0.557815 0.132148
H14   H     H_    0.915440 0.451489 0.695850 0.116224
H15   H     H_    0.893746 0.274740 0.533785 0.125480
H16   H     H_    0.309864 0.803684 0.901330 0.256838
H17   H     H_    0.191361 0.684431 0.947627 0.266892
H18   H     H_    0.197534 0.853740 0.019260 0.261372
H19   H     H_    0.284290 0.674272 0.166349 0.217937
H20   H     H_    0.398108 0.797959 0.124411 0.200162
H21   H     H_    0.332733 0.181511 0.901141 0.264573
H22   H     H_    0.492644 0.121361 0.910971 0.252144
H23   H     H_    0.865906 0.580480 0.303181 0.153093
H24   H     H_    0.375007 0.036992 0.999920 0.260701
H25   H     H_    0.503975 0.188349 0.138618 0.208831
H26   H     H_    0.344069 0.245578 0.133201 0.229601
H27   H     H_    0.379909 0.115643 0.336544 0.159179
H28   H     H_    0.370694 0.876969 0.343177 0.156717
H29   H     H_    0.303545 0.122117 0.486768 0.166212
H30   H     H_    0.305884 0.887821 0.498892 0.190828
H31   H     H_    0.607051 0.118741 0.328878 0.151880
H32   H     H_    0.598814 0.879248 0.323839 0.148679
N1    N     N_3   0.499750 0.138610 0.497240 -0.048353
N2    N     N_3   0.499750 0.861390 0.497240 -0.049427
N3    N     N_1   0.150013 0.805983 0.678365 -0.237771
N4    N     N_1   0.161884 0.201949 0.279736 -0.228101
N5    N     N_1   0.820141 0.752940 0.737378 -0.233598
N6    N     N_1   0.833891 0.264894 0.240194 -0.226610
N7    N     N_1   0.127450 0.850357 0.358970 -0.234365
N8    N     N_1   0.103868 0.487563 0.147449 -0.215208
O1    O     O_R   0.314910 0.616040 0.499970 -0.618747
O2    O     O_R   0.314910 0.383960 0.499970 -0.631800
O3    O     O_R   0.500080 0.616020 0.313900 -0.637400
O4    O     O_R   0.500080 0.383980 0.313900 -0.631555
O5    O     O_R   0.685320 0.616040 0.499930 -0.627378
O6    O     O_R   0.685320 0.383960 0.499930 -0.639576
O7    O     O_R   0.500150 0.616060 0.686000 -0.626255
O8    O     O_R   0.500150 0.383940 0.686000 -0.634064
Zn1   Zn    Zn3+2 0.500150 0.654960 0.499940 0.919686
Zn2   Zn    Zn3+2 0.500150 0.345040 0.499940 0.909269

loop_
_geom_bond_atom_site_label_1
_geom_bond_atom_site_label_2
_ccdc_geom_bond_type
C4    H30   S    
C5    H6    S    
C26   N4    T    
C14   C18   S    
C20   H20   S    
C28   N6    T    
C4    N2    S    
C19   H10   S    
C7    C8    S    
C32   C36   S    
C3    N1    S    
O8    Zn2   S    
C18   C19   S    
C21   H18   S    
C15   C16   S    
C33   C36   S    
C1    O1    A    
C34   C35   S    
C9    O3    A    
C15   H1    S    
O4    Zn2   S    
C24   H21   S    
C5    N1    S    
C7    H4    S    
C31   C33   S    
C25   N3    T    
C8    H3    S    
C5    H31   S    
O2    Zn2   S    
C6    H32   S    
O1    Zn1   S    
C26   C31   S    
C1    O2    A    
C3    H29   S    
C31   H13   S    
C20   H19   S    
C23   H11   S    
C30   C34   S    
C8    H5    S    
C2    H23   S    
C16   C17   S    
C2    H12   S    
O6    Zn2   S    
C29   C34   S    
C10   O6    A    
C9    O4    A    
C22   H26   S    
C30   N8    T    
C11   C16   S    
C24   H24   S    
C12   C13   S    
C32   H14   S    
C24   H22   S    
O7    Zn1   S    
C12   C14   S    
C28   C33   S    
C23   C35   S    
C6    H7    S    
C13   C15   S    
C22   C24   S    
C3    C4    S    
C18   H9    S    
O3    Zn1   S    
C1    C35   S    
C2    C36   S    
C6    N2    S    
C13   C20   S    
C27   C32   S    
C7    N1    S    
C29   N7    T    
C3    H27   S    
C11   O8    A    
C33   H15   S    
C4    H28   S    
C10   O5    A    
C8    N2    S    
C13   C17   S    
C11   O7    A    
C23   C32   S    
C14   C22   S    
C17   H8    S    
C22   H25   S    
C21   H17   S    
C2    C34   S    
C5    C6    S    
C12   C19   S    
C17   C19   S    
C7    H2    S    
C31   C35   S    
C23   C25   S    
C9    C12   S    
C20   C21   S    
C16   C18   S    
C14   C15   S    
C10   C36   S    
C27   N5    T    
N2    Zn1   S    
C21   H16   S    
O5    Zn1   S    
N1    Zn2   S    
