data_mof_unit_9187.cif
_audit_creation_date              2012-12-10T20:25:42-0500
_audit_creation_method            fapswitch 2.2
_symmetry_space_group_name_H-M    P1
_symmetry_Int_Tables_number       1
_space_group_crystal_system       triclinic
_cell_length_a                    8.568766
_cell_length_b                    10.652495
_cell_length_c                    9.916369
_cell_angle_alpha                 90.603846
_cell_angle_beta                  96.553363
_cell_angle_gamma                 90.098451
_cell_volume                      899.185529059

loop_
_atom_site_label
_atom_site_type_symbol
_atom_type_description
_atom_site_fract_x
_atom_site_fract_y
_atom_site_fract_z
_atom_type_partial_charge
C1    C     C_R   0.498143 0.260406 0.499268 0.887147
C2    C     C_R   0.379313 0.935365 0.396070 -0.043656
C3    C     C_R   0.469913 0.871443 0.502521 -0.191942
C4    C     C_R   0.539847 0.937428 0.615867 0.256998
C5    C     C_3   0.703240 0.927651 0.689044 -0.370470
C6    C     C_3   0.711442 0.071030 0.682505 -0.337310
C7    C     C_R   0.377624 0.448140 0.059084 0.154715
C8    C     C_R   0.627268 0.539809 0.084760 -0.069339
C9    C     C_R   0.628311 0.537775 0.941330 0.033931
C10   C     C_R   0.373212 0.456578 0.916779 0.153681
C11   C     C_3   0.210413 0.512550 0.907039 -0.367266
C12   C     C_R   0.202053 0.498982 0.466093 0.998797
C13   C     C_3   0.210837 0.486803 0.057964 -0.310903
C14   C     C_R   0.492082 0.739546 0.500061 0.875130
C15   C     C_R   0.797468 0.507213 0.533065 0.862019
C16   C     C_2   0.038403 0.486467 0.452166 -0.357699
C17   C     C_2   0.956075 0.542955 0.541027 -0.198223
C18   C     C_R   0.547447 0.065120 0.612822 0.099625
C19   C     C_R   0.483402 0.128711 0.499029 -0.182904
C20   C     C_R   0.389630 0.066141 0.394717 -0.163023
H1    H     H_    0.987748 0.414861 0.380900 0.156733
H2    H     H_    0.731091 0.570963 0.898404 0.170361
H3    H     H_    0.121121 0.458460 0.839662 0.171369
H4    H     H_    0.196676 0.571187 0.122446 0.183952
H5    H     H_    0.326995 0.118925 0.312850 0.234971
H6    H     H_    0.785420 0.880501 0.625959 0.132805
H7    H     H_    0.796947 0.103923 0.613870 0.153974
H8    H     H_    0.728534 0.575538 0.148842 0.185819
N1    N     N_R   0.498950 0.499140 0.142680 -0.136407
N2    N     N_R   0.498950 0.499180 0.857030 -0.103155
O1    O     O_R   0.500020 0.316790 0.614690 -0.605309
O2    O     O_R   0.500000 0.316760 0.385350 -0.605014
O3    O     O_R   0.271760 0.500010 0.587850 -0.589890
O4    O     O_R   0.271740 0.499970 0.358500 -0.653790
O5    O     O_R   0.500000 0.683240 0.614650 -0.535957
O6    O     O_R   0.499980 0.683210 0.385310 -0.646327
O7    O     O_R   0.728260 0.500030 0.641500 -0.631633
O8    O     O_R   0.728240 0.499990 0.412150 -0.612300
Zn1   Zn    Zn3+2 0.500010 0.500020 0.653130 1.034388
Zn2   Zn    Zn3+2 0.499990 0.499980 0.346870 0.967534
C21   C     C_2   0.204968 0.652826 0.884069 0.974531
O9    O     O_2   0.304094 0.704925 0.825047 -0.495280
O10   O     O_R   0.085444 0.723431 0.932573 -0.827898
H9    H     H_    0.095634 0.816287 0.913860 0.364998
C22   C     C_2   0.103643 0.380491 0.087600 1.005615
O11   O     O_2   0.157046 0.278653 0.125370 -0.598393
O12   O     O_R   0.941853 0.400580 0.074398 -0.812573
H10   H     H_    0.881253 0.324647 0.101006 0.349503
C23   C     C_2   0.001404 0.662584 0.612956 0.392952
H11   H     H_    0.935199 0.694580 0.693494 0.065672
O13   O     O_2   0.104030 0.730257 0.577299 -0.564462
C24   C     C_2   0.274736 0.868931 0.288174 0.512224
H12   H     H_    0.243253 0.771311 0.299458 0.086798
O14   O     O_2   0.219780 0.923409 0.185889 -0.534083
C25   C     C_2   0.710632 0.874147 0.830031 0.522762
H13   H     H_    0.821520 0.874694 0.894472 0.079026
O15   O     O_2   0.594076 0.831890 0.873699 -0.485908
C26   C     C_2   0.721817 0.143927 0.814701 0.995443
O16   O     O_2   0.833978 0.213560 0.845568 -0.620228
O17   O     O_R   0.602933 0.134237 0.899826 -0.747816
H14   H     H_    0.623151 0.189524 0.983892 0.335687

loop_
_geom_bond_atom_site_label_1
_geom_bond_atom_site_label_2
_ccdc_geom_bond_type
C7    C10   A    
O5    Zn1   S    
C25   H13   S    
C15   O8    A    
C16   H1    S    
C7    N1    A    
C11   C13   S    
C21   O9    D    
C6    C26   S    
C6    H7    S    
C1    O1    A    
O10   H9    S    
C4    C18   A    
C19   C20   A    
C25   O15   D    
C2    C3    A    
C26   O16   D    
O7    Zn1   S    
C22   O11   D    
C13   C22   S    
C21   O10   S    
O3    Zn1   S    
C3    C14   S    
C2    C24   S    
C9    N2    A    
O17   H14   S    
C8    H8    S    
C8    N1    A    
N1    Zn2   S    
C11   H3    S    
O8    Zn2   S    
O1    Zn1   S    
N2    Zn1   S    
C11   C21   S    
O2    Zn2   S    
C14   O6    A    
C5    C6    S    
C6    C18   S    
O4    Zn2   S    
C9    H2    S    
C1    C19   S    
C16   C17   D    
C20   H5    S    
C26   O17   S    
C5    H6    S    
C12   C16   S    
O6    Zn2   S    
C18   C19   A    
C24   H12   S    
C23   H11   S    
C10   C11   S    
C22   O12   S    
C17   C23   S    
C14   O5    A    
C15   C17   S    
C2    C20   A    
C10   N2    A    
C4    C5    S    
C7    C13   S    
C12   O3    A    
C12   O4    A    
C5    C25   S    
C1    O2    A    
C15   O7    A    
C3    C4    A    
O12   H10   S    
C13   H4    S    
C24   O14   D    
C8    C9    A    
C23   O13   D    
