data_mof_unit_27286.cif
_audit_creation_date              2012-12-11T14:15:32-0500
_audit_creation_method            fapswitch 2.2
_symmetry_space_group_name_H-M    P1
_symmetry_Int_Tables_number       1
_space_group_crystal_system       triclinic
_cell_length_a                    11.092381
_cell_length_b                    12.740878
_cell_length_c                    23.469887
_cell_angle_alpha                 90.571899
_cell_angle_beta                  96.586195
_cell_angle_gamma                 68.971266
_cell_volume                      3073.84472926

loop_
_atom_site_label
_atom_site_type_symbol
_atom_type_description
_atom_site_fract_x
_atom_site_fract_y
_atom_site_fract_z
_atom_type_partial_charge
C1    C     C_R   0.149691 0.616622 0.428901 0.544531
C2    C     C_R   0.703273 0.538729 0.306667 -0.097257
C3    C     C_R   0.720011 0.723080 0.315919 -0.067494
C4    C     C_R   0.718274 0.731858 0.256276 -0.023331
C5    C     C_R   0.715674 0.639505 0.222667 0.024391
C6    C     C_R   0.714791 0.645525 0.163434 0.216342
C7    C     C_R   0.701552 0.840116 0.169071 0.243098
C8    C     C_R   0.719792 0.829676 0.229198 0.237053
C9    C     C_1   0.234449 0.163936 0.122604 0.025826
C10   C     C_2   0.177492 0.234743 0.226051 -0.113264
C11   C     C_2   0.155106 0.165531 0.262669 -0.091201
C12   C     C_R   0.753598 0.601631 0.402823 0.542879
C13   C     C_1   0.132223 0.198634 0.320571 -0.020939
C14   C     C_1   0.208074 0.199330 0.169221 -0.023142
C15   C     C_1   0.116078 0.231625 0.368463 0.014949
C16   C     C_1   0.165499 0.749876 0.123262 0.010920
C17   C     C_2   0.145272 0.686037 0.227900 -0.085798
C18   C     C_2   0.235542 0.682869 0.272127 0.259030
C19   C     C_1   0.218004 0.655489 0.329449 0.004552
C20   C     C_1   0.154063 0.719835 0.170333 -0.002002
C21   C     C_1   0.194684 0.635594 0.376306 -0.003963
C22   C     C_1   0.623905 0.761958 0.864447 0.077442
C23   C     C_R   0.101232 0.281825 0.423451 0.540283
C24   C     C_2   0.665936 0.743127 0.756000 -0.075184
C25   C     C_2   0.649430 0.656726 0.727716 0.277315
C26   C     C_1   0.670908 0.646417 0.667760 -0.085719
C27   C     C_1   0.648735 0.754006 0.815762 0.047895
C28   C     C_1   0.698882 0.631243 0.619554 -0.056384
C29   C     C_R   0.254434 0.073927 0.838195 0.015225
C30   C     C_R   0.113131 0.197590 0.631605 -0.012854
C31   C     C_R   0.007312 0.150788 0.707259 0.286242
C32   C     C_R   0.000833 0.189729 0.650788 0.216580
C33   C     C_R   0.235062 0.141827 0.662673 0.206876
C34   C     C_R   0.144898 0.613909 0.592647 0.545949
C35   C     C_R   0.240790 0.107984 0.719661 -0.090900
C36   C     C_R   0.125005 0.123346 0.744336 -0.028461
C37   C     C_R   0.130616 0.111532 0.804677 0.238470
C38   C     C_R   0.369149 0.049774 0.811515 0.197601
C39   C     C_R   0.361018 0.065380 0.752770 -0.114921
C40   C     C_R   0.119358 0.732069 0.857977 0.010500
C41   C     C_R   0.171838 0.624957 0.654217 -0.033022
C42   C     C_R   0.294993 0.545266 0.745962 0.308149
C43   C     C_R   0.283179 0.549935 0.685790 -0.116476
C44   C     C_R   0.071683 0.697276 0.682643 -0.147208
C45   C     C_R   0.749370 0.601832 0.565894 0.543164
C46   C     C_R   0.082791 0.697268 0.741922 -0.043150
C47   C     C_R   0.196249 0.623461 0.774842 0.069855
C48   C     C_R   0.207608 0.635250 0.834915 0.258406
C49   C     C_R   0.000010 0.791377 0.826198 -0.180188
C50   C     C_R   0.980983 0.772159 0.768463 -0.160411
C51   C     C_R   0.265356 0.110644 0.069284 0.568192
C52   C     C_R   0.603058 0.774365 0.080486 0.564912
C53   C     C_R   0.188865 0.787895 0.069577 0.545775
C54   C     C_R   0.270549 0.057242 0.900993 0.609849
C55   C     C_R   0.575562 0.776425 0.918831 0.533725
C56   C     C_R   0.100767 0.273876 0.583150 0.573295
C57   C     C_R   0.162063 0.783705 0.908774 0.543487
C58   C     C_R   0.683857 0.751604 0.136563 -0.039547
C59   C     C_R   0.715022 0.625810 0.341294 0.023153
C60   C     C_R   0.707165 0.544155 0.248255 -0.062206
Cr1   Cr    Cr6+3 0.189770 0.415650 0.511620 1.045205
Cr2   Cr    Cr6+3 0.930400 0.667320 0.496770 1.037838
Cr3   Cr    Cr6+3 0.879870 0.417010 0.491650 1.049984
Cr4   Cr    Cr6+3 0.149500 0.973980 0.985330 1.002242
Cr5   Cr    Cr6+3 0.457000 0.976510 0.994660 1.070023
Cr6   Cr    Cr6+3 0.411170 0.724270 0.995270 1.127250
H1    H     H_    0.061117 0.665412 0.235072 0.074409
H2    H     H_    0.689674 0.806707 0.734292 0.058591
H3    H     H_    0.450211 0.045785 0.733358 0.167866
H4    H     H_    0.925637 0.858760 0.844722 0.119882
H5    H     H_    0.891247 0.823380 0.743529 0.098899
H6    H     H_    0.360429 0.493730 0.663590 0.124671
H7    H     H_    0.982541 0.753157 0.658617 0.142179
H8    H     H_    0.702231 0.473576 0.223242 0.178580
H9    H     H_    0.699929 0.462279 0.325001 0.152743
H10   H     H_    0.729174 0.789558 0.343101 0.187079
H11   H     H_    0.157482 0.082701 0.249827 0.167213
H12   H     H_    0.176048 0.317236 0.239066 0.132081
O1    O     O_R   0.196340 0.303200 0.448500 -0.505444
O2    O     O_R   0.811960 0.658090 0.547150 -0.493411
O3    O     O_R   0.757930 0.506140 0.547110 -0.523234
O4    O     O_R   0.988670 0.321620 0.556040 -0.467395
O5    O     O_3   0.000020 0.499990 0.500010 -0.263657
O6    O     O_R   0.113660 0.883270 0.047820 -0.528761
O7    O     O_R   0.186930 0.068530 0.043990 -0.498238
O8    O     O_R   0.377770 0.089040 0.054220 -0.468189
O9    O     O_R   0.562800 0.872960 0.056970 -0.473212
O10   O     O_R   0.555390 0.700940 0.062700 -0.446977
O11   O     O_R   0.295020 0.731920 0.049950 -0.466615
O12   O     O_R   0.199310 0.519670 0.454880 -0.493330
O13   O     O_R   0.094290 0.884230 0.921550 -0.574349
O14   O     O_R   0.168980 0.069410 0.926940 -0.487913
O15   O     O_R   0.358400 0.089990 0.927950 -0.473421
O16   O     O_R   0.544850 0.873850 0.939920 -0.494645
O17   O     O_R   0.536020 0.701900 0.936430 -0.474164
O18   O     O_R   0.277070 0.732810 0.932890 -0.436486
O19   O     O_3   0.339220 0.891590 0.991750 -0.296837
O20   O     O_R   0.045660 0.691380 0.441680 -0.494372
O21   O     O_R   0.811930 0.659460 0.430950 -0.502148
O22   O     O_R   0.757900 0.507620 0.421760 -0.512565
O23   O     O_R   0.988630 0.322990 0.439840 -0.494398
O24   O     O_R   0.196380 0.301720 0.573850 -0.469877
O25   O     O_R   0.199350 0.518300 0.571080 -0.502314
O26   O     O_R   0.045700 0.689900 0.567030 -0.516471
O27   O     O_3   0.722434 0.551582 0.131632 -0.536708
C61   C     C_3   0.843803 0.512047 0.110046 -0.108116
H13   H     H_    0.852464 0.434399 0.086347 0.160089
H14   H     H_    0.925612 0.489880 0.145449 0.101201
H15   H     H_    0.852113 0.574511 0.079389 0.108898
O28   O     O_3   0.613965 0.579732 0.757194 -0.512581
C62   C     C_3   0.670250 0.470016 0.737564 -0.048090
H16   H     H_    0.775993 0.447362 0.734493 0.109314
H17   H     H_    0.616615 0.461157 0.695950 0.098611
H18   H     H_    0.662078 0.409454 0.769091 0.192374
O29   O     O_3   0.018810 0.164514 0.830873 -0.521898
C63   C     C_3   0.956475 0.088998 0.842285 -0.028726
H19   H     H_    0.002461 0.003426 0.825875 0.115615
H20   H     H_    0.853287 0.124158 0.823251 0.144038
H21   H     H_    0.951808 0.083686 0.888969 0.157734
O30   O     O_3   0.490581 0.004380 0.843052 -0.560412
C64   C     C_3   0.555415 0.081693 0.844303 -0.105046
H22   H     H_    0.494111 0.165304 0.858785 0.151139
H23   H     H_    0.587783 0.089745 0.802031 0.081129
H24   H     H_    0.644064 0.049388 0.875765 0.130174
O31   O     O_3   0.898618 0.139972 0.725640 -0.570319
C65   C     C_3   0.888203 0.038529 0.705486 -0.143243
H25   H     H_    0.980811 0.965810 0.716256 0.114827
H26   H     H_    0.858110 0.044087 0.658495 0.173173
H27   H     H_    0.811427 0.022928 0.726572 0.109729
O32   O     O_3   0.890095 0.208710 0.612042 -0.556106
C66   C     C_3   0.786384 0.302626 0.627494 -0.059973
H28   H     H_    0.713522 0.333591 0.589181 0.152978
H29   H     H_    0.818259 0.373051 0.641934 0.113965
H30   H     H_    0.736091 0.278583 0.660391 0.142768
O33   O     O_3   0.348167 0.133715 0.640235 -0.559383
C67   C     C_3   0.383202 0.038550 0.605820 -0.110291
H31   H     H_    0.308132 0.047860 0.568484 0.129924
H32   H     H_    0.400772 0.960076 0.631310 0.109420
H33   H     H_    0.475315 0.030165 0.588759 0.145021
Cl1   Cl    Cl    0.324703 0.529551 0.881717 -0.523379
O34   O     O_3   0.686600 0.941625 0.143070 -0.490179
C68   C     C_3   0.803878 0.930368 0.121381 -0.062737
H34   H     H_    0.827292 0.865230 0.088245 0.083864
H35   H     H_    0.885933 0.910687 0.156524 0.141738
H36   H     H_    0.792700 0.011664 0.100596 0.154370
O35   O     O_3   0.409154 0.473459 0.775772 -0.497742
C69   C     C_3   0.417779 0.361076 0.768072 -0.094188
H37   H     H_    0.430696 0.335437 0.723118 0.109370
H38   H     H_    0.331800 0.346764 0.781691 0.147201
H39   H     H_    0.505394 0.305884 0.795392 0.133359
Cl2   Cl    Cl    0.733271 0.944356 0.268888 -0.562028
Cl3   Cl    Cl    0.371684 0.718787 0.263043 -0.590070

loop_
_geom_bond_atom_site_label_1
_geom_bond_atom_site_label_2
_ccdc_geom_bond_type
Cr2   O5    S    
C1    C21   S    
C1    O12   A    
C6    C58   A    
C35   C36   A    
C9    C51   S    
C24   C27   S    
Cr3   O23   S    
C66   H30   S    
C51   O7    A    
C32   O32   S    
C10   H12   S    
Cr5   O8    S    
C23   O23   A    
O30   C64   S    
C43   H6    S    
Cr3   O3    S    
C53   O6    A    
Cr6   O19   S    
Cr2   O2    S    
C36   C37   A    
C69   H38   S    
C62   H16   S    
C55   O16   A    
Cr6   O10   S    
C5    C6    A    
C2    C60   A    
C61   H13   S    
C40   C49   A    
C17   C20   S    
C63   H19   S    
C18   C19   S    
C16   C53   S    
Cr4   O6    S    
C54   O15   A    
C11   H11   S    
Cr2   O20   S    
C12   C59   S    
C69   H37   S    
C64   H24   S    
C57   O18   A    
C29   C38   A    
C45   O2    A    
C7    C58   A    
C30   C33   A    
C4    C8    A    
C38   O30   S    
C15   C23   S    
C41   C43   A    
C68   H36   S    
C34   C41   S    
C67   H33   S    
C18   Cl3   S    
C51   O8    A    
C44   C46   A    
Cr5   O9    S    
Cr6   O11   S    
Cr2   O26   S    
C52   O9    A    
C28   C45   S    
C17   H1    S    
C64   H23   S    
C48   Cl1   S    
Cr3   O4    S    
O33   C67   S    
C69   H39   S    
C24   C25   D    
C55   O17   A    
Cr1   O5    S    
C2    C59   A    
C4    C5    A    
C65   H27   S    
C25   C26   S    
C30   C56   S    
C34   O26   A    
O28   C62   S    
Cr3   O5    S    
C35   C39   A    
C9    C14   T    
C54   O14   A    
Cr3   O22   S    
C33   O33   S    
C47   C48   A    
C52   O10   A    
C16   C20   T    
C8    Cl2   S    
C17   C18   D    
C39   H3    S    
C62   H17   S    
C50   H5    S    
C3    H10   S    
C64   H22   S    
C52   C58   S    
C25   O28   S    
C67   H32   S    
Cr5   O16   S    
C22   C27   T    
C13   C15   T    
C53   O11   A    
O31   C65   S    
C41   C44   A    
C68   H35   S    
C42   C43   A    
Cr4   O14   S    
C3    C4    A    
C42   O35   S    
Cr4   O7    S    
C7    O34   S    
Cr1   O12   S    
Cr6   O18   S    
O35   C69   S    
C40   C48   A    
C46   C47   A    
Cr4   O19   S    
C65   H26   S    
C40   C57   S    
C57   O13   A    
C5    C60   A    
Cr1   O25   S    
C68   H34   S    
C31   C32   A    
C45   O3    A    
C67   H31   S    
C66   H29   S    
C1    O20   A    
C12   O21   A    
C56   O4    A    
C22   C55   S    
C37   O29   S    
O27   C61   S    
C46   C50   A    
C26   C28   T    
C34   O25   A    
C63   H21   S    
C49   H4    S    
O32   C66   S    
C56   O24   A    
O34   C68   S    
C30   C32   A    
C11   C13   S    
O29   C63   S    
C38   C39   A    
C61   H14   S    
Cr1   O1    S    
C65   H25   S    
C60   H8    S    
Cr5   O15   S    
C33   C35   A    
C6    O27   S    
C63   H20   S    
Cr1   O24   S    
C62   H18   S    
C42   C47   A    
C44   H7    S    
C12   O22   A    
C7    C8    A    
C10   C11   D    
C24   H2    S    
Cr5   O19   S    
Cr2   O21   S    
C49   C50   A    
C29   C54   S    
C29   C37   A    
C31   O31   S    
C31   C36   A    
Cr4   O13   S    
C23   O1    A    
C2    H9    S    
C66   H28   S    
C10   C14   S    
Cr6   O17   S    
C19   C21   T    
C61   H15   S    
C3    C59   A    
