data_mof_unit_6075.cif
_audit_creation_date              2012-12-10T17:31:14-0500
_audit_creation_method            fapswitch 2.2
_symmetry_space_group_name_H-M    P1
_symmetry_Int_Tables_number       1
_space_group_crystal_system       triclinic
_cell_length_a                    11.989238
_cell_length_b                    12.89787
_cell_length_c                    15.441567
_cell_angle_alpha                 87.145393
_cell_angle_beta                  115.353342
_cell_angle_gamma                 93.354682
_cell_volume                      2153.32414697

loop_
_atom_site_label
_atom_site_type_symbol
_atom_type_description
_atom_site_fract_x
_atom_site_fract_y
_atom_site_fract_z
_atom_type_partial_charge
C1    C     C_R   0.477658 0.299422 0.499176 0.890933
C2    C     C_R   0.660565 0.969627 0.523238 -0.216652
C3    C     C_R   0.350472 0.137581 0.480928 -0.203307
C4    C     C_R   0.649633 0.862374 0.519331 -0.199171
C5    C     C_R   0.567692 0.132042 0.513618 -0.275512
C6    C     C_R   0.432410 0.867923 0.486637 -0.272627
C7    C     C_R   0.557559 0.025561 0.509458 0.185572
C8    C     C_R   0.442567 0.974394 0.490860 0.185672
C9    C     C_R   0.005446 0.602817 0.414021 -0.314147
C10   C     C_R   0.995216 0.398244 0.587142 -0.321270
C11   C     C_R   0.125871 0.592685 0.422262 0.037329
C12   C     C_R   0.522361 0.700572 0.500867 0.892911
C13   C     C_R   0.874703 0.408231 0.578722 0.034389
C14   C     C_R   0.159846 0.455512 0.537496 -0.057529
C15   C     C_R   0.840239 0.544614 0.462647 -0.045910
C16   C     C_R   0.576288 0.496598 0.680546 0.875171
C17   C     C_R   0.424256 0.507624 0.319508 0.877657
C18   C     C_R   0.039329 0.463018 0.531762 0.092994
C19   C     C_R   0.961014 0.537510 0.468838 0.084382
C20   C     C_R   0.624259 0.512177 0.783442 -0.068807
C21   C     C_R   0.379988 0.527829 0.216430 -0.068262
C22   C     C_R   0.789344 0.557139 0.936590 -0.187051
C23   C     C_R   0.650775 0.598518 0.106114 -0.269221
C24   C     C_R   0.217145 0.557775 0.058176 -0.186976
C25   C     C_R   0.750232 0.529501 0.841509 -0.191449
C26   C     C_R   0.254507 0.536821 0.155820 -0.189462
C27   C     C_R   0.538696 0.522168 0.820855 -0.242798
C28   C     C_R   0.467573 0.544109 0.179764 -0.249093
C29   C     C_R   0.574369 0.557519 0.913089 0.088769
C30   C     C_R   0.433132 0.568351 0.082912 0.089609
C31   C     C_R   0.702301 0.570774 0.973819 0.111745
C32   C     C_R   0.305229 0.570850 0.020061 0.112071
C33   C     C_R   0.484852 0.573825 0.947283 0.047661
C34   C     C_R   0.358114 0.582746 0.885281 -0.269778
C35   C     C_R   0.523401 0.580908 0.046547 0.050597
C36   C     C_1   0.867534 0.616792 0.133948 0.136155
C37   C     C_1   0.141280 0.591923 0.853035 0.139904
C38   C     C_R   0.739229 0.596163 0.069970 -0.007005
C39   C     C_R   0.269205 0.583587 0.920851 -0.015245
C40   C     C_R   0.535699 0.811856 0.501696 -0.056686
C41   C     C_R   0.464377 0.188115 0.498485 -0.057481
C42   C     C_R   0.339564 0.030323 0.477088 -0.215339
H1    H     H_    0.841419 0.358104 0.621650 0.124856
H2    H     H_    0.119171 0.561289 0.012699 0.143098
H3    H     H_    0.683084 0.617623 0.180607 0.144263
H4    H     H_    0.326639 0.591837 0.808507 0.157241
H5    H     H_    0.343745 0.828983 0.472162 0.159624
H6    H     H_    0.656343 0.170988 0.528061 0.158779
H7    H     H_    0.729945 0.819214 0.531017 0.165422
H8    H     H_    0.270150 0.180734 0.469225 0.163179
H9    H     H_    0.251148 0.991318 0.463006 0.140719
H10   H     H_    0.748990 0.008625 0.537341 0.140199
H11   H     H_    0.778977 0.601477 0.414394 0.118611
H12   H     H_    0.159590 0.643414 0.379993 0.140720
H13   H     H_    0.221007 0.398481 0.585555 0.124754
H14   H     H_    0.947675 0.661274 0.365242 0.152478
H15   H     H_    0.053272 0.340339 0.636524 0.143864
H16   H     H_    0.563170 0.532917 0.227370 0.159598
H17   H     H_    0.443252 0.500489 0.776950 0.156427
H18   H     H_    0.185391 0.526153 0.183517 0.172056
H19   H     H_    0.817994 0.522715 0.813334 0.174641
H20   H     H_    0.887550 0.568216 0.980269 0.145001
N1    N     N_R   0.799120 0.480200 0.517090 -0.095915
N2    N     N_R   0.200880 0.519800 0.482910 -0.101672
N3    N     N_1   0.970362 0.633446 0.184687 -0.242850
N4    N     N_1   0.039056 0.598594 0.798554 -0.219875
O1    O     O_R   0.580150 0.341050 0.504560 -0.625495
O2    O     O_R   0.419850 0.658950 0.495440 -0.626631
O3    O     O_R   0.388090 0.353760 0.493600 -0.624025
O4    O     O_R   0.611910 0.646240 0.506400 -0.623356
O5    O     O_R   0.650890 0.490020 0.640860 -0.614500
O6    O     O_R   0.349110 0.509980 0.359140 -0.615095
O7    O     O_R   0.458830 0.502730 0.629890 -0.619938
O8    O     O_R   0.541170 0.497270 0.370110 -0.620186
Zn1   Zn    Zn3+2 0.628240 0.491510 0.507320 0.947270
Zn2   Zn    Zn3+2 0.371760 0.508490 0.492680 0.943994

loop_
_geom_bond_atom_site_label_1
_geom_bond_atom_site_label_2
_ccdc_geom_bond_type
C30   C32   A    
C21   C26   A    
C3    C42   A    
C23   H3    S    
C27   C29   A    
C14   C18   A    
C2    C7    A    
O6    Zn2   S    
C7    C8    A    
C15   C19   A    
C12   O2    A    
C22   C31   A    
C30   C35   A    
C15   H11   S    
C24   C26   A    
C20   C25   A    
C29   C33   A    
O3    Zn2   S    
C18   C19   A    
C32   C39   A    
C12   O4    A    
C33   C35   A    
C9    C19   A    
C4    C40   A    
C22   C25   A    
C34   H4    S    
C42   H9    S    
C14   H13   S    
C16   O5    A    
C3    H8    S    
C5    H6    S    
C6    H5    S    
C16   O7    A    
C10   H15   S    
C11   N2    A    
O8    Zn1   S    
C5    C7    A    
C36   N3    T    
C6    C8    A    
C1    O3    A    
C34   C39   A    
C12   C40   S    
C2    C4    A    
C24   C32   A    
C22   H20   S    
C13   N1    A    
C16   C20   S    
C14   N2    A    
C37   N4    T    
C33   C34   A    
N2    Zn2   S    
C9    H14   S    
C25   H19   S    
C9    C11   A    
C11   H12   S    
C2    H10   S    
C1    C41   S    
C21   C28   A    
C23   C35   A    
C17   O8    A    
C24   H2    S    
O7    Zn2   S    
C6    C40   A    
O1    Zn1   S    
C13   H1    S    
C5    C41   A    
C3    C41   A    
C8    C42   A    
C10   C13   A    
C20   C27   A    
C28   H16   S    
O2    Zn2   S    
C23   C38   A    
C31   C38   A    
C4    H7    S    
C28   C30   A    
C37   C39   S    
C27   H17   S    
O5    Zn1   S    
N1    Zn1   S    
C10   C18   A    
C36   C38   S    
C1    O1    A    
C17   C21   S    
C17   O6    A    
C29   C31   A    
O4    Zn1   S    
C15   N1    A    
C26   H18   S    
