data_mof_unit_45853.cif
_audit_creation_date              2013-03-05T16:49:12-0500
_audit_creation_method            fapswitch 2.2
_symmetry_space_group_name_H-M    P1
_symmetry_Int_Tables_number       1
_space_group_crystal_system       triclinic
_cell_length_a                    17.405911
_cell_length_b                    8.904994
_cell_length_c                    8.331261
_cell_angle_alpha                 90.00355
_cell_angle_beta                  90.18991
_cell_angle_gamma                 90.009591
_cell_volume                      1291.33445034

loop_
_atom_site_label
_atom_site_type_symbol
_atom_site_description
_atom_site_fract_x
_atom_site_fract_y
_atom_site_fract_z
_atom_type_partial_charge
O1    O     O_R   0.500000 0.285350 0.636850 -0.597332
O2    O     O_R   0.500000 0.714650 0.363150 -0.603629
O3    O     O_R   0.500000 0.714650 0.636850 -0.605995
O4    O     O_R   0.500000 0.285350 0.363150 -0.598816
C1    C     C_R   0.500012 0.218966 0.499998 0.896904
C2    C     C_R   0.500005 0.781033 0.500003 0.910205
O5    O     O_R   0.389120 0.500000 0.636930 -0.561724
O6    O     O_R   0.610880 0.500000 0.363070 -0.567353
O7    O     O_R   0.610880 0.500000 0.636930 -0.562257
O8    O     O_R   0.389120 0.500000 0.363070 -0.563371
C3    C     C_1   0.500016 0.065472 0.499997 -0.103650
C4    C     C_1   0.500013 0.934548 0.500004 -0.112770
C5    C     C_R   0.352568 0.492378 0.499291 0.902165
C6    C     C_R   0.647533 0.494364 0.499816 0.896415
Zn1   Zn    Zn3+2 0.500000 0.500000 0.682780 1.141555
Zn2   Zn    Zn3+2 0.500000 0.500000 0.317220 1.140912
C7    C     C_R   0.840647 0.327431 0.619612 -0.133143
C8    C     C_R   0.155382 0.371923 0.347724 -0.124778
C9    C     C_R   0.151897 0.379812 0.635197 -0.108190
C10   C     C_R   0.849678 0.422852 0.344836 -0.139944
C11   C     C_R   0.767315 0.393416 0.632017 0.205851
C12   C     C_R   0.231867 0.419035 0.349207 0.218581
C13   C     C_R   0.227377 0.434156 0.639382 0.217879
C14   C     C_R   0.773245 0.470531 0.352390 0.233187
C15   C     C_R   0.731433 0.459495 0.496958 -0.273437
C16   C     C_R   0.268958 0.454841 0.495812 -0.266224
C17   C     C_R   0.883019 0.351271 0.478483 -0.082138
C18   C     C_R   0.115009 0.356623 0.489559 -0.125810
C19   C     C_1   0.964666 0.333192 0.481775 0.167240
C20   C     C_1   0.033264 0.334923 0.484704 0.123172
N1    N     N_1   0.500000 0.500000 0.073640 0.056896
N2    N     N_1   0.500000 0.500000 0.926360 0.055297
C21   C     C_2   0.872592 0.231844 0.751732 0.977228
O9    O     O_2   0.850211 0.246410 0.889633 -0.536396
O10   O     O_R   0.927025 0.120952 0.717051 -0.779382
H1    H     H_    0.944182 0.063520 0.815961 0.365733
C22   C     C_2   0.116651 0.334741 0.198255 1.051827
O11   O     O_2   0.104522 0.434145 0.100983 -0.565543
O12   O     O_R   0.087819 0.189030 0.178337 -0.725780
H2    H     H_    0.053047 0.175969 0.082207 0.378172
C23   C     C_2   0.112428 0.333448 0.780827 1.036784
O13   O     O_2   0.139919 0.232778 0.862151 -0.563518
O14   O     O_R   0.040010 0.393491 0.814112 -0.785308
H3    H     H_    0.010809 0.333737 0.896426 0.367093
C24   C     C_2   0.893591 0.444011 0.193806 1.030257
O15   O     O_2   0.937744 0.346399 0.149202 -0.631418
O16   O     O_R   0.884057 0.574157 0.101970 -0.711931
H4    H     H_    0.916620 0.573690 0.001278 0.375172
N3    N     N_R   0.730369 0.398937 0.783713 0.260056
O17   O     O_R   0.689383 0.285216 0.831421 -0.311587
O18   O     O_R   0.723158 0.528985 0.853084 -0.273931
N4    N     N_R   0.272652 0.419752 0.201864 0.242315
O19   O     O_R   0.311741 0.300822 0.162635 -0.314401
O20   O     O_R   0.287680 0.547952 0.134410 -0.272600
N5    N     N_R   0.260990 0.469349 0.790060 0.242491
O21   O     O_R   0.268651 0.609885 0.829609 -0.297532
O22   O     O_R   0.302979 0.367861 0.859841 -0.278656
N6    N     N_R   0.735784 0.512759 0.207125 0.258046
O23   O     O_R   0.723162 0.653876 0.176258 -0.294016
O24   O     O_R   0.698235 0.409660 0.129198 -0.278866

loop_
_geom_bond_atom_site_label_1
_geom_bond_atom_site_label_2
_geom_bond_distance
_ccdc_geom_bond_type
O4    Zn2   1.949406 S    
C9    C13   1.400343 A    
O7    C6    1.311225 A    
C13   N5    1.418240 S    
C19   C20   1.194276 T    
O1    Zn1   1.949359 S    
C10   C17   1.406700 A    
C17   C19   1.430427 S    
O2    Zn2   1.949359 S    
C23   O13   1.220552 D    
O16   H4    1.013985 S    
O14   H3    1.006998 S    
O3    C2    1.284284 A    
N5    O21   1.300817 A    
C18   C20   1.436319 S    
C21   O9    1.221273 D    
O7    Zn1   1.968648 S    
O3    Zn1   1.949405 S    
Zn1   N2    2.029329 S    
O6    Zn2   1.966164 S    
O8    Zn2   1.968650 S    
C24   O15   1.219173 D    
C14   C15   1.412723 A    
Zn2   N1    2.029329 S    
C10   C24   1.486376 S    
C9    C18   1.386305 A    
C23   O14   1.397905 S    
C22   O11   1.218153 D    
C7    C21   1.497176 S    
O10   H1    1.014031 S    
O2    C2    1.284258 A    
O1    C1    1.284259 A    
C11   N3    1.420767 S    
C21   O10   1.399421 S    
C8    C22   1.452275 S    
N4    O20   1.299416 A    
C1    C3    1.366864 S    
C12   N4    1.420097 S    
N5    O22   1.298608 A    
C6    C15   1.493308 S    
C2    C4    1.367045 S    
C5    C16   1.493340 S    
C13   C16   1.412157 A    
N6    O24   1.299415 A    
C7    C17   1.406130 A    
C14   N6    1.423426 S    
C9    C23   1.456014 S    
O5    C5    1.311277 A    
C8    C18   1.383549 A    
N4    O19   1.301172 A    
C22   O12   1.400792 S    
N3    O17   1.301595 A    
C12   C16   1.415967 A    
C24   O16   1.398365 S    
O12   H2    1.008959 S    
C11   C15   1.413499 A    
O6    C6    1.304864 A    
O5    Zn1   1.966166 S    
N6    O23   1.301270 A    
C8    C12   1.395777 A    
C10   C14   1.398170 A    
C7    C11   1.409366 A    
N1    N2    1.227027 T    
C3    C4    1.165879 T    
O4    C1    1.284290 A    
N3    O18   1.300528 A    
O8    C5    1.304661 A    
