data_mof_unit_53418.cif
_audit_creation_date              2013-03-05T15:52:56-0500
_audit_creation_method            fapswitch 2.2
_symmetry_space_group_name_H-M    P1
_symmetry_Int_Tables_number       1
_space_group_crystal_system       triclinic
_cell_length_a                    10.805689
_cell_length_b                    10.772226
_cell_length_c                    17.061792
_cell_angle_alpha                 100.333248
_cell_angle_beta                  100.106715
_cell_angle_gamma                 61.087984
_cell_volume                      1701.17922013

loop_
_atom_site_label
_atom_site_type_symbol
_atom_site_description
_atom_site_fract_x
_atom_site_fract_y
_atom_site_fract_z
_atom_type_partial_charge
O1    O     O_R   0.749810 0.499790 0.438040 -0.512424
O2    O     O_R   0.477660 0.726260 0.439290 -0.454201
C1    C     C_R   0.351764 0.777242 0.400718 0.597397
O3    O     O_R   0.260150 0.743000 0.412270 -0.520852
O4    O     O_R   0.297740 0.466550 0.394720 -0.512008
C2    C     C_R   0.371665 0.346839 0.357187 0.567413
O5    O     O_R   0.488080 0.253500 0.386430 -0.465762
O6    O     O_R   0.722670 0.303800 0.421940 -0.466689
C3    C     C_R   0.785402 0.369817 0.407610 0.609353
O7    O     O_R   0.751130 0.502220 0.613520 -0.467198
O8    O     O_R   0.478890 0.728510 0.601960 -0.492774
C4    C     C_R   0.358504 0.769124 0.627456 0.553430
O9    O     O_R   0.261470 0.745430 0.587750 -0.478721
O10   O     O_R   0.298970 0.468800 0.557390 -0.493426
C5    C     C_R   0.406661 0.375295 0.599882 0.525745
O11   O     O_R   0.489400 0.255930 0.561910 -0.473646
O12   O     O_R   0.723890 0.306050 0.584610 -0.523625
C6    C     C_R   0.773264 0.381229 0.629777 0.547387
Cr1   Cr    Cr6+3 0.608100 0.610860 0.522250 1.107850
Cr2   Cr    Cr6+3 0.288890 0.599990 0.488420 1.067956
Cr3   Cr    Cr6+3 0.603040 0.289190 0.489390 1.099765
O13   O     O_3   0.500010 0.500010 0.500020 -0.299094
C7    C     C_1   0.347745 0.336443 0.273698 -0.017794
C8    C     C_1   0.335010 0.327502 0.202844 0.036664
H1    H     H_    0.971013 0.442422 0.374017 0.119351
C9    C     C_R   0.904174 0.315005 0.181507 0.027238
C10   C     C_R   0.835573 0.240893 0.198292 -0.007686
C11   C     C_R   0.848902 0.212036 0.277951 -0.003024
C12   C     C_R   0.942905 0.378352 0.324822 -0.179276
C13   C     C_R   0.956123 0.387368 0.246592 -0.057557
C14   C     C_R   0.750767 0.196634 0.139147 0.178702
C15   C     C_R   0.726275 0.087926 0.151991 -0.037198
C16   C     C_R   0.770258 0.033697 0.225222 0.104320
C17   C     C_R   0.825681 0.098153 0.290871 0.027840
C18   C     C_R   0.874846 0.305741 0.340309 0.062712
H2    H     H_    0.675492 0.042751 0.103839 0.189786
C19   C     C_R   0.280353 0.934953 0.178705 -0.003673
C20   C     C_R   0.414902 0.865484 0.220761 0.007325
C21   C     C_R   0.418359 0.885253 0.305387 -0.007589
C22   C     C_R   0.187674 0.888068 0.279938 0.014627
C23   C     C_R   0.163202 0.957115 0.213545 -0.130855
C24   C     C_R   0.528588 0.737638 0.187556 0.079798
C25   C     C_R   0.626276 0.645382 0.242662 0.118457
C26   C     C_R   0.659724 0.709176 0.316595 -0.008828
C27   C     C_R   0.554378 0.839948 0.346795 0.178940
C28   C     C_R   0.313672 0.863814 0.333304 0.014638
H3    H     H_    0.061695 0.989932 0.177632 0.151459
H4    H     H_    0.760921 0.657070 0.351168 0.156865
H5    H     H_    0.176589 0.544798 0.682141 0.192366
C29   C     C_R   0.300486 0.278246 0.799819 0.001114
C30   C     C_R   0.424964 0.178644 0.762643 0.024891
C31   C     C_R   0.476470 0.227183 0.712281 0.005678
C32   C     C_R   0.249869 0.445796 0.707091 -0.120481
C33   C     C_R   0.212759 0.410666 0.770574 -0.115538
C34   C     C_R   0.502687 0.033659 0.776894 -0.146114
C35   C     C_R   0.640201 0.945590 0.754396 0.037253
C36   C     C_R   0.702572 0.005615 0.717709 0.211386
C37   C     C_R   0.620588 0.144626 0.697201 -0.073330
C38   C     C_R   0.380593 0.354019 0.676551 -0.010975
H6    H     H_    0.456496 0.988406 0.806036 0.131084
H7    H     H_    0.115920 0.487116 0.796841 0.192420
H8    H     H_    0.670824 0.187009 0.668897 0.166050
C39   C     C_1   0.818616 0.342607 0.708993 -0.026138
C40   C     C_1   0.845646 0.313004 0.776422 -0.028348
C41   C     C_1   0.339829 0.808595 0.709715 -0.043013
C42   C     C_1   0.312790 0.836088 0.777619 -0.038938
O14   O     O_R   0.171100 0.914680 0.053100 -0.445947
O15   O     O_R   0.941680 0.184840 0.050710 -0.499559
C43   C     C_R   0.948856 0.289826 0.100756 0.533021
O16   O     O_R   0.922080 0.403420 0.072610 -0.433783
O17   O     O_R   0.196880 0.369150 0.083850 -0.448732
C44   C     C_R   0.319826 0.300490 0.119585 0.615471
O18   O     O_R   0.411730 0.181020 0.091530 -0.520141
O19   O     O_R   0.365010 0.944360 0.063320 -0.495340
C45   C     C_R   0.256671 0.959726 0.095609 0.548096
O20   O     O_R   0.159380 0.906670 0.876210 -0.451685
O21   O     O_R   0.930820 0.177420 0.886730 -0.466178
C46   C     C_R   0.886344 0.296888 0.858954 0.565336
O22   O     O_R   0.910360 0.395420 0.895720 -0.510929
O23   O     O_R   0.186010 0.361730 0.919870 -0.473874
C47   C     C_R   0.280134 0.253873 0.877253 0.543235
O24   O     O_R   0.400000 0.173010 0.914630 -0.482154
O25   O     O_R   0.354140 0.936940 0.899340 -0.543377
C48   C     C_R   0.278675 0.884206 0.857439 0.566580
Cr4   Cr    Cr6+3 0.053960 0.052250 0.967380 1.093225
Cr5   Cr    Cr6+3 0.059890 0.373160 0.992710 1.120384
Cr6   Cr    Cr6+3 0.373370 0.061690 0.991710 1.025929
O26   O     O_3   0.162410 0.162370 0.983930 -0.352123
Br1   Br    Br    0.561308 0.512699 0.253448 -0.502636
Br2   Br    Br    0.588344 0.934518 0.448286 -0.437827
C49   C     C_2   0.713075 0.795049 0.772722 0.278685
H9    H     H_    0.661782 0.759132 0.806139 0.090867
O27   O     O_2   0.828648 0.708680 0.750345 -0.457064
Br3   Br    Br    0.896139 0.906353 0.692181 -0.419142
Br4   Br    Br    0.641846 0.296841 0.047459 -0.381869
C50   C     C_2   0.010005 0.488141 0.239933 0.235208
H10   H     H_    0.069819 0.516022 0.291415 0.113781
O28   O     O_2   0.978934 0.552035 0.181740 -0.380820
Br5   Br    Br    0.759567 0.865541 0.228290 -0.552578
C51   C     C_2   0.873647 0.033847 0.368003 0.259249
H11   H     H_    0.828009 0.971935 0.382866 0.164929
O29   O     O_2   0.967303 0.046322 0.414972 -0.517782
C52   C     C_2   0.114258 0.798635 0.270371 0.295569
H12   H     H_    0.071103 0.785977 0.319073 0.156601
O30   O     O_2   0.101133 0.735747 0.204914 -0.412029
C53   C     C_2   0.523934 0.670209 0.104219 0.347911
H13   H     H_    0.617521 0.624999 0.072358 0.146198
O31   O     O_2   0.421139 0.654297 0.073070 -0.405187

loop_
_geom_bond_atom_site_label_1
_geom_bond_atom_site_label_2
_geom_bond_distance
_ccdc_geom_bond_type
C37   H8    1.071011 S    
O25   Cr6   1.930838 S    
Cr6   O26   1.986253 S    
H5    C32   1.083325 S    
O11   Cr3   2.070003 S    
C34   C35   1.400655 A    
O20   C48   1.279959 A    
C47   O24   1.289012 A    
C32   C38   1.402649 A    
O4    Cr2   1.930682 S    
C32   C33   1.386876 A    
C22   C28   1.434319 A    
O8    Cr1   1.934497 S    
C9    C10   1.413371 A    
C25   Br1   1.918209 S    
C15   H2    1.081418 S    
C19   C20   1.401129 A    
C20   C24   1.433594 A    
C20   C21   1.417728 A    
Cr5   O26   1.977264 S    
C6    C39   1.418480 S    
C53   H13   1.084944 S    
O24   Cr6   2.069439 S    
C35   C36   1.406683 A    
O18   Cr6   2.051055 S    
C13   C50   1.486247 S    
C35   C49   1.486061 S    
C14   C15   1.378940 A    
C11   C18   1.418848 A    
O6    C3    1.269512 A    
C50   O28   1.215308 D    
C17   C51   1.490257 S    
C7    C8    1.184204 T    
O19   Cr6   1.949750 S    
C21   C27   1.401154 A    
C19   C45   1.445379 S    
O21   Cr4   1.941717 S    
Cr3   O13   1.976912 S    
O15   Cr4   1.932544 S    
C40   C46   1.415260 S    
O12   C6    1.258558 A    
H1    C12   1.085583 S    
O1    Cr1   2.055376 S    
O14   Cr4   2.061890 S    
O19   C45   1.306772 A    
C10   C14   1.417988 A    
C30   C31   1.389920 A    
O10   Cr2   1.948471 S    
Cr1   O13   1.991117 S    
O1    C3    1.290880 A    
C44   O18   1.257634 A    
C49   H9    1.085989 S    
C46   O22   1.248103 A    
O15   C43   1.315012 A    
C29   C30   1.422172 A    
O21   C46   1.285532 A    
C42   C48   1.413312 S    
O12   Cr3   1.938187 S    
C16   Br5   1.880373 S    
C25   C26   1.401162 A    
C12   C13   1.392186 A    
C31   C38   1.421336 A    
C49   O27   1.219600 D    
O17   Cr5   1.940499 S    
O25   C48   1.263474 A    
O7    Cr1   2.059957 S    
C50   H10   1.083187 S    
C51   O29   1.221754 D    
C16   C17   1.408186 A    
C23   H3    1.081862 S    
C52   O30   1.221559 D    
C29   C33   1.401492 A    
C27   Br2   1.917454 S    
C24   C53   1.480406 S    
C31   C37   1.414799 A    
C21   C28   1.428661 A    
C22   C23   1.383222 A    
Cr2   O13   1.986382 S    
C9    C13   1.431673 A    
C36   Br3   1.923024 S    
O14   C45   1.299501 A    
C24   C25   1.399432 A    
C1    O3    1.265916 A    
O16   Cr5   2.065402 S    
C10   C11   1.415697 A    
C26   C27   1.393078 A    
C8    C44   1.394852 S    
Cr4   O26   1.991994 S    
O9    Cr2   2.046800 S    
O2    Cr1   1.942243 S    
C5    C38   1.463675 S    
O23   C47   1.314123 A    
O6    Cr3   1.950381 S    
O8    C4    1.285649 A    
C2    O5    1.256595 A    
C33   H7    1.083026 S    
C4    C41   1.411954 S    
C12   C18   1.386017 A    
C1    C28   1.486464 S    
O23   Cr5   1.947871 S    
C15   C16   1.383192 A    
O2    C1    1.295540 A    
O17   C44   1.269295 A    
O5    Cr3   2.056817 S    
C22   C52   1.490381 S    
C36   C37   1.395018 A    
O4    C2    1.264268 A    
C53   O31   1.220601 D    
O7    C6    1.279781 A    
C14   Br4   1.931017 S    
C2    C7    1.396416 S    
C51   H11   1.083917 S    
C30   C34   1.414211 A    
C19   C23   1.390614 A    
C43   O16   1.277253 A    
C11   C17   1.424991 A    
C39   C40   1.197568 T    
O3    Cr2   2.066782 S    
C26   H4    1.075954 S    
C4    O9    1.253368 A    
C41   C42   1.194731 T    
C52   H12   1.079191 S    
C3    C18   1.479608 S    
C9    C43   1.475693 S    
O10   C5    1.314095 A    
C34   H6    1.069257 S    
O20   Cr4   2.048421 S    
O22   Cr5   2.058147 S    
C5    O11   1.290452 A    
C29   C47   1.464587 S    
