data_mof_unit_27277.cif
_audit_creation_date              2012-12-10T19:44:25-0500
_audit_creation_method            fapswitch 2.2
_symmetry_space_group_name_H-M    P1
_symmetry_Int_Tables_number       1
_space_group_crystal_system       triclinic
_cell_length_a                    10.852478
_cell_length_b                    12.402953
_cell_length_c                    13.275657
_cell_angle_alpha                 117.701371
_cell_angle_beta                  77.001936
_cell_angle_gamma                 100.388586
_cell_volume                      1535.6309654

loop_
_atom_site_label
_atom_site_type_symbol
_atom_type_description
_atom_site_fract_x
_atom_site_fract_y
_atom_site_fract_z
_atom_type_partial_charge
C1    C     C_R   0.502136 0.855353 0.288176 0.893003
C2    C     C_R   0.748537 0.708407 0.712288 0.556176
C3    C     C_R   0.043028 0.930943 0.538918 -0.174056
C4    C     C_R   0.131223 0.996239 0.489516 -0.056360
C5    C     C_R   0.090061 0.057111 0.437260 0.146534
C6    C     C_R   0.960397 0.057792 0.443883 -0.143528
C7    C     C_R   0.871468 0.994312 0.496403 -0.112681
C8    C     C_R   0.914478 0.926381 0.540625 0.118803
C9    C     C_R   0.186329 0.241039 0.406253 0.515260
C10   C     C_R   0.270965 0.294054 0.342030 -0.327905
C11   C     C_R   0.349011 0.221437 0.241862 0.469495
C12   C     C_R   0.737072 0.998709 0.499889 0.812842
C13   C     C_R   0.339307 0.095052 0.203082 -0.296927
C14   C     C_R   0.253820 0.041076 0.265958 0.521208
C15   C     C_R   0.178465 0.114125 0.369342 -0.140622
C16   C     C_R   0.303997 0.276203 0.017665 -0.053918
C17   C     C_R   0.446537 0.231075 0.836326 -0.199218
C18   C     C_R   0.522114 0.818956 0.085299 -0.281777
C19   C     C_R   0.511012 0.743507 0.970557 -0.151253
C20   C     C_R   0.480048 0.618664 0.933436 0.814189
C21   C     C_R   0.447304 0.569918 0.014114 -0.131396
C22   C     C_R   0.423097 0.652119 0.132620 -0.040444
C23   C     C_R   0.480144 0.145988 0.713751 0.773843
C24   C     C_R   0.424622 0.442813 0.980017 0.033902
C25   C     C_R   0.340611 0.401324 0.055194 0.065829
C26   C     C_R   0.293012 0.485590 0.166227 -0.243818
C27   C     C_R   0.334583 0.610786 0.206886 0.454332
C28   C     C_R   0.488878 0.356611 0.876416 0.438178
C29   C     C_R   0.354677 0.192006 0.908267 -0.212412
C30   C     C_R   0.481189 0.774285 0.168185 -0.024109
C31   C     C_R   0.670062 0.312800 0.296685 0.414781
C32   C     C_R   0.331250 0.765529 0.650940 0.471461
C33   C     C_R   0.299547 0.671541 0.686604 0.280135
C34   C     C_R   0.263895 0.998523 0.495842 0.851456
C35   C     C_R   0.359698 0.564177 0.623840 -0.081725
C36   C     C_R   0.456660 0.548937 0.529151 -0.180212
C37   C     C_R   0.490553 0.647250 0.497478 0.104386
C38   C     C_R   0.521845 0.439367 0.465985 -0.025539
C39   C     C_R   0.607206 0.421201 0.362653 0.072353
C40   C     C_R   0.636560 0.514296 0.330615 -0.214240
C41   C     C_R   0.589553 0.627888 0.399229 0.439994
C42   C     C_R   0.506800 0.345857 0.500931 0.114919
C43   C     C_R   0.654603 0.228741 0.339716 0.093877
C44   C     C_R   0.741178 0.835076 0.769783 -0.359269
C45   C     C_R   0.782067 0.905795 0.709897 -0.319579
C46   C     C_R   0.833564 0.850439 0.592589 -0.045116
C47   C     C_R   0.838819 0.722824 0.534731 0.468380
C48   C     C_R   0.794928 0.652095 0.594392 0.490822
Cu1   Cu    Cu3+1 0.529370 0.098270 0.475420 0.997180
Cu2   Cu    Cu3+1 0.470630 0.901730 0.524580 1.048105
H1    H     H_    0.397996 0.038980 0.124107 0.185709
H2    H     H_    0.319873 0.096592 0.879156 0.202891
H3    H     H_    0.224110 0.453819 0.221832 0.158384
H4    H     H_    0.234658 0.243600 0.072347 0.159995
H5    H     H_    0.559349 0.913200 0.109414 0.177523
H6    H     H_    0.528692 0.781239 0.909537 0.162590
H7    H     H_    0.710176 0.880003 0.861882 0.197792
H8    H     H_    0.701374 0.145083 0.291232 0.139823
H9    H     H_    0.709394 0.504279 0.257024 0.174954
H10   H     H_    0.442900 0.349053 0.576888 0.165226
H11   H     H_    0.327749 0.493567 0.651842 0.221673
H12   H     H_    0.782727 0.004382 0.756688 0.199883
H13   H     H_    0.073868 0.882748 0.578048 0.174507
H14   H     H_    0.929358 0.105277 0.404262 0.181855
H15   H     H_    0.277528 0.391816 0.370939 0.193150
N1    N     N_R   0.573890 0.246290 0.438210 -0.240997
N2    N     N_R   0.426890 0.754320 0.561170 -0.207734
O1    O     O_R   0.536940 0.972510 0.318130 -0.617903
O2    O     O_R   0.487330 0.806530 0.359650 -0.505236
O3    O     O_R   0.705160 0.082990 0.479250 -0.581897
O4    O     O_R   0.655550 0.917010 0.520760 -0.514791
O5    O     O_R   0.512670 0.193470 0.640350 -0.550646
O6    O     O_R   0.463060 0.027490 0.681870 -0.533439
O7    O     O_R   0.344450 0.082990 0.479240 -0.611508
O8    O     O_R   0.294840 0.917010 0.520750 -0.521047
F1    F     F_    0.717730 0.640786 0.771675 -0.575802
F2    F     F_    0.434894 0.273635 0.182579 -0.688971
F3    F     F_    0.244079 0.917886 0.226268 -0.643360
O9    O     O_3   0.597907 0.396254 0.821201 -0.616781
H16   H     H_    0.653804 0.328534 0.777640 0.335213
F4    F     F_    0.468339 0.548506 0.820873 -0.626674
O10   O     O_3   0.276365 0.694334 0.311590 -0.674251
H17   H     H_    0.217022 0.650456 0.351737 0.340148
O11   O     O_3   0.746141 0.285750 0.191049 -0.723239
H18   H     H_    0.705954 0.312229 0.147185 0.348507
O12   O     O_3   0.266321 0.868815 0.703422 -0.724335
H19   H     H_    0.178066 0.848064 0.733884 0.304978
O13   O     O_3   0.211938 0.681442 0.782972 -0.672404
H20   H     H_    0.208483 0.768947 0.838381 0.330753
O14   O     O_3   0.652591 0.720267 0.374139 -0.678002
H21   H     H_    0.713967 0.691083 0.301084 0.326700
F5    F     F_    0.895123 0.668532 0.422811 -0.621467
F6    F     F_    0.805248 0.529859 0.539582 -0.580675
F7    F     F_    0.113888 0.313406 0.505167 -0.616433

loop_
_geom_bond_atom_site_label_1
_geom_bond_atom_site_label_2
_ccdc_geom_bond_type
C19   H6    S    
Cu1   O1    S    
C17   C29   A    
C47   F5    S    
C35   C36   A    
C7    C8    A    
C45   C46   A    
C26   C27   A    
C17   C23   S    
C31   C43   A    
C36   C37   A    
Cu2   O2    S    
C38   C42   A    
C38   C39   A    
C45   H12   S    
C1    O1    A    
C18   C19   A    
C6    H14   S    
C28   O9    S    
C20   F4    S    
C11   F2    S    
C43   H8    S    
C13   H1    S    
C19   C20   A    
C2    C44   A    
Cu1   O5    S    
C18   C30   A    
C9    C10   A    
C34   O8    A    
O13   H20   S    
C41   O14   S    
C40   H9    S    
C13   C14   A    
C23   O6    A    
C25   C26   A    
C16   H4    S    
C7    C12   S    
C4    C34   S    
C48   F6    S    
C24   C25   A    
C3    C8    A    
Cu1   N1    S    
Cu2   O6    S    
C42   H10   S    
C39   C40   A    
O12   H19   S    
C2    C48   A    
C16   C29   A    
C1    O2    A    
C31   O11   S    
Cu2   O4    S    
C47   C48   A    
C44   H7    S    
C32   O12   S    
C35   H11   S    
O11   H18   S    
C18   H5    S    
C34   O7    A    
C32   N2    A    
C40   C41   A    
C12   O4    A    
O10   H17   S    
C22   C27   A    
C3    C4    A    
C26   H3    S    
C2    F1    S    
C44   C45   A    
Cu2   N2    S    
C10   H15   S    
C16   C25   A    
C12   O3    A    
C46   C47   A    
C22   C30   A    
Cu1   O7    S    
C17   C28   A    
C23   O5    A    
C33   O13   S    
C27   O10   S    
C24   C28   A    
C4    C5    A    
C6    C7    A    
C3    H13   S    
Cu1   O3    S    
C32   C33   A    
C36   C38   A    
C9    C15   A    
Cu2   O8    S    
C11   C13   A    
O14   H21   S    
C5    C6    A    
C43   N1    A    
C37   N2    A    
C1    C30   S    
C33   C35   A    
C31   C39   A    
C14   F3    S    
C37   C41   A    
C8    C46   S    
C5    C15   S    
C10   C11   A    
O9    H16   S    
C20   C21   A    
Cu1   Cu2   S    
C21   C24   A    
C42   N1    A    
C14   C15   A    
C21   C22   A    
C9    F7    S    
C29   H2    S    
