data_mof_unit_28572.cif
_audit_creation_date              2012-12-11T14:19:18-0500
_audit_creation_method            fapswitch 2.2
_symmetry_space_group_name_H-M    P1
_symmetry_Int_Tables_number       1
_space_group_crystal_system       triclinic
_cell_length_a                    19.45292
_cell_length_b                    7.225219
_cell_length_c                    17.793785
_cell_angle_alpha                 90.000051
_cell_angle_beta                  107.805592
_cell_angle_gamma                 89.999912
_cell_volume                      2381.14869176

loop_
_atom_site_label
_atom_site_type_symbol
_atom_type_description
_atom_site_fract_x
_atom_site_fract_y
_atom_site_fract_z
_atom_type_partial_charge
O1    O     O_R   0.414820 0.494320 0.416790 -0.509001
O2    O     O_R   0.585180 0.994320 0.583210 -0.509001
O3    O     O_R   0.560270 0.819500 0.430140 -0.554141
O4    O     O_R   0.439730 0.319500 0.569860 -0.554141
C1    C     C_R   0.579334 0.655461 0.412673 0.715047
C2    C     C_R   0.420666 0.155462 0.587326 0.715044
O5    O     O_R   0.413840 0.823740 0.407440 -0.528130
O6    O     O_R   0.586160 0.323740 0.592560 -0.528131
O7    O     O_R   0.437710 0.998590 0.560350 -0.531398
O8    O     O_R   0.562290 0.498590 0.439650 -0.531399
C3    C     C_R   0.388354 0.654883 0.384390 0.680350
C4    C     C_R   0.611646 0.154883 0.615610 0.680348
O9    O     O_3   0.508000 0.662290 0.550200 -0.368808
O10   O     O_3   0.492000 0.162290 0.449800 -0.368810
V1    V     V_3+5 0.498520 0.935380 0.490690 1.655143
V2    V     V_3+5 0.501480 0.435380 0.509310 1.655145
C5    C     C_2   0.781376 0.265265 0.791817 0.469930
C6    C     C_2   0.218624 0.765264 0.208182 0.469925
C7    C     C_2   0.824999 0.115347 0.812248 0.376576
C8    C     C_2   0.175001 0.615347 0.187752 0.376587
C9    C     C_2   0.720768 0.278467 0.716855 0.486503
C10   C     C_2   0.279232 0.778467 0.283144 0.486503
C11   C     C_2   0.673741 0.138917 0.688429 0.358935
C12   C     C_2   0.326259 0.638916 0.311571 0.358936
C13   C     C_R   0.322018 0.011390 0.628854 -0.095861
C14   C     C_R   0.677980 0.511389 0.371144 -0.095863
C15   C     C_R   0.374687 0.148957 0.640811 -0.163766
C16   C     C_R   0.625312 0.648956 0.359188 -0.163766
C17   C     C_R   0.381185 0.281960 0.701061 -0.057363
C18   C     C_R   0.618813 0.781956 0.298937 -0.057365
C19   C     C_R   0.333134 0.277193 0.747673 -0.052462
C20   C     C_R   0.666862 0.777188 0.252324 -0.052459
C21   C     C_R   0.278463 0.138852 0.732800 0.042273
C22   C     C_R   0.721534 0.638849 0.267197 0.042270
C23   C     C_R   0.272622 0.005811 0.672591 0.075967
C24   C     C_R   0.727376 0.505809 0.327407 0.075963
C25   C     C_R   0.337224 0.409177 0.807662 0.585089
C26   C     C_R   0.662770 0.909166 0.192333 0.585086
C27   C     C_R   0.289288 0.405282 0.852330 -0.104787
C28   C     C_R   0.710707 0.905275 0.147666 -0.104802
C29   C     C_R   0.238347 0.259155 0.841994 -0.072160
C30   C     C_R   0.761651 0.759155 0.158004 -0.072162
C31   C     C_R   0.230210 0.132265 0.778781 -0.018520
C32   C     C_R   0.769788 0.632264 0.221217 -0.018513
C33   C     C_R   0.174108 0.998231 0.762098 -0.039793
C34   C     C_R   0.825891 0.498231 0.237901 -0.039785
C35   C     C_R   0.169676 0.862573 0.702879 -0.099666
C36   C     C_R   0.830322 0.362572 0.297119 -0.099660
C37   C     C_R   0.218534 0.867155 0.658107 -0.100667
C38   C     C_R   0.781464 0.367153 0.341890 -0.100670
C39   C     C_R   0.196215 0.234299 0.893934 -0.079186
C40   C     C_R   0.803787 0.734306 0.106067 -0.079172
C41   C     C_R   0.134112 0.120981 0.870522 -0.238920
C42   C     C_R   0.865888 0.620983 0.129478 -0.238915
C43   C     C_R   0.122781 0.007194 0.803974 0.616270
C44   C     C_R   0.877218 0.507193 0.196025 0.616272
H1    H     H_    0.319356 0.910139 0.583342 0.157870
H2    H     H_    0.680644 0.410138 0.416657 0.157870
O11   O     O_R   0.937810 0.773680 0.060480 -0.533092
O12   O     O_R   0.062190 0.273680 0.939520 -0.533089
O13   O     O_R   0.086190 0.439740 0.092580 -0.491507
O14   O     O_R   0.913810 0.939740 0.907420 -0.491514
C45   C     C_R   0.111891 0.608598 0.115440 0.716256
C46   C     C_R   0.888109 0.108598 0.884560 0.716263
O15   O     O_R   0.939760 0.444210 0.069890 -0.510576
O16   O     O_R   0.060240 0.944210 0.930110 -0.510581
O17   O     O_R   0.914790 0.269640 0.916760 -0.539062
O18   O     O_R   0.085210 0.769640 0.083240 -0.539063
C47   C     C_R   0.917648 0.612395 0.082975 0.768549
C48   C     C_R   0.082352 0.112395 0.917025 0.768570
O19   O     O_3   0.992050 0.601530 0.949880 -0.372526
O20   O     O_3   0.007950 0.101530 0.050120 -0.372522
V3    V     V_3+5 0.001480 0.328340 0.009300 1.766020
V4    V     V_3+5 0.998520 0.828340 0.990700 1.766006
F1    F     F_    0.794809 0.418988 0.838227 -0.627384
F2    F     F_    0.205192 0.918986 0.161772 -0.627383
F3    F     F_    0.060537 0.907839 0.780161 -0.652398
F4    F     F_    0.939462 0.407835 0.219838 -0.652399
C49   C     C_2   0.116062 0.709620 0.688840 0.972831
O21   O     O_2   0.071526 0.690606 0.623804 -0.504578
O22   O     O_R   0.117593 0.586013 0.749770 -0.620796
H3    H     H_    0.079270 0.486332 0.732893 0.317578
C50   C     C_2   0.883937 0.209619 0.311158 0.972840
O23   O     O_2   0.928475 0.190610 0.376193 -0.504578
O24   O     O_R   0.882404 0.086007 0.250229 -0.620796
H4    H     H_    0.920727 0.986327 0.267105 0.317576
C51   C     C_2   0.213429 0.722037 0.597294 0.813550
O25   O     O_2   0.199192 0.765069 0.527738 -0.513635
O26   O     O_R   0.223301 0.536226 0.619864 -0.665636
H5    H     H_    0.218512 0.450218 0.573527 0.319581
C52   C     C_2   0.786570 0.222035 0.402704 0.813545
O27   O     O_2   0.800806 0.265067 0.472260 -0.513635
O28   O     O_R   0.776698 0.036223 0.380134 -0.665635
H6    H     H_    0.781488 0.950216 0.426471 0.319581
F5    F     F_    0.814849 0.966863 0.762999 -0.585704
F6    F     F_    0.185151 0.466865 0.237001 -0.585701
F7    F     F_    0.711159 0.444780 0.679192 -0.606082
F8    F     F_    0.288842 0.944781 0.320806 -0.606081
F9    F     F_    0.679874 0.977550 0.729444 -0.605964
F10   F     F_    0.320126 0.477549 0.270556 -0.605959
C53   C     C_2   0.440366 0.419669 0.716215 0.930432
O29   O     O_2   0.426918 0.580057 0.694689 -0.519459
O30   O     O_R   0.511601 0.363143 0.751986 -0.648670
H7    H     H_    0.547426 0.468084 0.757609 0.323987
C54   C     C_2   0.559632 0.919668 0.283785 0.930432
O31   O     O_2   0.573082 0.080059 0.305306 -0.519460
O32   O     O_R   0.488396 0.863141 0.248020 -0.648672
H8    H     H_    0.452572 0.968084 0.242398 0.323986
F11   F     F_    0.386098 0.549265 0.822017 -0.628340
F12   F     F_    0.613892 0.049245 0.177973 -0.628343
C55   C     C_2   0.289107 0.569021 0.903036 0.884280
O33   O     O_2   0.232227 0.645974 0.899577 -0.544038
O34   O     O_R   0.354160 0.637832 0.953241 -0.585184
H9    H     H_    0.346955 0.750454 0.983998 0.333676
C56   C     C_2   0.710884 0.069012 0.096958 0.884301
O35   O     O_2   0.767761 0.145993 0.100427 -0.544029
O36   O     O_R   0.645831 0.137789 0.046740 -0.585190
H10   H     H_    0.653032 0.250413 0.015984 0.333679
C57   C     C_2   0.226171 0.291609 0.977996 0.817547
O37   O     O_2   0.192133 0.393221 0.008440 -0.535429
O38   O     O_R   0.295506 0.233443 0.021341 -0.631654
H11   H     H_    0.310949 0.282526 0.077411 0.352081
C58   C     C_2   0.773837 0.791630 0.022007 0.817529
O39   O     O_2   0.807871 0.893284 0.991576 -0.535437
O40   O     O_R   0.704511 0.733430 0.978648 -0.631645
H12   H     H_    0.689071 0.782525 0.922580 0.352086

loop_
_geom_bond_atom_site_label_1
_geom_bond_atom_site_label_2
_ccdc_geom_bond_type
C11   F9    S    
C51   O25   D    
O28   H6    S    
C10   F8    S    
C15   C17   A    
O12   V3    S    
C55   O33   D    
O1    C3    A    
C35   C49   S    
O2    C4    A    
C2    O7    A    
O22   H3    S    
C44   F4    S    
C58   O39   D    
C27   C29   A    
O24   H4    S    
O5    C3    A    
C54   O32   S    
C4    C11   S    
C53   O29   D    
C13   H1    S    
C36   C38   A    
C43   F3    S    
C40   C58   S    
C58   O40   S    
C28   C56   S    
O18   V4    S    
C56   O35   D    
O16   V4    S    
C3    C12   S    
O15   V3    S    
C33   C35   A    
O13   C45   A    
C37   C51   S    
O14   C46   A    
C5    C7    D    
C2    C15   S    
C24   C38   A    
C40   C42   A    
C56   O36   S    
C23   C37   A    
C39   C57   S    
O32   H8    S    
C19   C21   A    
O17   V3    S    
C20   C26   A    
C26   F12   S    
C25   F11   S    
C28   C30   A    
C8    F6    S    
O6    V2    S    
C6    C10   S    
C29   C31   A    
C30   C32   A    
C41   C48   S    
C32   C34   A    
C34   C36   A    
C41   C43   A    
C25   C27   A    
C42   C44   A    
C21   C31   A    
C46   O17   A    
C22   C32   A    
C35   C37   A    
C52   O27   D    
C49   O22   S    
O13   V3    S    
C5    C9    S    
C19   C25   A    
C39   C41   A    
C20   C22   A    
O4    V2    S    
C18   C20   A    
C52   O28   S    
C1    C16   S    
C9    F7    S    
C50   O23   D    
O12   C48   A    
C7    C46   S    
O6    C4    A    
C17   C53   S    
C55   O34   S    
O1    V2    S    
O2    V1    S    
C14   H2    S    
O11   V4    S    
O38   H11   S    
C57   O38   S    
O11   C47   A    
C14   C24   A    
C50   O24   S    
C13   C23   A    
C9    C11   D    
C18   C54   S    
O40   H12   S    
C10   C12   D    
O4    C2    A    
C7    F5    S    
O34   H9    S    
C45   O18   A    
C6    F2    S    
C12   F10   S    
O20   V3    S    
O3    C1    A    
O19   V4    S    
C57   O37   D    
C13   C15   A    
C54   O31   D    
C14   C16   A    
C36   C50   S    
C8    C45   S    
C16   C18   A    
O7    V1    S    
C1    O8    A    
C17   C19   A    
O8    V2    S    
O36   H10   S    
C26   C28   A    
C27   C55   S    
O16   C48   A    
C42   C47   S    
O15   C47   A    
O5    V1    S    
C21   C23   A    
C22   C24   A    
C6    C8    D    
C49   O21   D    
C38   C52   S    
C33   C43   A    
C53   O30   S    
O9    V2    S    
C34   C44   A    
O30   H7    S    
C5    F1    S    
C51   O26   S    
O10   V1    S    
O14   V4    S    
O3    V1    S    
O26   H5    S    
C31   C33   A    
C29   C39   A    
C30   C40   A    
