data_mof_unit_33721.cif
_audit_creation_date              2012-12-11T15:47:02-0500
_audit_creation_method            fapswitch 2.2
_symmetry_space_group_name_H-M    P1
_symmetry_Int_Tables_number       1
_space_group_crystal_system       triclinic
_cell_length_a                    20.162834
_cell_length_b                    7.257629
_cell_length_c                    13.565453
_cell_angle_alpha                 89.984149
_cell_angle_beta                  103.010447
_cell_angle_gamma                 90.015995
_cell_volume                      1934.132647

loop_
_atom_site_label
_atom_site_type_symbol
_atom_type_description
_atom_site_fract_x
_atom_site_fract_y
_atom_site_fract_z
_atom_type_partial_charge
O1    O     O_R   0.449560 0.506810 0.599700 -0.534738
O2    O     O_R   0.550440 0.006810 0.400300 -0.534733
O3    O     O_R   0.587960 0.180060 0.595760 -0.545930
O4    O     O_R   0.412040 0.680060 0.404240 -0.545938
C1    C     C_R   0.614902 0.344207 0.617570 0.681740
C2    C     C_R   0.385098 0.844198 0.382429 0.681722
O5    O     O_R   0.452380 0.177430 0.611700 -0.538584
O6    O     O_R   0.547620 0.677430 0.388300 -0.538583
O7    O     O_R   0.413900 0.001890 0.416350 -0.540854
O8    O     O_R   0.586100 0.501890 0.583650 -0.540862
C3    C     C_R   0.436437 0.345658 0.637661 0.685259
C4    C     C_R   0.563562 0.845731 0.362340 0.685252
O9    O     O_3   0.487530 0.337490 0.435890 -0.378983
O10   O     O_3   0.512470 0.837490 0.564110 -0.378971
V1    V     V_3+5 0.502310 0.064660 0.511890 1.408076
V2    V     V_3+5 0.497690 0.564660 0.488110 1.408026
C5    C     C_R   0.609346 0.874060 0.109639 -0.159079
C6    C     C_R   0.390682 0.369301 0.890503 -0.159092
H1    H     H_    0.515822 0.868829 0.160000 0.105617
H2    H     H_    0.484204 0.363943 0.840142 0.105589
H3    H     H_    0.692419 0.888253 0.983707 0.124038
H4    H     H_    0.307626 0.381186 0.016508 0.123982
H5    H     H_    0.583220 0.883277 0.030689 0.114926
H6    H     H_    0.416821 0.376212 0.969521 0.114933
C7    C     C_R   0.603351 0.854087 0.284932 -0.023849
C8    C     C_R   0.396652 0.353664 0.715080 -0.023829
C9    C     C_R   0.931529 0.847982 0.316443 -0.168290
C10   C     C_R   0.068454 0.351193 0.683462 -0.168290
C11   C     C_R   0.896044 0.839424 0.392957 -0.119596
C12   C     C_R   0.103931 0.344001 0.606906 -0.119621
C13   C     C_R   0.825130 0.842619 0.369839 -0.157104
C14   C     C_R   0.174851 0.345992 0.630061 -0.157088
C15   C     C_R   0.787531 0.854660 0.268259 0.076083
C16   C     C_R   0.212467 0.355334 0.731722 0.076085
C17   C     C_R   0.824352 0.863381 0.190110 0.067329
C18   C     C_R   0.175655 0.362443 0.809920 0.067329
C19   C     C_R   0.714796 0.858286 0.241624 0.071252
C20   C     C_R   0.285208 0.357862 0.758390 0.071251
C21   C     C_R   0.680759 0.870425 0.137859 0.140162
C22   C     C_R   0.319262 0.367099 0.862241 0.140176
C23   C     C_R   0.718053 0.878885 0.062892 -0.202247
C24   C     C_R   0.281978 0.374003 0.937256 -0.202219
C25   C     C_R   0.788647 0.875464 0.088384 -0.191277
C26   C     C_R   0.211376 0.371798 0.911730 -0.191248
C27   C     C_R   0.674381 0.850324 0.314261 -0.211042
C28   C     C_R   0.325614 0.351483 0.685705 -0.211035
C29   C     C_R   0.570878 0.865874 0.182852 -0.174581
C30   C     C_R   0.429141 0.362418 0.817249 -0.174577
C31   C     C_R   0.896445 0.859861 0.215407 -0.067600
C32   C     C_R   0.103554 0.360282 0.784583 -0.067585
H7    H     H_    0.696181 0.841153 0.394262 0.093320
H8    H     H_    0.303802 0.344475 0.605639 0.093309
H9    H     H_    0.986684 0.845253 0.336038 0.103481
H10   H     H_    0.013294 0.349681 0.663829 0.103461
H11   H     H_    0.801540 0.835391 0.433450 0.107775
H12   H     H_    0.198433 0.340033 0.566412 0.107761
H13   H     H_    0.923734 0.830170 0.471063 0.120719
H14   H     H_    0.076229 0.336890 0.528735 0.120725
H15   H     H_    0.815045 0.882422 0.027243 0.116920
H16   H     H_    0.184987 0.377489 0.972910 0.116871
C33   C     C_R   0.217389 0.023130 0.223509 -0.153586
C34   C     C_R   0.782566 0.523151 0.776665 -0.153359
H17   H     H_    0.193431 0.155990 0.204773 0.119261
H18   H     H_    0.806487 0.656032 0.795547 0.119290
C35   C     C_R   0.282572 0.018685 0.286921 -0.160936
C36   C     C_R   0.717384 0.518715 0.713250 -0.160955
H19   H     H_    0.306493 0.147729 0.315112 0.118042
H20   H     H_    0.693426 0.647784 0.685203 0.118034
C37   C     C_R   0.316159 0.850166 0.313675 -0.038514
C38   C     C_R   0.683841 0.350172 0.686322 -0.038518
C39   C     C_R   0.282747 0.686204 0.274888 -0.158045
C40   C     C_R   0.717298 0.186175 0.724939 -0.158045
H21   H     H_    0.306823 0.553465 0.293565 0.118296
H22   H     H_    0.693258 0.053413 0.706116 0.118319
C41   C     C_R   0.217565 0.690608 0.211472 -0.156687
C42   C     C_R   0.782478 0.190570 0.788359 -0.156961
H23   H     H_    0.193764 0.561473 0.183194 0.118139
H24   H     H_    0.806316 0.061409 0.816495 0.118116
C43   C     C_R   0.183815 0.859105 0.185042 -0.035559
C44   C     C_R   0.816183 0.359093 0.814962 -0.035562
O11   O     O_R   0.913920 0.203370 0.916260 -0.539763
O12   O     O_R   0.086080 0.703370 0.083740 -0.539710
O13   O     O_R   0.047620 0.535540 0.888290 -0.537818
O14   O     O_R   0.952380 0.035540 0.111710 -0.537865
C45   C     C_R   0.063763 0.368332 0.862393 0.679705
C46   C     C_R   0.936239 0.868258 0.137607 0.679686
O15   O     O_R   0.912040 0.532780 0.904220 -0.545737
O16   O     O_R   0.087960 0.032780 0.095780 -0.545782
O17   O     O_R   0.949550 0.708160 0.099720 -0.534765
O18   O     O_R   0.050450 0.208160 0.900280 -0.534818
C47   C     C_R   0.885408 0.364922 0.883078 0.673794
C48   C     C_R   0.114591 0.864932 0.116923 0.673785
O19   O     O_3   0.012480 0.375300 0.064060 -0.378456
O20   O     O_3   0.987520 0.875300 0.935940 -0.378445
V3    V     V_3+5 0.997690 0.648180 0.988110 1.409942
V4    V     V_3+5 0.002310 0.148180 0.011890 1.409732

loop_
_geom_bond_atom_site_label_1
_geom_bond_atom_site_label_2
_ccdc_geom_bond_type
C2    C37   S    
C36   H20   S    
O16   V4    S    
O4    V2    S    
O15   C47   A    
C9    C11   A    
O1    C3    A    
C40   C42   A    
O2    C4    A    
C2    O7    A    
O3    V1    S    
C21   C23   A    
C36   C38   A    
O5    C3    A    
C5    H5    S    
C6    H6    S    
C34   C44   A    
C42   H24   S    
O14   V4    S    
H1    C29   S    
C27   H7    S    
C28   H8    S    
O12   C48   A    
C33   H17   S    
C5    C21   A    
C37   C39   A    
C6    C22   A    
C34   H18   S    
C32   C45   S    
C10   C32   A    
O16   C48   A    
C35   H19   S    
O15   V3    S    
C17   C31   A    
C13   C15   A    
C12   C14   A    
C17   C25   A    
C7    C29   A    
C25   H15   S    
C22   C24   A    
O6    V2    S    
C23   C25   A    
C24   C26   A    
C39   C41   A    
C34   C36   A    
C5    C29   A    
C40   H22   S    
C39   H21   S    
O11   V4    S    
C10   H10   S    
C3    C8    S    
C15   C19   A    
C14   C16   A    
O17   V3    S    
C1    C38   S    
O6    C4    A    
O13   V3    S    
O1    V2    S    
C26   H16   S    
O2    V1    S    
C41   H23   S    
C43   C48   S    
H2    C30   S    
H3    C23   S    
O4    C2    A    
O13   C45   A    
C11   H13   S    
O19   V4    S    
C18   C26   A    
C19   C27   A    
C7    C27   A    
C18   C32   A    
O12   V3    S    
C16   C20   A    
C31   C46   S    
C42   C44   A    
O14   C46   A    
O3    C1    A    
C46   O17   A    
C6    C30   A    
C45   O18   A    
C9    H9    S    
O18   V4    S    
C8    C30   A    
C4    C7    S    
C44   C47   S    
C10   C12   A    
O7    V1    S    
C1    O8    A    
C19   C21   A    
O8    V2    S    
C20   C22   A    
H4    C24   S    
C33   C43   A    
C35   C37   A    
C12   H14   S    
O5    V1    S    
C15   C17   A    
C16   C18   A    
O20   V3    S    
C20   C28   A    
C8    C28   A    
O11   C47   A    
C33   C35   A    
C11   C13   A    
O9    V2    S    
O10   V1    S    
C38   C40   A    
C13   H11   S    
C41   C43   A    
C14   H12   S    
C9    C31   A    
