data_mof_unit_9842.cif
_audit_creation_date              2012-12-11T17:07:38-0500
_audit_creation_method            fapswitch 2.2
_symmetry_space_group_name_H-M    P1
_symmetry_Int_Tables_number       1
_space_group_crystal_system       triclinic
_cell_length_a                    17.380009
_cell_length_b                    17.397022
_cell_length_c                    17.234441
_cell_angle_alpha                 90.104449
_cell_angle_beta                  89.997281
_cell_angle_gamma                 90.096635
_cell_volume                      5210.99638062

loop_
_atom_site_label
_atom_site_type_symbol
_atom_type_description
_atom_site_fract_x
_atom_site_fract_y
_atom_site_fract_z
_atom_type_partial_charge
C1    C     C_R   0.394491 0.303776 0.895464 -0.026111
C2    C     C_R   0.197782 0.894740 0.400154 -0.132341
C3    C     C_R   0.806071 0.859088 0.176578 0.429774
C4    C     C_R   0.156728 0.183356 0.822477 0.436509
C5    C     C_R   0.312735 0.776597 0.672984 0.434367
C6    C     C_R   0.848913 0.810638 0.821178 0.410441
C7    C     C_R   0.689669 0.258664 0.627627 0.474198
C8    C     C_R   0.645122 0.305159 0.678488 0.429987
C9    C     C_R   0.804731 0.763842 0.871284 0.504873
C10   C     C_R   0.360314 0.716602 0.695986 0.460953
C11   C     C_R   0.200329 0.234638 0.868767 0.478032
C12   C     C_R   0.756467 0.814281 0.128500 0.465791
C13   C     C_R   0.069425 0.161304 0.352096 -0.031141
C14   C     C_R   0.693805 0.359887 0.324665 0.339344
C15   C     C_R   0.244778 0.184682 0.129351 0.467678
C16   C     C_R   0.306815 0.641039 0.325272 0.343546
C17   C     C_2   0.918001 0.253169 0.772721 1.171234
C18   C     C_2   0.660746 0.861249 0.621622 1.165467
C19   C     C_2   0.087779 0.714062 0.759573 1.165903
C20   C     C_2   0.331429 0.133721 0.618540 1.171388
C21   C     C_2   0.984366 0.678467 0.245207 1.189279
C22   C     C_2   0.725995 0.087708 0.235579 1.194238
C23   C     C_2   0.015716 0.320679 0.243716 1.191967
C24   C     C_R   0.801631 0.106251 0.403040 -0.149955
C25   C     C_2   0.275282 0.912485 0.234023 1.193702
C26   C     C_2   0.474399 0.834653 0.237884 1.208247
C27   C     C_2   0.197073 0.428277 0.256815 1.221888
C28   C     C_2   0.526716 0.165240 0.238011 1.213830
C29   C     C_2   0.802157 0.572341 0.258179 1.219387
C30   C     C_2   0.364265 0.340556 0.679128 1.193430
C31   C     C_2   0.172069 0.518291 0.746439 1.222295
C32   C     C_2   0.645315 0.658191 0.707988 1.116934
C33   C     C_2   0.848761 0.449670 0.797615 1.203136
C34   C     C_R   0.894355 0.197991 0.597566 -0.159550
C35   C     C_R   0.162600 0.071493 0.647567 -0.180170
C36   C     C_R   0.105747 0.804925 0.605643 -0.164986
C37   C     C_R   0.835282 0.925517 0.646726 -0.174687
C38   C     C_3   0.875923 0.319664 0.736405 0.043609
C39   C     C_3   0.697996 0.791946 0.659574 0.069872
C40   C     C_3   0.132916 0.656370 0.711742 0.028568
C41   C     C_R   0.664101 0.427952 0.853389 -0.113376
C42   C     C_3   0.297313 0.208303 0.648393 0.065767
C43   C     C_3   0.899643 0.679508 0.265553 0.037724
C44   C     C_3   0.663605 0.128644 0.279244 0.052071
C45   C     C_3   0.100359 0.320299 0.264694 0.045234
C46   C     C_3   0.337435 0.871885 0.278166 0.056273
C47   C     C_3   0.389131 0.821862 0.225167 0.032036
C48   C     C_3   0.151192 0.371065 0.211296 0.034938
C49   C     C_3   0.612026 0.178085 0.225720 0.023260
C50   C     C_3   0.848712 0.628503 0.212301 0.038809
C51   C     C_3   0.351070 0.257587 0.701726 0.085484
C52   C     C_R   0.606005 0.697107 0.899362 -0.085969
C53   C     C_3   0.183028 0.603213 0.762315 0.004716
C54   C     C_3   0.646709 0.745190 0.716575 0.103522
C55   C     C_3   0.826213 0.365920 0.794450 0.020985
C56   C     C_R   0.416148 0.673155 0.858076 0.510689
C57   C     C_R   0.303036 0.392965 0.898256 0.441117
C58   C     C_R   0.584223 0.327502 0.856951 0.527320
C59   C     C_R   0.697535 0.608384 0.901318 0.417048
C60   C     C_R   0.390555 0.302421 0.098274 0.406245
C61   C     C_R   0.329472 0.582520 0.144811 0.484788
C62   C     C_R   0.609788 0.697470 0.098578 0.411830
C63   C     C_R   0.339037 0.570712 0.851724 -0.037095
C64   C     C_R   0.670743 0.417363 0.144655 0.491316
C65   C     C_R   0.889585 0.197754 0.402413 0.427297
C66   C     C_R   0.831259 0.918206 0.354055 0.468001
C67   C     C_R   0.110763 0.802390 0.402261 0.423271
C68   C     C_R   0.169170 0.082010 0.354323 0.470829
C69   C     C_R   0.918262 0.827555 0.642389 0.513890
C70   C     C_R   0.802771 0.109603 0.599869 0.470422
C71   C     C_R   0.080012 0.169717 0.644227 0.487259
C72   C     C_R   0.197135 0.894000 0.601847 0.465005
C73   C     C_R   0.318407 0.317656 0.880156 0.027098
C74   C     C_R   0.430148 0.661122 0.148283 -0.050878
C75   C     C_R   0.638092 0.366675 0.811096 -0.003551
C76   C     C_R   0.682772 0.684852 0.886596 -0.012047
C77   C     C_R   0.363553 0.633358 0.810799 -0.044845
C78   C     C_R   0.369770 0.635010 0.191845 0.005586
C79   C     C_R   0.687725 0.682900 0.113457 0.029806
C80   C     C_R   0.630756 0.364655 0.191492 0.005722
C81   C     C_R   0.312531 0.316621 0.112806 0.031911
C82   C     C_R   0.871862 0.865630 0.307576 -0.003623
C83   C     C_R   0.188748 0.817308 0.387664 0.043980
C84   C     C_R   0.128721 0.134546 0.307933 -0.008275
C85   C     C_R   0.697685 0.605709 0.099850 -0.077039
C86   C     C_R   0.811231 0.183590 0.389537 0.049591
C87   C     C_R   0.817842 0.187391 0.612409 0.047458
C88   C     C_R   0.132911 0.131075 0.690125 0.008886
C89   C     C_R   0.181393 0.819283 0.626125 0.057811
C90   C     C_R   0.864158 0.864532 0.687901 0.008407
C91   C     C_R   0.759752 0.346042 0.742206 -0.014497
C92   C     C_R   0.699515 0.772077 0.780124 -0.012991
C93   C     C_R   0.250947 0.637878 0.720401 -0.013348
C94   C     C_R   0.291615 0.245834 0.763916 -0.052999
C95   C     C_R   0.809736 0.701571 0.186350 -0.024104
C96   C     C_R   0.570275 0.338502 0.148057 -0.047252
C97   C     C_R   0.643756 0.245635 0.269631 -0.040853
C98   C     C_R   0.191010 0.297963 0.186281 -0.024109
C99   C     C_R   0.357035 0.754695 0.269271 -0.045243
C100  C     C_R   0.311942 0.798555 0.316130 -0.028636
C101  C     C_R   0.144912 0.254313 0.231875 -0.050754
C102  C     C_R   0.688794 0.202331 0.316956 -0.006659
C103  C     C_R   0.856119 0.745498 0.231584 -0.043041
C104  C     C_R   0.248342 0.200059 0.719447 -0.048444
C105  C     C_R   0.206668 0.686459 0.675610 0.047979
C106  C     C_R   0.743519 0.813037 0.730743 -0.056803
C107  C     C_R   0.302267 0.393859 0.099162 -0.087894
C108  C     C_R   0.802465 0.301510 0.694544 0.004579
C109  C     C_R   0.680212 0.339095 0.743899 -0.065225
C110  C     C_R   0.730599 0.739720 0.846864 -0.120136
C111  C     C_R   0.327159 0.657506 0.738748 -0.062593
C112  C     C_R   0.269616 0.265923 0.838545 -0.099163
C113  C     C_R   0.750485 0.733365 0.141420 -0.065321
C114  C     C_R   0.656286 0.324153 0.261691 -0.003666
C115  C     C_R   0.250263 0.265936 0.141386 -0.061578
C116  C     C_R   0.344322 0.676070 0.261891 -0.004855
C117  C     C_R   0.252736 0.767014 0.361293 -0.052151
C118  C     C_R   0.930960 0.838835 0.351956 -0.036896
C119  C     C_R   0.155222 0.175662 0.238756 -0.043330
C120  C     C_R   0.747933 0.234253 0.362074 -0.025413
C121  C     C_R   0.845630 0.824227 0.238263 -0.040026
C122  C     C_R   0.180021 0.169084 0.745569 -0.064656
C123  C     C_R   0.234319 0.760582 0.656241 -0.087494
C124  C     C_R   0.819628 0.828902 0.747324 -0.056223
C125  C     C_R   0.769300 0.248812 0.643233 -0.063837
C126  C     C_R   0.259836 0.686667 0.375639 0.419938
C127  C     C_R   0.194882 0.140370 0.177377 0.429737
C128  C     C_R   0.741434 0.315106 0.375006 0.418506
Cl1   Cl    Cl    0.934827 0.379123 0.674595 -0.373089
Cl2   Cl    Cl    0.101308 0.415139 0.131345 -0.353781
Cl3   Cl    Cl    0.637878 0.178006 0.124233 -0.428405
Cl4   Cl    Cl    0.898675 0.583040 0.133037 -0.358883
Cl5   Cl    Cl    0.438213 0.210832 0.728735 -0.435339
Cl6   Cl    Cl    0.178254 0.624486 0.865169 -0.441418
Cl7   Cl    Cl    0.553708 0.785543 0.731408 -0.433081
Cl8   Cl    Cl    0.814575 0.324665 0.889547 -0.427983
Cl9   Cl    Cl    0.428297 0.773002 0.860306 -0.400429
Cl10  Cl    Cl    0.211701 0.432568 0.914863 -0.473450
Cl11  Cl    Cl    0.570089 0.227906 0.853638 -0.409701
Cl12  Cl    Cl    0.751417 0.736090 0.590282 -0.396029
Cl13  Cl    Cl    0.787596 0.569426 0.923278 -0.512045
Cl14  Cl    Cl    0.435180 0.213587 0.082633 -0.509231
Cl15  Cl    Cl    0.230082 0.568840 0.150004 -0.530558
Cl16  Cl    Cl    0.565961 0.786666 0.083106 -0.506077
Cl17  Cl    Cl    0.770014 0.431694 0.150080 -0.553426
Cl18  Cl    Cl    0.932651 0.287911 0.415841 -0.498823
Cl19  Cl    Cl    0.732522 0.932636 0.345612 -0.541951
Cl20  Cl    Cl    0.068897 0.711935 0.417209 -0.476188
Cl21  Cl    Cl    0.268125 0.068453 0.346327 -0.529231
Cl22  Cl    Cl    0.935441 0.728788 0.645540 -0.456582
Cl23  Cl    Cl    0.075564 0.606440 0.640341 -0.348522
Cl24  Cl    Cl    0.711726 0.066524 0.592270 -0.519596
Cl25  Cl    Cl    0.068084 0.268911 0.648159 -0.475934
Cl26  Cl    Cl    0.284689 0.927544 0.563112 -0.553882
Cl27  Cl    Cl    0.227625 0.647105 0.463953 -0.414724
Cl28  Cl    Cl    0.159425 0.051481 0.145106 -0.454399
Cl29  Cl    Cl    0.776783 0.357686 0.460788 -0.414092
Cl30  Cl    Cl    0.840874 0.948111 0.144320 -0.452384
Cl31  Cl    Cl    0.076691 0.134397 0.861399 -0.431143
Cl32  Cl    Cl    0.340589 0.865180 0.714078 -0.336162
Cl33  Cl    Cl    0.938667 0.847186 0.850864 -0.468780
Cl34  Cl    Cl    0.245873 0.258782 0.573816 -0.416378
Cl35  Cl    Cl    0.647984 0.224572 0.540876 -0.406306
Cl36  Cl    Cl    0.551487 0.332673 0.653333 -0.455038
Cl37  Cl    Cl    0.843068 0.737392 0.962062 -0.398540
Cl38  Cl    Cl    0.433433 0.690828 0.631137 -0.399087
Cl39  Cl    Cl    0.166355 0.259527 0.961776 -0.411770
Cl40  Cl    Cl    0.719740 0.857356 0.043668 -0.368479
Cl41  Cl    Cl    0.662511 0.452236 0.351788 -0.421944
Cl42  Cl    Cl    0.282954 0.139740 0.046004 -0.355632
Cl43  Cl    Cl    0.336746 0.548379 0.352478 -0.418183
Cl44  Cl    Cl    0.882656 0.669834 0.368527 -0.406564
Cl45  Cl    Cl    0.611644 0.069129 0.346897 -0.413497
Cl46  Cl    Cl    0.116438 0.331616 0.367598 -0.400283
Cl47  Cl    Cl    0.389269 0.931983 0.345666 -0.424428
Cl48  Cl    Cl    0.363801 0.821454 0.123532 -0.436123
H1    H     H_    0.421474 0.248018 0.896792 0.239501
H2    H     H_    0.251660 0.923910 0.406145 0.239663
H3    H     H_    0.025652 0.199934 0.333437 0.154522
H4    H     H_    0.747480 0.078175 0.412588 0.237237
H5    H     H_    0.922035 0.252486 0.588446 0.252485
H6    H     H_    0.207744 0.032915 0.665248 0.205925
H7    H     H_    0.080375 0.749563 0.597613 0.233643
H8    H     H_    0.790444 0.963430 0.665851 0.206023
H9    H     H_    0.920508 0.139923 0.798100 0.376163
H10   H     H_    0.625719 0.912042 0.522554 0.393648
H11   H     H_    0.088459 0.815353 0.817466 0.396645
H12   H     H_    0.704416 0.470548 0.834765 0.164790
H13   H     H_    0.371175 0.074133 0.526306 0.399830
H14   H     H_    0.074791 0.731747 0.195112 0.372055
H15   H     H_    0.834619 0.092531 0.192557 0.393991
H16   H     H_    0.915383 0.378398 0.246909 0.380960
H17   H     H_    0.167659 0.906117 0.188643 0.391261
H18   H     H_    0.573937 0.797776 0.285132 0.371122
H19   H     H_    0.189853 0.521647 0.327074 0.386116
H20   H     H_    0.426970 0.202038 0.285010 0.372718
H21   H     H_    0.808864 0.480999 0.330843 0.385176
H22   H     H_    0.384701 0.449351 0.714468 0.358980
H23   H     H_    0.578247 0.752489 0.901690 0.252648
H24   H     H_    0.211550 0.421310 0.696284 0.363124
H25   H     H_    0.581899 0.560990 0.704045 0.346125
H26   H     H_    0.837765 0.556101 0.752987 0.399278
H27   H     H_    0.301594 0.526436 0.830737 0.158668
H28   H     H_    0.473829 0.699823 0.167668 0.161075
H29   H     H_    0.751904 0.577320 0.092881 0.231092
H30   H     H_    0.526717 0.299770 0.167486 0.160886
H31   H     H_    0.247971 0.422036 0.091851 0.228197
H32   H     H_    0.974757 0.799970 0.333518 0.153404
N1    N     N_R   0.425360 0.368540 0.922560 -0.104884
N2    N     N_R   0.131460 0.925360 0.422560 -0.093865
N3    N     N_R   0.074640 0.131460 0.422560 -0.052209
N4    N     N_R   0.868540 0.074640 0.422560 -0.096306
N5    N     N_R   0.925360 0.131460 0.577440 -0.098019
N6    N     N_R   0.131460 0.074640 0.577440 -0.059627
N7    N     N_R   0.074640 0.868540 0.577440 -0.092821
N8    N     N_R   0.868540 0.925360 0.577440 -0.060802
N9    N     N_R   0.425340 0.631500 0.922560 -0.095278
N10   N     N_R   0.368500 0.425340 0.922560 -0.114414
N11   N     N_R   0.574660 0.368500 0.922560 -0.094722
N12   N     N_R   0.631460 0.425360 0.922560 -0.054579
N13   N     N_R   0.631500 0.574660 0.922560 -0.118061
N14   N     N_R   0.425340 0.368500 0.077440 -0.112848
N15   N     N_R   0.368500 0.574660 0.077440 -0.085205
N16   N     N_R   0.574660 0.631500 0.077440 -0.111059
N17   N     N_R   0.631500 0.425340 0.077440 -0.082970
N18   N     N_R   0.925340 0.131500 0.422560 -0.112540
N19   N     N_R   0.868500 0.925340 0.422560 -0.085315
N20   N     N_R   0.074660 0.868500 0.422560 -0.112837
N21   N     N_R   0.131500 0.074660 0.422560 -0.083302
N22   N     N_R   0.925340 0.868500 0.577440 -0.080251
N23   N     N_R   0.574640 0.631460 0.922560 -0.103969
N24   N     N_R   0.868500 0.074660 0.577440 -0.111544
N25   N     N_R   0.074660 0.131500 0.577440 -0.072334
N26   N     N_R   0.131500 0.925340 0.577440 -0.109909
N27   N     N_R   0.368540 0.574640 0.922560 -0.056527
N28   N     N_R   0.425360 0.631460 0.077440 -0.055896
N29   N     N_R   0.631460 0.574640 0.077440 -0.096441
N30   N     N_R   0.574640 0.368540 0.077440 -0.056206
N31   N     N_R   0.368540 0.425360 0.077440 -0.098460
N32   N     N_R   0.925360 0.868540 0.422560 -0.053344
Ni1   Ni    Ni4+2 0.500000 0.369720 0.000000 0.322568
Ni2   Ni    Ni4+2 0.630280 0.500000 0.000000 0.317508
Ni3   Ni    Ni4+2 0.500000 0.630280 0.000000 0.322925
Ni4   Ni    Ni4+2 0.369720 0.500000 0.000000 0.323894
Ni5   Ni    Ni4+2 1.000000 0.869720 0.500000 0.333290
Ni6   Ni    Ni4+2 0.130280 0.000000 0.500000 0.296624
Ni7   Ni    Ni4+2 1.000000 0.130280 0.500000 0.330027
Ni8   Ni    Ni4+2 0.869720 0.000000 0.500000 0.290562
O1    O     O_2   0.977852 0.265697 0.807687 -0.482402
O2    O     O_R   0.017760 0.739585 0.204584 -0.768178
O3    O     O_2   0.709673 0.029367 0.199736 -0.456022
O4    O     O_R   0.799354 0.120530 0.229518 -0.792096
O5    O     O_2   0.986824 0.266948 0.208159 -0.588550
O6    O     O_R   0.970935 0.384291 0.263853 -0.613775
O7    O     O_2   0.291552 0.971114 0.198852 -0.456171
O8    O     O_R   0.202390 0.878864 0.226564 -0.806876
O9    O     O_2   0.504841 0.892622 0.211969 -0.429098
O10   O     O_R   0.517837 0.782211 0.280976 -0.770398
O11   O     O_2   0.265991 0.419462 0.267344 -0.582000
O12   O     O_R   0.887061 0.178947 0.770621 -0.787184
O13   O     O_R   0.157374 0.489465 0.291117 -0.623240
O14   O     O_2   0.496434 0.107239 0.211780 -0.430364
O15   O     O_R   0.483047 0.217686 0.281053 -0.761730
O16   O     O_2   0.733257 0.581811 0.268297 -0.581824
O17   O     O_R   0.841358 0.511660 0.293644 -0.656211
O18   O     O_2   0.373792 0.357755 0.611019 -0.452786
O19   O     O_R   0.372583 0.396723 0.736550 -0.832189
O20   O     O_2   0.114382 0.485812 0.770566 -0.440461
O21   O     O_R   0.226269 0.477353 0.703049 -0.774002
O22   O     O_2   0.705424 0.621953 0.704549 -0.563617
O23   O     O_2   0.639399 0.915803 0.661017 -0.503770
O24   O     O_R   0.575217 0.618768 0.707849 -0.717378
O25   O     O_2   0.902104 0.469438 0.839457 -0.422907
O26   O     O_R   0.814227 0.502951 0.747995 -0.726256
O27   O     O_R   0.650750 0.862796 0.541130 -0.671969
O28   O     O_2   0.025852 0.695196 0.787317 -0.466376
O29   O     O_R   0.120819 0.784684 0.779848 -0.774897
O30   O     O_2   0.346359 0.081212 0.663220 -0.515485
O31   O     O_R   0.347288 0.125656 0.539412 -0.658086
O32   O     O_2   0.023407 0.622938 0.263420 -0.442117

loop_
_geom_bond_atom_site_label_1
_geom_bond_atom_site_label_2
_ccdc_geom_bond_type
C44   C49   S    
C33   C55   S    
C39   C106  S    
C11   C112  A    
C30   C51   S    
C81   C107  A    
C67   C83   A    
C23   C45   S    
C64   Cl17  S    
N10   Ni4   S    
C29   O17   S    
C13   N3    A    
C32   O22   D    
C66   C82   A    
C20   O31   S    
C6    C124  A    
N4    Ni8   S    
C48   Cl2   S    
N9    N27   A    
C6    C9    A    
N9    Ni3   S    
N2    N20   A    
C25   O7    D    
C63   N27   A    
C85   H29   S    
C7    C8    A    
C35   H6    S    
C22   O4    S    
H13   O31   S    
C13   C84   A    
C63   H27   S    
N29   Ni2   S    
C69   Cl22  S    
N28   Ni3   S    
H19   O13   S    
C20   O30   D    
H26   O26   S    
C14   Cl41  S    
C36   N7    A    
C7    Cl35  S    
C50   Cl4   S    
C50   C95   S    
C4    Cl31  S    
C104  C122  A    
C57   N10   A    
C54   Cl7   S    
C57   C73   A    
C55   Cl8   S    
C27   O13   S    
C58   C75   A    
N14   N31   A    
H14   O2    S    
C29   O16   D    
C47   C99   S    
C105  C123  A    
C34   H5    S    
C77   C111  S    
C35   C88   A    
N3    Ni7   S    
N5    Ni7   S    
C52   N23   A    
N12   Ni2   S    
C56   N9    A    
C55   C91   S    
C68   Cl21  S    
C59   N13   A    
C93   C105  A    
N19   Ni8   S    
C21   C43   S    
C1    H1    S    
C61   Cl15  S    
C22   C44   S    
C38   C55   S    
C99   C100  A    
C72   N26   A    
C26   O10   S    
C66   N19   A    
C24   H4    S    
C3    Cl30  S    
N8    N22   A    
C53   C93   S    
N31   Ni4   S    
C30   O18   D    
C62   N16   A    
C108  C125  A    
C80   C96   A    
N3    N21   A    
N16   N29   A    
C61   C78   A    
C82   C121  S    
C107  H31   S    
C47   Cl48  S    
C23   O5    D    
C42   C51   S    
N13   Ni2   S    
C60   Cl14  S    
C126  Cl27  S    
C22   O3    D    
C3    C12   A    
C94   C104  A    
C15   C127  A    
C11   Cl39  S    
N17   N30   A    
C64   C80   A    
C81   C115  S    
C2    C83   A    
N7    N26   A    
C90   C124  S    
C23   O6    S    
C69   N22   A    
C70   C87   A    
C16   C116  A    
C32   C54   S    
C18   O23   D    
N14   Ni1   S    
C95   C103  A    
C128  Cl29  S    
C70   N24   A    
C29   C50   S    
H11   O29   S    
C24   N4    A    
H24   O21   S    
C82   C118  A    
C2    N2    A    
C25   O8    S    
C1    N1    A    
C68   C84   A    
C38   Cl1   S    
C62   C79   A    
C65   C86   A    
C72   Cl26  S    
C44   Cl45  S    
C48   C98   S    
C88   C122  S    
C8    Cl36  S    
C21   O32   D    
N1    Ni1   S    
C21   O2    S    
C36   H7    S    
C44   C102  S    
H10   O27   S    
N25   Ni7   S    
N20   Ni5   S    
C89   C123  S    
N17   Ni2   S    
C14   C114  A    
C37   H8    S    
C107  N31   A    
C65   N18   A    
C7    C125  A    
C56   C77   A    
N11   Ni1   S    
C41   H12   S    
C42   C104  S    
C91   C109  A    
H18   O10   S    
H25   O24   S    
C101  C119  A    
C118  H32   S    
C18   C39   S    
H17   O8    S    
C54   C92   S    
C56   Cl9   S    
C41   C75   A    
C49   Cl3   S    
C60   C81   A    
H9    O12   S    
C96   H30   S    
C19   O28   D    
N30   Ni1   S    
C6    Cl33  S    
N15   Ni4   S    
C10   Cl38  S    
C5    Cl32  S    
N13   N23   A    
C42   Cl34  S    
H15   O4    S    
C4    C122  A    
C10   C111  A    
N6    Ni6   S    
C52   H23   S    
N15   N28   A    
C31   C53   S    
C4    C11   A    
N22   Ni5   S    
C66   Cl19  S    
N5    N24   A    
C45   C101  S    
C58   Cl11  S    
C93   C111  A    
C58   N11   A    
N21   Ni6   S    
C26   C47   S    
C15   Cl42  S    
C92   C106  A    
C19   O29   S    
C80   C114  S    
N7    Ni5   S    
H21   O17   S    
H16   O6    S    
C79   C113  S    
C36   C89   A    
C74   C78   A    
N32   Ni5   S    
C15   C115  A    
C32   O24   S    
N6    N25   A    
N1    N10   A    
C74   N28   A    
C69   C90   A    
C103  C121  A    
N16   Ni3   S    
C99   C116  A    
C41   N12   A    
C102  C120  A    
C68   N21   A    
C73   C112  S    
C12   C113  A    
C63   C77   A    
C45   C48   S    
C118  N32   A    
C9    C110  A    
N11   N12   A    
C70   Cl24  S    
C46   C100  S    
C46   C47   S    
C37   N8    A    
C87   C125  S    
C37   C90   A    
C31   O20   D    
C46   Cl47  S    
C96   N30   A    
C91   C108  A    
H20   O15   S    
C78   C116  S    
C53   Cl6   S    
C97   C102  A    
C62   Cl16  S    
C52   C76   A    
C34   N5    A    
C60   N14   A    
C127  Cl28  S    
C12   Cl40  S    
C20   C42   S    
C43   Cl44  S    
C120  C128  A    
C43   C50   S    
C30   O19   S    
C24   C86   A    
N8    Ni8   S    
C28   O15   S    
C27   O11   D    
C5    C123  A    
C18   O27   S    
C61   N15   A    
C98   C101  A    
C31   O21   S    
C1    C73   A    
C64   N17   A    
C33   O25   D    
C9    Cl37  S    
C65   Cl18  S    
N4    N18   A    
C5    C10   A    
C13   H3    S    
C45   Cl46  S    
N26   Ni6   S    
C72   C89   A    
C51   Cl5   S    
C16   Cl43  S    
C92   C110  A    
C98   C115  A    
C26   O9    D    
C74   H28   S    
C67   N20   A    
C95   C113  A    
C84   C119  S    
C28   O14   D    
N19   N32   A    
C25   C46   S    
C17   O1    D    
C79   C85   A    
C28   C49   S    
C57   Cl10  S    
C75   C109  S    
C85   N29   A    
C34   C87   A    
C71   N25   A    
C27   C48   S    
C38   C108  S    
C40   Cl23  S    
C35   N6    A    
C43   C103  S    
N27   Ni4   S    
C83   C117  S    
C19   C40   S    
C51   C94   S    
C49   C97   S    
C71   C88   A    
C39   C54   S    
N23   Ni3   S    
H22   O19   S    
C17   C38   S    
C59   Cl13  S    
C76   C110  S    
C40   C53   S    
C33   O26   S    
C106  C124  A    
C67   Cl20  S    
N2    Ni6   S    
C39   Cl12  S    
C117  C126  A    
C86   C120  S    
C100  C117  A    
C2    H2    S    
C71   Cl25  S    
N24   Ni8   S    
C97   C114  A    
C8    C109  A    
C14   C128  A    
C16   C126  A    
C59   C76   A    
C94   C112  A    
C3    C121  A    
C17   O12   S    
C119  C127  A    
C40   C105  S    
N18   Ni7   S    
