data_mof_unit_45370.cif
_audit_creation_date              2012-12-11T17:39:22-0500
_audit_creation_method            fapswitch 2.2
_symmetry_space_group_name_H-M    P1
_symmetry_Int_Tables_number       1
_space_group_crystal_system       triclinic
_cell_length_a                    24.872466
_cell_length_b                    7.210336
_cell_length_c                    22.606989
_cell_angle_alpha                 89.999878
_cell_angle_beta                  96.500633
_cell_angle_gamma                 89.999784
_cell_volume                      4028.24434768

loop_
_atom_site_label
_atom_site_type_symbol
_atom_type_description
_atom_site_fract_x
_atom_site_fract_y
_atom_site_fract_z
_atom_type_partial_charge
O1    O     O_R   0.801910 0.607900 0.699140 -0.530985
O2    O     O_R   0.198090 0.392100 0.300860 -0.533588
O3    O     O_R   0.698090 0.107900 0.800860 -0.530990
O4    O     O_R   0.301910 0.892100 0.199140 -0.533590
O5    O     O_R   0.692320 0.276320 0.686350 -0.528971
O6    O     O_R   0.307680 0.723680 0.313650 -0.532951
O7    O     O_R   0.807680 0.776320 0.813650 -0.528976
O8    O     O_R   0.192320 0.223680 0.186350 -0.532953
C1    C     C_R   0.673851 0.445624 0.671304 0.710205
C2    C     C_R   0.326197 0.554413 0.328619 0.706773
C3    C     C_R   0.826149 0.945623 0.828696 0.710213
C4    C     C_R   0.173803 0.054413 0.171380 0.706768
O9    O     O_R   0.801140 0.278070 0.692060 -0.543238
O10   O     O_R   0.198860 0.721930 0.307940 -0.540499
O11   O     O_R   0.698860 0.778070 0.807940 -0.543241
O12   O     O_R   0.301140 0.221930 0.192060 -0.540498
O13   O     O_R   0.807690 0.109570 0.806600 -0.532580
O14   O     O_R   0.192310 0.890430 0.193400 -0.530469
O15   O     O_R   0.692310 0.609570 0.693400 -0.532582
O16   O     O_R   0.307690 0.390430 0.306600 -0.530467
C5    C     C_R   0.817591 0.447590 0.677727 0.722147
C6    C     C_R   0.180903 0.552832 0.320368 0.721157
C7    C     C_R   0.682409 0.947591 0.822274 0.722155
C8    C     C_R   0.319097 0.052831 0.179632 0.721153
O17   O     O_3   0.752020 0.441970 0.787570 -0.377567
O18   O     O_3   0.247980 0.558030 0.212430 -0.373461
O19   O     O_3   0.747980 0.941970 0.712430 -0.377561
O20   O     O_3   0.252020 0.058030 0.287570 -0.373458
V1    V     V_3+5 0.749620 0.166420 0.743030 1.445343
V2    V     V_3+5 0.250380 0.833580 0.256970 1.446599
V3    V     V_3+5 0.750380 0.666420 0.756970 1.445331
V4    V     V_3+5 0.249620 0.333580 0.243030 1.446600
C9    C     C_R   0.399938 0.164446 0.050556 0.474369
C10   C     C_R   0.563761 0.817344 0.907220 0.477775
C11   C     C_R   0.100053 0.664462 0.449436 0.474353
C12   C     C_R   0.936249 0.317373 0.592793 0.477792
C13   C     C_R   0.361890 0.172123 0.092046 -0.265031
C14   C     C_R   0.604919 0.810632 0.869386 -0.267377
C15   C     C_R   0.138104 0.672135 0.407949 -0.265018
C16   C     C_R   0.895092 0.310655 0.630627 -0.267358
H1    H     H_    0.331602 0.280731 0.087972 0.182115
H2    H     H_    0.608299 0.689247 0.841881 0.186692
H3    H     H_    0.168389 0.780749 0.412020 0.182135
H4    H     H_    0.891719 0.189286 0.658141 0.186671
C17   C     C_R   0.361738 0.040846 0.138051 -0.125628
C18   C     C_R   0.641057 0.959545 0.865614 -0.126092
C19   C     C_R   0.138260 0.540848 0.361947 -0.125633
C20   C     C_R   0.858943 0.459544 0.634386 -0.126015
C21   C     C_R   0.402338 0.900724 0.143135 0.132468
C22   C     C_R   0.636159 0.116937 0.902847 0.152166
C23   C     C_R   0.097662 0.400719 0.356864 0.132482
C24   C     C_R   0.863828 0.616913 0.597140 0.152144
C25   C     C_R   0.440577 0.894693 0.101803 -0.114630
C26   C     C_R   0.595060 0.121659 0.940786 -0.155772
C27   C     C_R   0.059421 0.394692 0.398194 -0.114611
C28   C     C_R   0.904926 0.621637 0.559199 -0.156312
H5    H     H_    0.471542 0.788076 0.105764 0.171180
H6    H     H_    0.591414 0.241098 0.969131 0.191470
H7    H     H_    0.028458 0.288070 0.394235 0.171178
H8    H     H_    0.908562 0.741057 0.530844 0.191432
C29   C     C_R   0.439841 0.023915 0.055539 -0.075854
C30   C     C_R   0.558404 0.975567 0.942774 -0.088628
C31   C     C_R   0.060154 0.523923 0.444455 -0.075847
C32   C     C_R   0.941593 0.475572 0.557224 -0.088612
C33   C     C_1   0.481104 0.008346 0.015000 0.166900
C34   C     C_1   0.516059 0.992391 0.981970 0.158304
C35   C     C_1   0.018890 0.508354 0.484994 0.166902
C36   C     C_1   0.983936 0.492399 0.518025 0.158251
C37   C     C_3   0.963386 0.895579 0.024540 -0.026907
C38   C     C_3   0.036386 0.104789 0.975840 -0.040621
C39   C     C_3   0.536614 0.395579 0.475461 -0.026895
C40   C     C_3   0.463613 0.604785 0.524160 -0.040444
C41   C     C_3   0.982838 0.089580 0.046455 0.503281
C42   C     C_3   0.016946 0.910785 0.953931 0.490079
C43   C     C_3   0.517161 0.589579 0.453546 0.503278
C44   C     C_3   0.483054 0.410781 0.546069 0.490060
C45   C     C_1   0.127995 0.051544 0.125485 -0.146431
C46   C     C_1   0.871872 0.948610 0.874726 -0.142834
C47   C     C_1   0.372005 0.551542 0.374515 -0.146430
C48   C     C_1   0.628128 0.448612 0.625274 -0.142842
C49   C     C_3   0.022872 0.839777 0.019002 -0.018040
C50   C     C_3   0.976900 0.160593 0.981379 -0.016755
C51   C     C_3   0.477129 0.339775 0.480998 -0.018066
C52   C     C_3   0.523098 0.660592 0.518621 -0.016787
C53   C     C_3   0.042189 0.034265 0.041030 -0.079202
C54   C     C_3   0.957583 0.966086 0.959338 -0.080461
C55   C     C_3   0.457810 0.534262 0.458970 -0.079202
C56   C     C_3   0.542416 0.466085 0.540663 -0.080467
C57   C     C_1   0.089441 0.050358 0.087311 0.098214
C58   C     C_1   0.910367 0.949920 0.912990 0.096949
C59   C     C_1   0.410559 0.550355 0.412688 0.098222
C60   C     C_1   0.589633 0.449921 0.587010 0.096965
S1    S     S_3+6 0.396658 0.337722 0.994873 0.074918
O21   O     O_2   0.429464 0.501218 0.019179 -0.299842
O22   O     O_2   0.418368 0.268139 0.939577 -0.281005
O23   O     O_3   0.332027 0.404942 0.977654 -0.493242
H9    H     H_    0.333907 0.513326 0.951038 0.394831
S2    S     S_3+6 0.520374 0.624500 0.910291 0.063523
O24   O     O_2   0.529871 0.541632 0.971546 -0.327736
O25   O     O_2   0.462520 0.687239 0.898533 -0.254949
O26   O     O_3   0.532728 0.463824 0.859592 -0.495860
H10   H     H_    0.508453 0.358912 0.866400 0.400393
S3    S     S_3+6 0.103326 0.837750 0.505115 0.074930
O27   O     O_2   0.070506 0.001210 0.480811 -0.299808
O28   O     O_2   0.081629 0.768153 0.560416 -0.280987
O29   O     O_3   0.167952 0.905031 0.522323 -0.493259
H11   H     H_    0.166072 0.013243 0.549008 0.394884
S4    S     S_3+6 0.979650 0.124557 0.589738 0.063688
O30   O     O_2   0.970119 0.041554 0.528504 -0.327898
O31   O     O_2   0.037502 0.187347 0.601435 -0.254767
O32   O     O_3   0.967343 0.963988 0.640490 -0.495648
H12   H     H_    0.991382 0.858643 0.633462 0.400238
C61   C     C_3   0.407263 0.760088 0.192939 -0.638639
H13   H     H_    0.445430 0.679334 0.194412 0.214785
H14   H     H_    0.407344 0.831108 0.236545 0.207860
H15   H     H_    0.373297 0.659646 0.186467 0.207037
C62   C     C_3   0.674357 0.279985 0.904468 -0.654882
H16   H     H_    0.668672 0.376425 0.941583 0.194852
H17   H     H_    0.716952 0.231062 0.911010 0.184653
H18   H     H_    0.666799 0.360575 0.862535 0.226774
C63   C     C_3   0.092741 0.260071 0.307064 -0.638637
H19   H     H_    0.054575 0.179311 0.305592 0.214779
H20   H     H_    0.092660 0.331081 0.263456 0.207859
H21   H     H_    0.126709 0.159635 0.313541 0.207042
C64   C     C_3   0.825619 0.779932 0.595509 -0.655032
H22   H     H_    0.831294 0.876349 0.558384 0.194868
H23   H     H_    0.783027 0.730974 0.588974 0.184701
H24   H     H_    0.833174 0.860559 0.637435 0.226747
S5    S     S_3+6 0.960298 0.208387 0.108285 -0.014539
O33   O     O_2   0.965675 0.082537 0.161600 -0.319392
O34   O     O_2   0.994201 0.378615 0.121937 -0.358740
O35   O     O_3   0.895146 0.269500 0.091475 -0.514529
H25   H     H_    0.887045 0.351119 0.124575 0.370578
S6    S     S_3+6 0.039659 0.791972 0.892202 0.020918
O36   O     O_2   0.005944 0.621284 0.878622 -0.347990
O37   O     O_2   0.034208 0.917552 0.838820 -0.285076
O38   O     O_3   0.104866 0.731670 0.909114 -0.503279
H26   H     H_    0.113171 0.650910 0.875892 0.386180
S7    S     S_3+6 0.539703 0.708383 0.391716 -0.014537
O39   O     O_2   0.534314 0.582546 0.338397 -0.319397
O40   O     O_2   0.505809 0.878638 0.378072 -0.358744
O41   O     O_3   0.604860 0.769447 0.408522 -0.514523
H27   H     H_    0.612962 0.851069 0.375422 0.370579
S8    S     S_3+6 0.460344 0.291945 0.607796 0.020948
O42   O     O_2   0.494106 0.121386 0.621412 -0.348112
O43   O     O_2   0.465732 0.417571 0.661165 -0.284975
O44   O     O_3   0.395160 0.231417 0.590856 -0.503215
H28   H     H_    0.386931 0.149979 0.623947 0.386057
C65   C     C_3   0.921823 0.779456 0.052418 -0.571263
H29   H     H_    0.938278 0.738455 0.098214 0.258774
H30   H     H_    0.884357 0.861772 0.054236 0.220069
H31   H     H_    0.911796 0.653418 0.025479 0.200243
C66   C     C_3   0.077954 0.220930 0.947974 -0.537514
H32   H     H_    0.061533 0.261746 0.902150 0.261690
H33   H     H_    0.087925 0.347077 0.974876 0.197999
H34   H     H_    0.115448 0.138709 0.946228 0.229040
C67   C     C_3   0.578178 0.279459 0.447583 -0.571241
H35   H     H_    0.561724 0.238458 0.401788 0.258773
H36   H     H_    0.615644 0.361776 0.445766 0.220072
H37   H     H_    0.588206 0.153422 0.474522 0.200242
C68   C     C_3   0.422043 0.720924 0.552025 -0.537889
H38   H     H_    0.438469 0.761785 0.597843 0.261603
H39   H     H_    0.412060 0.847044 0.525113 0.197943
H40   H     H_    0.384555 0.638683 0.553785 0.229130
C69   C     C_3   0.946052 0.331222 0.956050 -0.599348
H41   H     H_    0.964609 0.460551 0.973690 0.225083
H42   H     H_    0.945338 0.332414 0.906896 0.237929
H43   H     H_    0.903790 0.325767 0.967271 0.207613
C70   C     C_3   0.053702 0.669133 0.044353 -0.599013
H44   H     H_    0.035125 0.539806 0.026740 0.225135
H45   H     H_    0.095962 0.674486 0.033120 0.213610
H46   H     H_    0.054428 0.668028 0.093508 0.233069
C71   C     C_3   0.553945 0.831222 0.543950 -0.599378
H47   H     H_    0.535392 0.960550 0.526304 0.225081
H48   H     H_    0.554654 0.832425 0.593103 0.237931
H49   H     H_    0.596209 0.825759 0.532734 0.207618
C72   C     C_3   0.446298 0.169133 0.455647 -0.599053
H50   H     H_    0.464865 0.039805 0.473273 0.225129
H51   H     H_    0.404034 0.174516 0.466863 0.213596
H52   H     H_    0.445586 0.168004 0.406492 0.233103

loop_
_geom_bond_atom_site_label_1
_geom_bond_atom_site_label_2
_ccdc_geom_bond_type
O17   V3    S    
C51   C55   S    
O1    C5    A    
C69   H41   S    
C55   C59   S    
O19   V1    S    
C38   C66   S    
O13   V1    S    
C70   H44   S    
O3    C7    A    
O32   H12   S    
C10   C30   A    
C40   C44   S    
O15   V3    S    
C68   H40   S    
S6    O38   S    
C68   H38   S    
C71   H47   S    
C46   C58   T    
C2    C47   S    
O7    C3    A    
C45   C57   T    
C22   C26   A    
C8    C17   S    
C32   C36   S    
C24   C64   S    
O9    V1    S    
C53   C57   S    
C14   H2    S    
C11   S3    S    
C62   H17   S    
O16   V4    S    
O4    C8    A    
S7    O41   S    
C43   C52   S    
C12   S4    S    
O29   H11   S    
C22   C62   S    
O1    V3    S    
S4    O30   D    
O2    V4    S    
O3    V1    S    
C63   H21   S    
O44   H28   S    
C25   C29   A    
C1    O15   A    
C67   H35   S    
C56   C60   S    
C2    O16   A    
O35   H25   S    
C72   H51   S    
C27   C31   A    
C38   C42   S    
C64   H24   S    
C40   C68   S    
C28   C32   A    
C37   C41   S    
O14   V2    S    
C49   C70   S    
C66   H33   S    
C44   C56   S    
C16   H4    S    
C47   C59   T    
S5    O35   S    
C5    C20   S    
C12   C32   A    
O11   C7    A    
C6    C19   S    
O12   C8    A    
C7    C18   S    
O23   H9    S    
C70   H45   S    
C69   H42   S    
O10   V2    S    
S8    O44   S    
C44   C51   S    
C68   H39   S    
C39   C51   S    
C71   H48   S    
C15   H3    S    
C39   C67   S    
C31   C35   S    
O7    V3    S    
C51   C72   S    
C35   C36   T    
O8    V4    S    
O26   H10   S    
C12   C16   A    
S8    O43   D    
C54   C58   S    
C62   H18   S    
C30   C34   S    
O18   V4    S    
C19   C23   A    
C26   C30   A    
C50   C54   S    
C9    C13   A    
C28   H8    S    
C1    C48   S    
C48   C60   T    
C11   C15   A    
O5    C1    A    
C3    C46   S    
C17   C21   A    
O8    C4    A    
C72   H52   S    
C4    C45   S    
C21   C61   S    
O9    C5    A    
S3    O28   D    
S1    O21   D    
C42   C54   S    
C66   H34   S    
C41   C53   S    
C63   H19   S    
C40   C52   S    
C44   S8    S    
C9    C29   A    
C69   H43   S    
O6    V2    S    
C33   C34   T    
S1    O23   S    
S2    O25   D    
C64   H22   S    
C23   C63   S    
C70   H46   S    
C65   H31   S    
C42   C49   S    
C13   C17   A    
C52   C71   S    
O5    V1    S    
C27   H7    S    
C41   C50   S    
C40   C55   S    
C15   C19   A    
C61   H13   S    
C26   H6    S    
C71   H49   S    
C43   C55   S    
C16   C20   A    
C3    O13   A    
C25   H5    S    
C10   C14   A    
C52   C56   S    
S8    O42   D    
C9    S1    S    
O6    C2    A    
S6    O37   D    
S7    O39   D    
O11   V3    S    
S6    O36   D    
C67   H37   S    
O12   V4    S    
S2    O26   S    
O38   H26   S    
C18   C22   A    
S4    O32   S    
C37   C65   S    
C61   H15   S    
C65   H30   S    
S5    O33   D    
C43   S7    S    
C62   H16   S    
C14   C18   A    
C39   C43   S    
S7    O40   D    
O10   C6    A    
S1    O22   D    
C41   S5    S    
C21   C25   A    
C42   S6    S    
O20   V2    S    
O2    C6    A    
C10   S2    S    
S2    O24   D    
S4    O31   D    
S3    O29   S    
C23   C27   A    
C13   H1    S    
C38   C50   S    
O4    V2    S    
C63   H20   S    
C37   C49   S    
C39   C56   S    
C29   C33   S    
C20   C24   A    
C67   H36   S    
C72   H50   S    
C4    O14   A    
S3    O27   D    
C64   H23   S    
O41   H27   S    
C11   C31   A    
S5    O34   D    
C66   H32   S    
C65   H29   S    
C38   C53   S    
C49   C53   S    
C37   C54   S    
C24   C28   A    
C61   H14   S    
C50   C69   S    
