data_mof_unit_16616.cif
_audit_creation_date              2012-12-11T17:00:24-0500
_audit_creation_method            fapswitch 2.2
_symmetry_space_group_name_H-M    P1
_symmetry_Int_Tables_number       1
_space_group_crystal_system       triclinic
_cell_length_a                    6.957295
_cell_length_b                    13.611831
_cell_length_c                    20.187144
_cell_angle_alpha                 102.921823
_cell_angle_beta                  90.545378
_cell_angle_gamma                 90.19768
_cell_volume                      1863.22529494

loop_
_atom_site_label
_atom_site_type_symbol
_atom_type_description
_atom_site_fract_x
_atom_site_fract_y
_atom_site_fract_z
_atom_type_partial_charge
O1    O     O_R   0.506770 0.599700 0.449550 -0.532842
O2    O     O_R   0.179980 0.595740 0.587960 -0.550951
O3    O     O_R   0.004580 0.400300 0.550450 -0.539677
C1    C     C_R   0.348747 0.617896 0.615008 0.683737
O4    O     O_R   0.177380 0.611700 0.452380 -0.533589
O5    O     O_R   0.001970 0.416370 0.413900 -0.526316
C2    C     C_R   0.345810 0.640123 0.436869 0.741334
O6    O     O_R   0.509390 0.583630 0.586100 -0.542107
O7    O     O_3   0.337530 0.435890 0.487530 -0.361401
V1    V     V_3+5 0.064660 0.511890 0.502310 1.483291
O8    O     O_R   0.671950 0.404260 0.412040 -0.534104
C3    C     C_R   0.839774 0.380989 0.385353 0.751165
O9    O     O_R   0.674540 0.388300 0.547620 -0.537389
C4    C     C_R   0.843626 0.360858 0.563625 0.743904
V2    V     V_3+5 0.564030 0.488110 0.497690 1.492168
O10   O     O_3   0.841030 0.564110 0.512470 -0.374528
C5    C     C_R   0.849760 0.104220 0.606777 0.157850
H1    H     H_    0.860591 0.980343 0.695287 0.156234
C6    C     C_R   0.851875 0.280966 0.601563 -0.107246
C7    C     C_R   0.854602 0.316221 0.929368 -0.166791
C8    C     C_R   0.847427 0.391563 0.893068 -0.121736
C9    C     C_R   0.847122 0.367164 0.822235 -0.156700
C10   C     C_R   0.853950 0.265338 0.785405 0.101085
C11   C     C_R   0.858721 0.188644 0.823156 0.071151
C12   C     C_R   0.854754 0.237185 0.712626 0.051747
C13   C     C_R   0.854498 0.133171 0.678949 0.060776
C14   C     C_R   0.858805 0.060000 0.718118 -0.153309
C15   C     C_R   0.861890 0.087064 0.788492 -0.206126
C16   C     C_R   0.855678 0.309340 0.672270 -0.256052
C17   C     C_R   0.847937 0.178806 0.568226 0.127158
C18   C     C_R   0.860042 0.215089 0.895174 -0.077658
H2    H     H_    0.858764 0.389139 0.694048 0.105310
H3    H     H_    0.855462 0.336793 0.984430 0.109717
H4    H     H_    0.839881 0.430161 0.798252 0.106000
H5    H     H_    0.842027 0.469780 0.920050 0.122741
H6    H     H_    0.865599 0.026897 0.815622 0.106148
C19   C     C_R   0.711687 0.248110 0.203690 0.076633
C20   C     C_R   0.866959 0.183558 0.184153 -0.099178
C21   C     C_R   0.016684 0.185862 0.231919 -0.151062
H7    H     H_    0.138508 0.136537 0.219331 0.117352
C22   C     C_R   0.005386 0.247856 0.297848 -0.100897
H8    H     H_    0.119493 0.244906 0.334133 0.144622
C23   C     C_R   0.846903 0.311636 0.317249 -0.105152
C24   C     C_R   0.702217 0.311392 0.268366 0.107849
C25   C     C_3   0.492427 0.290787 0.272859 -0.020436
C26   C     C_3   0.503839 0.221806 0.202695 -0.418274
H9    H     H_    0.459479 0.250388 0.313596 0.134311
H10   H     H_    0.423450 0.248879 0.162462 0.201703
H11   H     H_    0.479888 0.141035 0.202866 0.151805
C27   C     C_R   0.500255 0.679319 0.730656 0.096654
C28   C     C_R   0.352569 0.684220 0.684079 -0.100370
C29   C     C_R   0.196657 0.748525 0.707331 -0.161603
H12   H     H_    0.078045 0.754119 0.673412 0.141218
C30   C     C_R   0.197444 0.811024 0.773166 -0.170075
H13   H     H_    0.080759 0.863353 0.787784 0.125987
C31   C     C_R   0.354401 0.811281 0.817635 -0.109392
C32   C     C_R   0.501659 0.741723 0.795618 0.104797
C33   C     C_3   0.713195 0.758702 0.793948 -0.396210
C34   C     C_3   0.711414 0.690635 0.723189 -0.407538
H14   H     H_    0.792096 0.726092 0.832033 0.170098
H15   H     H_    0.749085 0.838430 0.794331 0.167780
H16   H     H_    0.789024 0.618575 0.720358 0.162100
H17   H     H_    0.746184 0.730795 0.682513 0.182699
C35   C     C_R   0.253956 0.886947 0.388450 -0.096476
H18   H     H_    0.231870 0.833473 0.480363 0.147972
H19   H     H_    0.212156 0.007997 0.302834 0.134855
H20   H     H_    0.197911 0.960516 0.412054 0.164291
C36   C     C_R   0.349899 0.720374 0.398855 -0.056821
C37   C     C_R   0.418470 0.684958 0.071879 0.155237
C38   C     C_R   0.454551 0.614113 0.110729 -0.103580
C39   C     C_R   0.443245 0.640258 0.181194 -0.183697
C40   C     C_R   0.387594 0.737898 0.215811 0.077941
C41   C     C_R   0.347523 0.810416 0.176482 0.032373
C42   C     C_R   0.365784 0.765040 0.287999 0.081019
C43   C     C_R   0.295259 0.862198 0.318741 0.126555
C44   C     C_R   0.262476 0.933049 0.279508 -0.176970
C45   C     C_R   0.290168 0.908073 0.209692 -0.196060
C46   C     C_R   0.404557 0.697801 0.330675 -0.185332
C47   C     C_R   0.274896 0.815244 0.427626 -0.123898
C48   C     C_R   0.367689 0.784137 0.104682 -0.093626
H21   H     H_    0.470773 0.626048 0.312045 0.139587
H22   H     H_    0.477630 0.581471 0.206891 0.156102
H23   H     H_    0.495467 0.537914 0.086452 0.129628
H24   H     H_    0.261044 0.965536 0.181704 0.112945
O11   O     O_R   0.203450 0.916320 0.913910 -0.542109
O12   O     O_R   0.535520 0.888300 0.047620 -0.540058
O13   O     O_R   0.710860 0.083650 0.086100 -0.538411
C49   C     C_R   0.368036 0.862564 0.065090 0.709197
O14   O     O_R   0.532860 0.904250 0.912040 -0.543112
O15   O     O_R   0.708190 0.099710 0.949550 -0.537383
C50   C     C_R   0.363891 0.882529 0.884842 0.701998
O16   O     O_R   0.206120 0.900260 0.050460 -0.542122
O17   O     O_3   0.375280 0.064080 0.012470 -0.369594
V3    V     V_3+5 0.648180 0.988110 0.997690 1.416527
O18   O     O_R   0.038220 0.111740 0.952370 -0.538320
C51   C     C_R   0.869104 0.138335 0.935720 0.694056
O19   O     O_R   0.040880 0.095790 0.087940 -0.545324
C52   C     C_R   0.873209 0.115508 0.115772 0.702500
V4    V     V_3+5 0.148800 0.011950 0.002300 1.416769
O20   O     O_3   0.871820 0.935920 0.987530 -0.373146
I1    I     I_    0.839595 0.139964 0.459368 -0.430088
I2    I     I_    0.325833 0.422189 0.273443 -0.492380
C53   C     C_3   0.437047 0.654114 0.995577 -0.799759
H25   H     H_    0.468858 0.572509 0.978217 0.206617
H26   H     H_    0.300461 0.669528 0.970933 0.198575
H27   H     H_    0.555541 0.696979 0.978428 0.210607
I3    I     I_    0.840842 0.948185 0.554761 -0.445500

loop_
_geom_bond_atom_site_label_1
_geom_bond_atom_site_label_2
_ccdc_geom_bond_type
O17   V3    S    
H18   C47   S    
C22   H8    S    
O18   C51   A    
C20   C52   S    
O19   C52   A    
O11   C50   A    
C21   C22   A    
C25   C26   S    
C29   H12   S    
C26   H11   S    
C13   C14   A    
C27   C34   S    
C3    C23   S    
C5    I3    S    
O5    C3    A    
C20   C21   A    
O12   C49   A    
C33   H14   S    
C18   C51   S    
O13   V3    S    
C31   C32   A    
O14   V3    S    
O12   V3    S    
C2    C36   S    
O8    V2    S    
C41   C48   A    
C31   C50   S    
C49   O16   A    
C10   C11   A    
C38   C39   A    
O1    V2    S    
O14   C50   A    
O7    V1    S    
O17   V4    S    
C1    O6    A    
O13   C52   A    
C33   H15   S    
C37   C53   S    
C8    C9    A    
C36   C46   A    
C5    C17   A    
C22   C23   A    
O19   V4    S    
C29   C30   A    
O15   V3    S    
C26   H10   S    
C25   H9    S    
C12   C16   A    
C9    H4    S    
C30   C31   A    
C42   C43   A    
C1    C28   S    
C28   C29   A    
C35   H20   S    
C44   C45   A    
C40   C42   A    
C21   H7    S    
O4    C2    A    
C45   H24   S    
C12   C13   A    
O2    C1    A    
C43   C44   A    
C19   C20   A    
O11   V4    S    
V4    O20   S    
V3    O20   S    
H19   C44   S    
C27   C28   A    
C53   H26   S    
C38   H23   S    
O3    C4    A    
C7    H3    S    
O6    V2    S    
O9    V2    S    
C23   C24   A    
C35   C47   A    
C5    C13   A    
C6    C16   A    
C14   C15   A    
C24   C25   S    
C30   H13   S    
C34   H16   S    
O1    C2    A    
C27   C32   A    
C4    C6    S    
H1    C14   S    
C11   C15   A    
C40   C41   A    
O5    V1    S    
O8    C3    A    
O15   C51   A    
C8    H5    S    
C16   H2    S    
C34   H17   S    
C39   H22   S    
C19   C24   A    
C33   C34   S    
C11   C18   A    
O4    V1    S    
C48   C49   S    
O3    V1    S    
V1    O10   S    
C46   H21   S    
C32   C33   S    
C36   C47   A    
C17   I1    S    
C35   C43   A    
C53   H27   S    
O18   V4    S    
C10   C12   A    
O7    V2    S    
C37   C38   A    
C25   I2    S    
C39   C40   A    
C7    C8    A    
C15   H6    S    
C42   C46   A    
C53   H25   S    
C41   C45   A    
C9    C10   A    
C37   C48   A    
C19   C26   S    
O9    C4    A    
C6    C17   A    
V2    O10   S    
O16   V4    S    
C7    C18   A    
O2    V1    S    
