data_mof_unit_25106.cif
_audit_creation_date              2012-12-10T17:44:37-0500
_audit_creation_method            fapswitch 2.2
_symmetry_space_group_name_H-M    P1
_symmetry_Int_Tables_number       1
_space_group_crystal_system       triclinic
_cell_length_a                    9.898864
_cell_length_b                    10.774328
_cell_length_c                    15.604647
_cell_angle_alpha                 91.133234
_cell_angle_beta                  68.053277
_cell_angle_gamma                 89.209238
_cell_volume                      1542.97863104

loop_
_atom_site_label
_atom_site_type_symbol
_atom_type_description
_atom_site_fract_x
_atom_site_fract_y
_atom_site_fract_z
_atom_type_partial_charge
C1    C     C_R   0.502058 0.740420 0.494108 0.923099
C2    C     C_R   0.708831 0.589346 0.043517 0.126852
C3    C     C_R   0.572503 0.536608 0.093468 0.147240
C4    C     C_R   0.408658 0.499825 0.675759 0.865852
C5    C     C_R   0.808696 0.609872 0.086309 -0.193943
C6    C     C_R   0.774103 0.577258 0.177966 -0.155170
C7    C     C_R   0.549178 0.490778 0.180598 -0.180635
C8    C     C_R   0.249456 0.894066 0.486249 -0.127723
C9    C     C_R   0.114367 0.956024 0.519839 -0.143422
C10   C     C_R   0.097738 0.068132 0.568312 -0.142795
C11   C     C_R   0.219263 0.123500 0.575560 -0.119751
C12   C     C_R   0.407405 0.518347 0.915574 0.018654
C13   C     C_R   0.359187 0.066198 0.534546 0.032334
C14   C     C_R   0.370499 0.942971 0.502603 0.034071
C15   C     C_R   0.501649 0.875062 0.489513 -0.339418
C16   C     C_R   0.494915 0.261289 0.510014 0.935071
C17   C     C_R   0.627782 0.937394 0.487434 0.382093
C18   C     C_R   0.619168 0.063371 0.506018 0.498096
C19   C     C_R   0.488641 0.128950 0.522713 -0.336102
C20   C     C_R   0.789657 0.667796 0.618317 -0.103712
C21   C     C_R   0.825373 0.748240 0.677050 -0.231489
C22   C     C_R   0.963845 0.744102 0.679112 -0.189876
C23   C     C_R   0.261158 0.491433 0.969528 -0.055811
C24   C     C_R   0.068546 0.661706 0.620659 -0.103415
C25   C     C_R   0.037272 0.581316 0.558591 0.104575
C26   C     C_R   0.892955 0.582618 0.557980 0.162734
C27   C     C_R   0.961362 0.419127 0.446316 -0.079066
C28   C     C_R   0.590723 0.500852 0.324532 0.863880
C29   C     C_R   0.104940 0.420031 0.445546 -0.061146
C30   C     C_R   0.351175 0.499013 0.776926 -0.134473
C31   C     C_R   0.643660 0.517941 0.225224 -0.129966
C32   C     C_R   0.159796 0.475759 0.926736 -0.269660
C33   C     C_R   0.202752 0.481933 0.830381 0.446716
C34   C     C_R   0.507337 0.545770 0.958293 0.013504
C35   C     C_R   0.451028 0.513928 0.819786 -0.294123
C36   C     C_3   0.049757 0.367041 0.178972 0.161798
C37   C     C_3   0.944364 0.275217 0.163089 -0.396923
C38   C     C_3   0.878696 0.192062 0.245703 -0.965507
C39   C     C_3   0.865333 0.896341 0.387099 0.123689
C40   C     C_3   0.824925 0.849006 0.306532 -0.415466
C41   C     C_3   0.957502 0.844410 0.215869 -0.930061
C42   C     C_3   0.009025 0.382325 0.811573 0.066049
C43   C     C_3   0.925691 0.376015 0.746557 -0.299215
C44   C     C_3   0.813042 0.274148 0.773068 -0.970795
C45   C     C_R   0.465330 0.527577 0.054030 -0.123081
C46   C     C_R   0.316555 0.507486 0.107750 0.427103
C47   C     C_R   0.216660 0.483882 0.065513 0.378456
C48   C     C_R   0.645279 0.597039 0.909297 -0.171882
C49   C     C_R   0.742833 0.621105 0.952047 -0.240052
F1    F     F_    0.738579 0.120637 0.509669 -0.675120
F2    F     F_    0.262332 0.525909 0.201000 -0.697636
H1    H     H_    0.911649 0.653358 0.049606 0.159497
H2    H     H_    0.990653 0.805456 0.725945 0.157980
H3    H     H_    0.172511 0.663050 0.626152 0.217582
H4    H     H_    0.185903 0.354600 0.401068 0.153511
H5    H     H_    0.848478 0.598215 0.211902 0.207959
H6    H     H_    0.846271 0.662357 0.912782 0.167533
H7    H     H_    0.046527 0.462475 0.968524 0.181582
H8    H     H_    0.564814 0.519363 0.776972 0.179600
H9    H     H_    0.677841 0.625682 0.838915 0.147711
H10   H     H_    0.001168 0.407413 0.250114 0.193733
H11   H     H_    0.151279 0.314447 0.172520 0.116520
H12   H     H_    0.257160 0.810592 0.445213 0.177253
H13   H     H_    0.854635 0.325528 0.151249 0.248738
H14   H     H_    0.003773 0.216940 0.100270 0.210889
H15   H     H_    0.966659 0.146439 0.262408 0.258504
H16   H     H_    0.812497 0.119978 0.229192 0.269412
H17   H     H_    0.806886 0.247594 0.306891 0.285254
H18   H     H_    0.965832 0.845581 0.383456 0.164897
H19   H     H_    0.892866 0.995997 0.379456 0.175627
H20   H     H_    0.779886 0.754813 0.321740 0.244870
H21   H     H_    0.739872 0.911156 0.298889 0.203197
H22   H     H_    0.012899 0.934831 0.203605 0.263898
H23   H     H_    0.021594 0.915369 0.510441 0.182078
H24   H     H_    0.922448 0.823791 0.157518 0.264686
H25   H     H_    0.035998 0.770701 0.217584 0.294912
H26   H     H_    0.927940 0.393301 0.883398 0.150149
H27   H     H_    0.073011 0.293963 0.803904 0.123824
H28   H     H_    0.869005 0.466460 0.749074 0.232938
H29   H     H_    0.003468 0.358339 0.674551 0.217654
H30   H     H_    0.866680 0.182450 0.771529 0.259060
H31   H     H_    0.757197 0.270859 0.723186 0.287474
H32   H     H_    0.730147 0.293591 0.843389 0.270525
H33   H     H_    0.991792 0.113963 0.597692 0.180244
H34   H     H_    0.202992 0.210622 0.614010 0.150755
H35   H     H_    0.933693 0.351837 0.403668 0.150017
H36   H     H_    0.679715 0.674924 0.623483 0.208307
H37   H     H_    0.744049 0.812775 0.722471 0.161355
H38   H     H_    0.456705 0.433843 0.215487 0.203523
N1    N     N_R   0.856800 0.501200 0.500850 -0.118292
N2    N     N_R   0.142390 0.501280 0.500880 -0.129973
O1    O     O_R   0.385310 0.683220 0.500000 -0.658408
O2    O     O_3   0.756686 0.872995 0.474652 -0.607487
O3    O     O_3   0.101138 0.485556 0.788472 -0.640901
O4    O     O_R   0.614640 0.683250 0.500010 -0.584076
O5    O     O_R   0.319840 0.499980 0.632240 -0.596492
O6    O     O_R   0.549160 0.500000 0.632250 -0.653195
O7    O     O_R   0.385360 0.316750 0.499990 -0.639316
O8    O     O_R   0.614690 0.316780 0.500000 -0.549169
O9    O     O_R   0.450840 0.500000 0.367750 -0.590236
O10   O     O_R   0.680160 0.500020 0.367760 -0.632478
O11   O     O_3   0.070783 0.466017 0.117408 -0.657960
Zn1   Zn    Zn3+2 0.346880 0.499980 0.499990 0.940304
Zn2   Zn    Zn3+2 0.653120 0.500020 0.500010 0.960001

loop_
_geom_bond_atom_site_label_1
_geom_bond_atom_site_label_2
_ccdc_geom_bond_type
C40   H20   S    
C27   C29   A    
C32   H7    S    
C44   H32   S    
C33   O3    S    
C45   C46   A    
C12   C23   A    
C30   C35   A    
C35   H8    S    
C36   C37   S    
C3    C7    A    
C5    C6    A    
C43   H28   S    
O7    Zn1   S    
C7    H38   S    
C20   H36   S    
C49   H6    S    
C27   N1    A    
C36   O11   S    
C18   C19   A    
C39   O2    S    
O1    Zn1   S    
C21   C22   A    
C4    O5    A    
C28   O10   A    
C38   H15   S    
C8    C9    A    
C37   H14   S    
C5    H1    S    
C1    C15   S    
C9    C10   A    
C28   O9    A    
C6    C31   A    
C21   H37   S    
C47   O11   S    
C13   C14   A    
C36   H11   S    
C48   H9    S    
C22   H2    S    
C25   N2    A    
C23   C47   A    
C13   C19   A    
C7    C31   A    
C24   C25   A    
C44   H30   S    
N2    Zn1   S    
C39   C40   S    
C29   H4    S    
C43   H29   S    
C46   F2    S    
C3    C45   A    
O9    Zn1   S    
C27   H35   S    
C43   C44   S    
C37   C38   S    
C2    C49   A    
C41   H24   S    
C1    O4    A    
C17   C18   A    
C39   H18   S    
C34   C45   A    
C38   H16   S    
C12   C35   A    
N1    Zn2   S    
C48   C49   A    
C38   H17   S    
C42   H27   S    
C1    O1    A    
C22   C24   A    
C2    C5    A    
C34   C48   A    
C42   C43   S    
C12   C34   A    
C36   H10   S    
C29   N2    A    
C37   H13   S    
O4    Zn2   S    
C18   F1    S    
C15   C17   A    
C46   C47   A    
C40   C41   S    
C8    C14   A    
C40   H21   S    
C30   C33   A    
C42   O3    S    
C28   C31   S    
C6    H5    S    
C16   O8    A    
C26   N1    A    
C44   H31   S    
C23   C32   A    
C2    C3    A    
C25   C26   A    
C32   C33   A    
C41   H25   S    
C11   C13   A    
C16   O7    A    
C20   C26   A    
C11   H34   S    
C16   C19   S    
C10   H33   S    
C39   H19   S    
O8    Zn2   S    
O6    Zn2   S    
C10   C11   A    
C8    H12   S    
C41   H22   S    
C17   O2    S    
C20   C21   A    
C42   H26   S    
C9    H23   S    
O5    Zn1   S    
C14   C15   A    
O10   Zn2   S    
C4    O6    A    
C24   H3    S    
C4    C30   S    
