data_mof_unit_64697.cif
_audit_creation_date              2012-12-10T18:33:03-0500
_audit_creation_method            fapswitch 2.2
_symmetry_space_group_name_H-M    P1
_symmetry_Int_Tables_number       1
_space_group_crystal_system       triclinic
_cell_length_a                    38.744619
_cell_length_b                    45.107847
_cell_length_c                    29.700927
_cell_angle_alpha                 90.000223
_cell_angle_beta                  130.677405
_cell_angle_gamma                 89.999691
_cell_volume                      39366.5103399

loop_
_atom_site_label
_atom_site_type_symbol
_atom_type_description
_atom_site_fract_x
_atom_site_fract_y
_atom_site_fract_z
_atom_type_partial_charge
C1    C     C_R   0.790618 0.790608 0.081186 0.912227
C2    C     C_R   0.209382 0.790608 0.918814 0.912226
C3    C     C_R   0.290618 0.290608 0.081186 0.912244
C4    C     C_R   0.709382 0.290608 0.918814 0.912234
C5    C     C_R   0.644839 0.749979 0.999949 -0.033054
C6    C     C_R   0.355160 0.749979 0.000049 -0.033056
C7    C     C_R   0.144839 0.249979 0.999948 -0.033031
C8    C     C_R   0.855160 0.249979 0.000049 -0.033057
C9    C     C_R   0.465118 0.749967 0.000009 0.284730
C10   C     C_R   0.534875 0.749966 0.999976 0.284745
C11   C     C_R   0.965118 0.249966 0.000009 0.284816
C12   C     C_R   0.034874 0.249965 0.999974 0.284856
C13   C     C_3   0.902678 0.843882 0.263888 -0.389821
C14   C     C_3   0.097302 0.843896 0.736140 -0.389829
C15   C     C_3   0.402587 0.343821 0.264009 -0.389810
C16   C     C_3   0.597384 0.343841 0.736029 -0.389807
C17   C     C_3   0.859209 0.883265 0.184978 -0.388760
C18   C     C_3   0.140839 0.883276 0.815044 -0.388792
C19   C     C_3   0.359420 0.383216 0.185076 -0.388723
C20   C     C_3   0.640647 0.383232 0.814955 -0.388730
C21   C     C_3   0.883493 0.907543 0.233569 -0.391338
C22   C     C_3   0.116555 0.907554 0.766453 -0.391409
C23   C     C_3   0.383705 0.407494 0.233667 -0.391241
C24   C     C_3   0.616363 0.407510 0.766364 -0.391268
C25   C     C_1   0.937245 0.937185 0.374545 -0.177990
C26   C     C_1   0.062755 0.937185 0.625455 -0.178042
C27   C     C_1   0.437245 0.437185 0.374545 -0.177907
C28   C     C_1   0.562755 0.437185 0.625455 -0.177923
C29   C     C_3   0.854522 0.854461 0.209032 0.348245
C30   C     C_3   0.145478 0.854461 0.790968 0.348294
C31   C     C_3   0.354522 0.354461 0.209032 0.348160
C32   C     C_3   0.645478 0.354461 0.790968 0.348160
C33   C     C_3   0.926964 0.868160 0.312481 -0.392341
C34   C     C_3   0.073016 0.868174 0.687547 -0.392327
C35   C     C_3   0.426873 0.368100 0.312602 -0.392355
C36   C     C_3   0.573098 0.368119 0.687436 -0.392354
C37   C     C_3   0.895624 0.895551 0.291271 0.348892
C38   C     C_3   0.104376 0.895551 0.708729 0.348963
C39   C     C_3   0.395624 0.395551 0.291271 0.348773
C40   C     C_3   0.604376 0.395551 0.708729 0.348791
C41   C     C_3   0.851190 0.885732 0.277294 -0.387766
C42   C     C_3   0.148783 0.885707 0.722656 -0.387792
C43   C     C_3   0.351070 0.385842 0.277074 -0.387714
C44   C     C_3   0.648892 0.385807 0.722856 -0.387713
C45   C     C_R   0.682552 0.749987 0.999940 0.859885
C46   C     C_R   0.317448 0.749986 0.000060 0.859827
C47   C     C_R   0.182551 0.249986 0.999940 0.860230
C48   C     C_R   0.817448 0.249986 0.000060 0.860027
C49   C     C_3   0.826904 0.861454 0.228701 -0.391332
C50   C     C_3   0.173068 0.861429 0.771249 -0.391336
C51   C     C_3   0.326784 0.361564 0.228482 -0.391306
C52   C     C_3   0.673178 0.361529 0.771449 -0.391293
C53   C     C_1   0.918485 0.918411 0.337011 -0.118367
C54   C     C_1   0.081515 0.918411 0.662988 -0.118416
C55   C     C_1   0.418485 0.418411 0.337012 -0.118291
C56   C     C_1   0.581515 0.418411 0.662988 -0.118304
C57   C     C_1   0.831657 0.831607 0.163283 -0.116988
C58   C     C_1   0.168343 0.831607 0.836717 -0.117012
C59   C     C_1   0.331657 0.331607 0.163283 -0.116946
C60   C     C_1   0.668343 0.331607 0.836716 -0.116943
C61   C     C_1   0.812881 0.812847 0.125721 -0.181078
C62   C     C_1   0.187119 0.812847 0.874279 -0.181099
C63   C     C_1   0.312881 0.312847 0.125721 -0.181043
C64   C     C_1   0.687119 0.312847 0.874279 -0.181031
C65   C     C_R   0.848803 0.761184 0.950952 -0.176440
C66   C     C_R   0.151196 0.761185 0.049047 -0.176510
C67   C     C_R   0.348802 0.261182 0.950950 -0.176049
C68   C     C_R   0.651196 0.261185 0.049046 -0.176253
C69   C     C_R   0.884598 0.760944 0.950745 -0.151649
C70   C     C_R   0.115401 0.760945 0.049254 -0.151700
C71   C     C_R   0.384597 0.260941 0.950742 -0.151340
C72   C     C_R   0.615401 0.260945 0.049254 -0.151488
C73   C     C_R   0.927337 0.749985 0.999944 0.083292
C74   C     C_R   0.072663 0.749985 0.000056 0.083283
C75   C     C_R   0.427336 0.249984 0.999942 0.083307
C76   C     C_R   0.572663 0.249985 0.000055 0.083279
C77   C     C_R   0.933741 0.739022 0.049122 -0.151568
C78   C     C_R   0.066260 0.739021 0.950878 -0.151563
C79   C     C_R   0.433740 0.239022 0.049122 -0.151570
C80   C     C_R   0.566259 0.239021 0.950877 -0.151543
C81   C     C_R   0.897726 0.738781 0.048887 -0.184419
C82   C     C_R   0.102274 0.738781 0.951114 -0.184385
C83   C     C_R   0.397726 0.238782 0.048887 -0.184631
C84   C     C_R   0.602274 0.238781 0.951113 -0.184497
C85   C     C_R   0.855128 0.749985 0.999915 -0.034686
C86   C     C_R   0.144871 0.749985 0.000084 -0.034712
C87   C     C_R   0.355128 0.249984 0.999915 -0.034596
C88   C     C_R   0.644871 0.249985 0.000084 -0.034662
C89   C     C_R   0.709372 0.709397 0.918713 0.912313
C90   C     C_R   0.290628 0.709397 0.081287 0.912241
C91   C     C_R   0.209372 0.209397 0.918713 0.912736
C92   C     C_R   0.790628 0.209397 0.081287 0.912478
C93   C     C_R   0.034895 0.749991 0.000028 0.286742
C94   C     C_R   0.965104 0.749991 0.999972 0.286747
C95   C     C_R   0.534895 0.249990 0.000027 0.286739
C96   C     C_R   0.465104 0.249989 0.999970 0.286746
C97   C     C_3   0.639904 0.617333 0.814206 -0.449740
C98   C     C_3   0.360599 0.617457 0.186041 -0.449782
C99   C     C_3   0.142580 0.116717 0.815432 -0.449526
C100  C     C_3   0.858975 0.117066 0.185262 -0.449644
C101  C     C_3   0.597653 0.656535 0.735178 0.171537
C102  C     C_3   0.402111 0.656675 0.265104 0.171564
C103  C     C_3   0.096492 0.155743 0.736775 0.171334
C104  C     C_3   0.902852 0.156212 0.264172 0.171437
C105  C     C_3   0.573747 0.632240 0.686411 -0.419739
C106  C     C_3   0.426013 0.632377 0.313864 -0.419756
C107  C     C_3   0.072560 0.131468 0.687968 -0.419688
C108  C     C_3   0.926769 0.131926 0.312955 -0.419744
C109  C     C_1   0.562917 0.562806 0.625812 -0.172766
C110  C     C_1   0.437082 0.562806 0.374188 -0.172760
C111  C     C_1   0.062913 0.062809 0.625807 -0.172744
C112  C     C_1   0.937084 0.062807 0.374190 -0.172724
C113  C     C_3   0.645985 0.645801 0.790615 0.153035
C114  C     C_3   0.354004 0.645796 0.209377 0.153024
C115  C     C_3   0.145933 0.145822 0.790573 0.153099
C116  C     C_3   0.854037 0.145810 0.209403 0.153062
C117  C     C_3   0.615827 0.592952 0.765930 -0.396271
C118  C     C_3   0.384678 0.593075 0.234316 -0.396221
C119  C     C_3   0.118511 0.092341 0.767147 -0.396565
C120  C     C_3   0.883046 0.092686 0.233541 -0.396414
C121  C     C_3   0.604646 0.604553 0.708617 0.218481
C122  C     C_3   0.395349 0.604551 0.291378 0.218467
C123  C     C_3   0.104615 0.104565 0.708593 0.218538
C124  C     C_3   0.895367 0.104558 0.291393 0.218503
C125  C     C_3   0.649588 0.613592 0.723288 -0.410674
C126  C     C_3   0.350126 0.613323 0.276174 -0.410697
C127  C     C_3   0.147977 0.115022 0.720421 -0.410500
C128  C     C_3   0.851070 0.114192 0.277915 -0.410549
C129  C     C_3   0.674158 0.638113 0.771593 0.262441
C130  C     C_3   0.325550 0.637842 0.227864 0.262456
C131  C     C_3   0.172515 0.139555 0.768701 0.262383
C132  C     C_3   0.826513 0.138718 0.229619 0.262416
C133  C     C_R   0.817424 0.749987 0.999915 0.870426
C134  C     C_R   0.182575 0.749987 0.000085 0.870416
C135  C     C_R   0.317424 0.249987 0.999915 0.870496
C136  C     C_R   0.682575 0.249987 0.000085 0.870458
C137  C     C_1   0.581712 0.581611 0.663184 -0.063711
C138  C     C_1   0.418285 0.581611 0.336814 -0.063705
C139  C     C_1   0.081699 0.081618 0.663172 -0.063694
C140  C     C_1   0.918293 0.081614 0.336821 -0.063682
C141  C     C_1   0.668671 0.668547 0.836610 0.030716
C142  C     C_1   0.331323 0.668545 0.163386 0.030727
C143  C     C_1   0.168647 0.168555 0.836594 0.030679
C144  C     C_1   0.831339 0.168550 0.163397 0.030690
C145  C     C_1   0.687285 0.687220 0.874240 -0.118870
C146  C     C_1   0.312713 0.687220 0.125759 -0.118861
C147  C     C_1   0.187276 0.187222 0.874237 -0.118924
C148  C     C_1   0.812719 0.187221 0.125761 -0.118886
C149  C     C_R   0.040522 0.959454 0.580975 0.905669
C150  C     C_R   0.959478 0.959454 0.419025 0.905696
C151  C     C_R   0.540522 0.459454 0.580974 0.905724
C152  C     C_R   0.459478 0.459454 0.419025 0.905731
C153  C     C_R   0.459296 0.540568 0.418560 0.906661
C154  C     C_R   0.540704 0.540568 0.581440 0.906653
C155  C     C_R   0.959296 0.040568 0.418559 0.906667
C156  C     C_R   0.040704 0.040568 0.581441 0.906637
C157  C     C_R   0.615460 0.774415 0.977471 -0.186695
C158  C     C_R   0.384539 0.774415 0.022527 -0.186783
C159  C     C_R   0.115458 0.274414 0.977467 -0.186291
C160  C     C_R   0.884540 0.274414 0.022528 -0.186508
C161  C     C_R   0.579802 0.774521 0.977960 -0.156987
C162  C     C_R   0.420195 0.774521 0.022033 -0.157039
C163  C     C_R   0.079799 0.274520 0.977955 -0.156713
C164  C     C_R   0.920196 0.274520 0.022034 -0.156852
C165  C     C_R   0.572632 0.749968 0.999961 0.085260
C166  C     C_R   0.427362 0.749968 0.000028 0.085268
C167  C     C_R   0.072631 0.249967 0.999958 0.085223
C168  C     C_R   0.927362 0.249967 0.000029 0.085231
C169  C     C_R   0.601795 0.725419 0.021952 -0.158505
C170  C     C_R   0.398199 0.725420 0.978036 -0.158513
C171  C     C_R   0.101795 0.225419 0.021952 -0.158384
C172  C     C_R   0.898199 0.225419 0.978038 -0.158406
C173  C     C_R   0.637938 0.725536 0.022431 -0.191101
C174  C     C_R   0.362059 0.725537 0.977563 -0.191114
C175  C     C_R   0.137938 0.225536 0.022431 -0.190981
C176  C     C_R   0.862059 0.225536 0.977564 -0.191043
H1    H     H_    0.620335 0.793548 0.960110 0.157004
H2    H     H_    0.379667 0.793547 0.039891 0.156979
H3    H     H_    0.120332 0.293546 0.960104 0.157088
H4    H     H_    0.879667 0.293547 0.039892 0.157055
H5    H     H_    0.860931 0.927268 0.217407 0.170783
H6    H     H_    0.139133 0.927269 0.782596 0.170673
H7    H     H_    0.361210 0.427261 0.217421 0.170906
H8    H     H_    0.638879 0.427263 0.782584 0.170873
H9    H     H_    0.823084 0.841060 0.246216 0.170869
H10   H     H_    0.176854 0.841026 0.753718 0.170874
H11   H     H_    0.322811 0.341206 0.245922 0.170875
H12   H     H_    0.677102 0.341159 0.753985 0.170896
H13   H     H_    0.792103 0.869129 0.189974 0.171544
H14   H     H_    0.207884 0.869094 0.809955 0.171504
H15   H     H_    0.292045 0.369284 0.189664 0.171620
H16   H     H_    0.707937 0.369235 0.810237 0.171610
H17   H     H_    0.859037 0.877000 0.318150 0.170274
H18   H     H_    0.140901 0.876966 0.681783 0.170275
H19   H     H_    0.358764 0.377147 0.317856 0.170304
H20   H     H_    0.641150 0.377100 0.682050 0.170313
H21   H     H_    0.900203 0.823175 0.282026 0.170799
H22   H     H_    0.099743 0.823182 0.717986 0.170801
H23   H     H_    0.399960 0.323149 0.282080 0.170799
H24   H     H_    0.599963 0.323157 0.717937 0.170809
H25   H     H_    0.936154 0.859116 0.353961 0.168132
H26   H     H_    0.063791 0.859123 0.646051 0.168129
H27   H     H_    0.435912 0.359090 0.354015 0.168142
H28   H     H_    0.564012 0.359098 0.646002 0.168144
H29   H     H_    0.828055 0.905070 0.261908 0.172714
H30   H     H_    0.171932 0.905034 0.738021 0.172657
H31   H     H_    0.327996 0.405224 0.261598 0.172793
H32   H     H_    0.671986 0.405175 0.738304 0.172782
H33   H     H_    0.816097 0.769830 0.912619 0.161411
H34   H     H_    0.183902 0.769833 0.087379 0.161441
H35   H     H_    0.316096 0.269828 0.912616 0.161297
H36   H     H_    0.683901 0.269832 0.087379 0.161387
H37   H     H_    0.878990 0.769645 0.912444 0.151725
H38   H     H_    0.121008 0.769647 0.087554 0.151736
H39   H     H_    0.378989 0.269641 0.912441 0.151715
H40   H     H_    0.621008 0.269646 0.087554 0.151749
H41   H     H_    0.966402 0.730320 0.087435 0.151969
H42   H     H_    0.033599 0.730318 0.912567 0.151982
H43   H     H_    0.466402 0.230321 0.087435 0.151963
H44   H     H_    0.533599 0.230318 0.912566 0.151999
H45   H     H_    0.557549 0.793639 0.960500 0.150368
H46   H     H_    0.442448 0.793639 0.039493 0.150348
H47   H     H_    0.057545 0.293637 0.960494 0.150461
H48   H     H_    0.942449 0.293638 0.039494 0.150426
H49   H     H_    0.903315 0.730134 0.087211 0.156477
H50   H     H_    0.096686 0.730132 0.912791 0.156495
H51   H     H_    0.403315 0.230135 0.087211 0.156404
H52   H     H_    0.596686 0.230132 0.912790 0.156455
H53   H     H_    0.584006 0.586069 0.756324 0.177587
H54   H     H_    0.416709 0.586383 0.244306 0.177627
H55   H     H_    0.087868 0.084439 0.759581 0.177359
H56   H     H_    0.914385 0.085374 0.242290 0.177482
H57   H     H_    0.619305 0.622367 0.827212 0.165703
H58   H     H_    0.381402 0.622682 0.173420 0.165711
H59   H     H_    0.123133 0.120729 0.830487 0.165663
H60   H     H_    0.879105 0.121671 0.171399 0.165676
H61   H     H_    0.576969 0.660659 0.748372 0.136372
H62   H     H_    0.423010 0.660993 0.252297 0.136403
H63   H     H_    0.077018 0.158840 0.752031 0.136165
H64   H     H_    0.923042 0.159906 0.250113 0.136253
H65   H     H_    0.540963 0.626091 0.674844 0.164183
H66   H     H_    0.458990 0.626419 0.325814 0.164192
H67   H     H_    0.040868 0.124301 0.678444 0.164066
H68   H     H_    0.959108 0.125349 0.323663 0.164090
H69   H     H_    0.565384 0.640678 0.645070 0.222959
H70   H     H_    0.434009 0.640726 0.355028 0.222964
H71   H     H_    0.062247 0.140344 0.645755 0.223001
H72   H     H_    0.935952 0.140553 0.354676 0.223006
H73   H     H_    0.677369 0.658213 0.752883 0.170431
H74   H     H_    0.321967 0.657852 0.246395 0.170416
H75   H     H_    0.173751 0.160102 0.749102 0.170617
H76   H     H_    0.824128 0.159013 0.248713 0.170560
H77   H     H_    0.671762 0.593753 0.738231 0.218925
H78   H     H_    0.328112 0.593381 0.261024 0.218892
H79   H     H_    0.170934 0.095763 0.734191 0.219078
H80   H     H_    0.828555 0.094591 0.263454 0.218980
H81   H     H_    0.597002 0.706297 0.039417 0.149224
H82   H     H_    0.402989 0.706299 0.960568 0.149238
H83   H     H_    0.097003 0.206297 0.039418 0.149197
H84   H     H_    0.902990 0.206298 0.960570 0.149244
H85   H     H_    0.673406 0.609005 0.854687 0.238661
H86   H     H_    0.327278 0.609036 0.145374 0.238655
H87   H     H_    0.176988 0.108915 0.854851 0.238681
H88   H     H_    0.825080 0.108952 0.145211 0.238663
H89   H     H_    0.638216 0.573097 0.782730 0.197437
H90   H     H_    0.362463 0.573122 0.217318 0.197419
H91   H     H_    0.141760 0.073041 0.782829 0.197533
H92   H     H_    0.860282 0.073058 0.217195 0.197472
H93   H     H_    0.642245 0.621983 0.682549 0.167385
H94   H     H_    0.357100 0.621621 0.316727 0.167406
H95   H     H_    0.138673 0.123879 0.678754 0.167448
H96   H     H_    0.859236 0.122787 0.319057 0.167514
H97   H     H_    0.660170 0.706408 0.039786 0.155661
H98   H     H_    0.339826 0.706409 0.960207 0.155684
H99   H     H_    0.160171 0.206408 0.039788 0.155562
H100  H     H_    0.839827 0.206408 0.960209 0.155627
H101  H     H_    0.959178 0.874662 0.322798 0.171181
H102  H     H_    0.040821 0.874694 0.677266 0.171179
H103  H     H_    0.459172 0.374522 0.323078 0.171194
H104  H     H_    0.540826 0.374566 0.677010 0.171188
H105  H     H_    0.923226 0.838721 0.250863 0.170031
H106  H     H_    0.076773 0.838753 0.749200 0.170028
H107  H     H_    0.423220 0.338581 0.251143 0.170048
H108  H     H_    0.576778 0.338626 0.748945 0.170043
H109  H     H_    0.824981 0.891327 0.145475 0.172288
H110  H     H_    0.175083 0.891328 0.854528 0.172217
H111  H     H_    0.325260 0.391320 0.145488 0.172384
H112  H     H_    0.674829 0.391322 0.854516 0.172361
H113  H     H_    0.878987 0.878803 0.170554 0.170489
H114  H     H_    0.121082 0.878832 0.829504 0.170476
H115  H     H_    0.379288 0.378674 0.170811 0.170512
H116  H     H_    0.620808 0.378715 0.829270 0.170508
H117  H     H_    0.914936 0.914744 0.242485 0.170960
H118  H     H_    0.085132 0.914773 0.757573 0.170944
H119  H     H_    0.415238 0.414615 0.242742 0.171004
H120  H     H_    0.584858 0.414656 0.757339 0.170992
N1    N     N_R   0.517195 0.724048 0.000095 -0.175059
N2    N     N_R   0.482796 0.724048 0.999886 -0.175069
N3    N     N_R   0.017195 0.224046 0.000095 -0.174961
N4    N     N_R   0.982796 0.224047 0.999888 -0.174999
N5    N     N_R   0.482909 0.775885 0.000114 -0.174672
N6    N     N_R   0.517084 0.775885 0.999874 -0.174673
N7    N     N_R   0.982909 0.275884 0.000112 -0.174565
N8    N     N_R   0.017083 0.275884 0.999871 -0.174582
N9    N     N_R   0.008768 0.749937 0.051891 -0.173411
N10   N     N_R   0.991232 0.749935 0.948109 -0.173399
N11   N     N_R   0.508767 0.249937 0.051890 -0.173383
N12   N     N_R   0.491231 0.249934 0.948108 -0.173344
N13   N     N_R   0.043074 0.750048 0.051919 -0.168817
N14   N     N_R   0.956925 0.750046 0.948081 -0.168792
N15   N     N_R   0.543074 0.250048 0.051918 -0.168715
N16   N     N_R   0.456925 0.250044 0.948079 -0.168642
O1    O     O_R   0.798060 0.763370 0.096070 -0.617769
O2    O     O_R   0.201940 0.763370 0.903930 -0.617761
O3    O     O_R   0.298060 0.263370 0.096070 -0.617778
O4    O     O_R   0.701940 0.263370 0.903930 -0.617771
O5    O     O_R   0.001940 0.969340 0.561310 -0.617869
O6    O     O_R   0.998060 0.969340 0.438690 -0.617866
O7    O     O_R   0.501940 0.469340 0.561310 -0.617863
O8    O     O_R   0.498060 0.469340 0.438690 -0.617854
O9    O     O_R   0.497920 0.530770 0.438300 -0.616858
O10   O     O_R   0.502080 0.530770 0.561700 -0.616842
O11   O     O_R   0.997920 0.030770 0.438300 -0.616831
O12   O     O_R   0.002080 0.030770 0.561700 -0.616766
O13   O     O_R   0.440430 0.530760 0.438330 -0.613607
O14   O     O_R   0.559570 0.530760 0.561670 -0.613622
O15   O     O_R   0.940430 0.030760 0.438330 -0.613571
O16   O     O_R   0.059570 0.030760 0.561670 -0.613631
O17   O     O_R   0.763350 0.798040 0.026640 -0.617038
O18   O     O_R   0.236650 0.798040 0.973360 -0.617060
O19   O     O_R   0.263350 0.298040 0.026640 -0.617016
O20   O     O_R   0.736650 0.298040 0.973360 -0.617014
O21   O     O_R   0.716420 0.732650 0.034650 -0.625340
O22   O     O_R   0.283580 0.732650 0.965350 -0.625317
O23   O     O_R   0.216420 0.232650 0.034650 -0.625443
O24   O     O_R   0.783580 0.232650 0.965350 -0.625379
O25   O     O_R   0.681710 0.767330 0.965220 -0.620608
O26   O     O_R   0.318290 0.767330 0.034780 -0.620675
O27   O     O_R   0.181710 0.267330 0.965220 -0.620293
O28   O     O_R   0.818290 0.267330 0.034780 -0.620475
O29   O     O_R   0.736630 0.701940 0.973210 -0.613537
O30   O     O_R   0.263370 0.701940 0.026790 -0.613341
O31   O     O_R   0.236630 0.201940 0.973210 -0.614573
O32   O     O_R   0.763370 0.201940 0.026790 -0.613980
O33   O     O_R   0.701920 0.736610 0.903790 -0.597752
O34   O     O_R   0.298080 0.736610 0.096210 -0.597853
O35   O     O_R   0.201920 0.236610 0.903790 -0.597241
O36   O     O_R   0.798080 0.236610 0.096210 -0.597521
O37   O     O_R   0.818270 0.732650 0.034640 -0.618853
O38   O     O_R   0.181730 0.732650 0.965360 -0.618819
O39   O     O_R   0.318270 0.232650 0.034640 -0.619035
O40   O     O_R   0.681730 0.232650 0.965360 -0.618930
O41   O     O_R   0.783570 0.767330 0.965210 -0.622273
O42   O     O_R   0.216430 0.767330 0.034790 -0.622257
O43   O     O_R   0.283570 0.267330 0.965210 -0.622356
O44   O     O_R   0.716430 0.267330 0.034790 -0.622295
O45   O     O_R   0.059430 0.969340 0.561280 -0.616152
O46   O     O_R   0.940570 0.969340 0.438720 -0.616136
O47   O     O_R   0.559430 0.469340 0.561280 -0.616111
O48   O     O_R   0.440570 0.469340 0.438720 -0.616114
Zn1   Zn    Zn3+2 0.773170 0.726840 0.046290 0.973210
Zn2   Zn    Zn3+2 0.226830 0.726840 0.953710 0.973394
Zn3   Zn    Zn3+2 0.273170 0.226840 0.046290 0.972264
Zn4   Zn    Zn3+2 0.726830 0.226840 0.953710 0.972826
Zn5   Zn    Zn3+2 0.726820 0.773140 0.953570 0.988274
Zn6   Zn    Zn3+2 0.273180 0.773140 0.046430 0.988142
Zn7   Zn    Zn3+2 0.226820 0.273140 0.953570 0.988781
Zn8   Zn    Zn3+2 0.773180 0.273140 0.046430 0.988558
Zn9   Zn    Zn3+2 0.538320 0.500060 0.499790 0.971862
Zn10  Zn    Zn3+2 0.461680 0.500060 0.500210 0.971867
Zn11  Zn    Zn3+2 0.038320 0.000060 0.499790 0.971833
Zn12  Zn    Zn3+2 0.961680 0.000060 0.500210 0.971930
Cl1   Cl    Cl    0.599099 0.691014 0.706143 -0.615557
Cl2   Cl    Cl    0.400081 0.691039 0.293909 -0.615574
Cl3   Cl    Cl    0.094848 0.190778 0.706635 -0.615359
Cl4   Cl    Cl    0.902704 0.190935 0.293694 -0.615376
Cl5   Cl    Cl    0.731321 0.626927 0.833352 -0.620756
Cl6   Cl    Cl    0.268606 0.626472 0.165734 -0.620730
Cl7   Cl    Cl    0.230743 0.129399 0.828384 -0.620881
Cl8   Cl    Cl    0.768882 0.127952 0.168710 -0.620793

loop_
_geom_bond_atom_site_label_1
_geom_bond_atom_site_label_2
_ccdc_geom_bond_type
O1    Zn1   S    
C24   H8    S    
C101  C113  S    
C142  C146  T    
C116  C132  S    
C150  O46   A    
C4    O4    A    
C111  C139  T    
N5    N6    A    
N10   N14   A    
O26   Zn6   S    
C25   C53   T    
C27   C55   T    
C98   C114  S    
C7    C159  A    
C22   C38   S    
O33   Zn5   S    
C135  O39   A    
C20   H112  S    
O35   Zn7   S    
C32   C52   S    
C41   H17   S    
C6    C158  A    
C104  C116  S    
O7    Zn10  S    
C86   C134  S    
C100  H88   S    
C112  C155  S    
C70   C74   A    
C2    O2    A    
C67   H35   S    
O4    Zn4   S    
C119  H55   S    
O23   Zn3   S    
C101  Cl1   S    
C34   H102  S    
C99   H87   S    
C114  C130  S    
C74   C93   S    
C107  H67   S    
C135  O43   A    
C108  C124  S    
C41   C49   S    
C156  O12   A    
C48   O28   A    
C165  C169  A    
C129  H73   S    
C44   H20   S    
C70   H38   S    
C164  C168  A    
C132  Cl8   S    
O36   Zn8   S    
C167  C171  A    
C6    C174  A    
C17   C21   S    
C134  O38   A    
C16   H108  S    
C19   C23   S    
C13   C33   S    
C102  C114  S    
C78   C82   A    
C79   H43   S    
N7    N8    A    
C12   N8    A    
O5    Zn12  S    
C131  Cl7   S    
C170  H82   S    
C109  C154  S    
C9    N2    A    
O39   Zn3   S    
O48   Zn10  S    
O44   Zn8   S    
C47   O27   A    
C100  H60   S    
O31   Zn3   S    
O34   Zn6   S    
C170  C174  A    
C104  H64   S    
O24   Zn4   S    
O8    Zn9   S    
C59   C63   T    
C126  H94   S    
C26   C149  S    
C84   C88   A    
C102  Cl2   S    
C10   N6    A    
C45   O21   A    
C57   C61   T    
C18   H110  S    
C119  C123  S    
C108  H72   S    
O19   Zn7   S    
C2    O18   A    
C60   C64   T    
O21   Zn1   S    
C158  H2    S    
C77   H41   S    
C174  H98   S    
C133  O41   A    
C97   C117  S    
C127  C131  S    
C153  O13   A    
C99   C119  S    
C125  C129  S    
C46   O22   A    
C73   C77   A    
C103  C107  S    
C104  Cl4   S    
C75   C79   A    
C161  C165  A    
C27   C152  S    
C112  C140  T    
C120  H56   S    
C91   C147  S    
C28   C56   T    
C29   C49   S    
C121  C125  S    
C82   H50   S    
C13   H21   S    
C127  H79   S    
C9    C166  S    
O47   Zn9   S    
C92   O32   A    
O32   Zn4   S    
C155  O11   A    
C31   C59   S    
C123  C139  S    
C99   H59   S    
C43   H19   S    
C118  C122  S    
C121  C137  S    
O11   Zn11  S    
C160  H4    S    
O37   Zn1   S    
C116  C144  S    
C149  O5    A    
C103  Cl3   S    
C161  H45   S    
C66   H34   S    
N11   N15   A    
C16   H24   S    
C37   C53   S    
C44   C52   S    
O40   Zn4   S    
C119  H91   S    
C127  H95   S    
C128  H96   S    
O29   Zn1   S    
C26   C54   T    
C24   H120  S    
C131  H75   S    
C98   C118  S    
C50   H14   S    
C175  H99   S    
C45   O25   A    
O13   Zn10  S    
C101  H61   S    
C20   H116  S    
C21   H117  S    
C92   O36   A    
O2    Zn2   S    
C3    O3    A    
C23   H7    S    
C98   H86   S    
C123  C127  S    
C98   H58   S    
C47   O23   A    
O20   Zn8   S    
C95   N15   A    
C106  C122  S    
C126  H78   S    
C105  H69   S    
C156  O16   A    
C42   C50   S    
C166  C170  A    
C12   N3    A    
C130  Cl6   S    
C91   O35   A    
C173  H97   S    
C154  O10   A    
C51   H15   S    
C20   C32   S    
O38   Zn2   S    
C18   C22   S    
C5    C173  A    
C76   C80   A    
C31   C51   S    
C66   C86   A    
C8    C176  A    
C15   C31   S    
C141  C145  T    
C16   C32   S    
C66   C70   A    
C171  H83   S    
C1    O17   A    
C22   H6    S    
C110  C153  S    
C16   C36   S    
C10   N1    A    
C13   H105  S    
C34   H26   S    
N9    N13   A    
C117  H53   S    
C128  H80   S    
C113  C141  S    
O27   Zn7   S    
C37   C41   S    
O46   Zn12  S    
C40   C44   S    
C49   H9    S    
C28   C151  S    
C89   O29   A    
C169  C173  A    
C91   O31   A    
C52   H12   S    
C2    C62   S    
C117  H89   S    
N12   N16   A    
C50   H10   S    
C58   C62   T    
C83   C87   A    
C93   N10   A    
C120  H92   S    
C92   C148  S    
C17   C29   S    
C100  C116  S    
C107  C123  S    
C80   C84   A    
C19   C31   S    
C12   C167  S    
C136  O44   A    
O16   Zn11  S    
O28   Zn8   S    
C160  C164  A    
C13   C29   S    
C97   H85   S    
C94   N14   A    
C96   N11   A    
C99   C115  S    
C129  Cl5   S    
C126  C130  S    
C105  H65   S    
C36   H104  S    
C162  C166  A    
C15   H107  S    
C39   C55   S    
C40   C56   S    
C69   C73   A    
O10   Zn10  S    
C72   C76   A    
C124  C128  S    
C48   O24   A    
C30   C50   S    
C19   H115  S    
C35   H103  S    
O9    Zn9   S    
C73   C94   S    
C106  H66   S    
C23   H119  S    
C134  O42   A    
C75   C96   S    
C143  C147  T    
C4    O20   A    
C43   H31   S    
C87   C135  S    
C90   O30   A    
C69   H37   S    
C122  C138  S    
C83   H51   S    
C82   C86   A    
C5    C45   S    
C33   C37   S    
C7    C47   S    
C35   C39   S    
N3    N4    A    
C8    C48   S    
O18   Zn6   S    
C18   H114  S    
C38   C54   S    
C77   C81   A    
C149  O45   A    
C151  O7    A    
C152  O8    A    
C65   C85   A    
C88   C136  S    
C81   H49   S    
C96   N16   A    
C72   H40   S    
C29   C57   S    
C5    C157  A    
C11   C168  S    
O45   Zn11  S    
C32   C60   S    
C22   H118  S    
C157  C161  A    
C95   N12   A    
C104  C108  S    
C124  C140  S    
C159  H3    S    
C1    C61   S    
C3    C63   S    
C3    O19   A    
C4    C64   S    
O22   Zn2   S    
O6    Zn11  S    
C78   H42   S    
C79   C83   A    
C43   C51   S    
C93   N13   A    
C65   C69   A    
C46   O26   A    
O15   Zn12  S    
C42   H30   S    
C67   C71   A    
C154  O14   A    
C151  O47   A    
C51   H11   S    
C168  C172  A    
C21   C37   S    
C103  H63   S    
C74   C78   A    
C85   C133  S    
C133  O37   A    
O42   Zn6   S    
C1    O1    A    
N1    N2    A    
C103  C115  S    
C144  C148  T    
C11   N4    A    
C33   H101  S    
C14   H106  S    
C21   H5    S    
C14   H22   S    
C113  C129  S    
C114  C142  S    
C107  H71   S    
C38   C42   S    
C76   C95   S    
C115  C131  S    
C71   H39   S    
C49   H13   S    
C89   O33   A    
C44   H32   S    
O41   Zn5   S    
C109  C137  T    
C52   H16   S    
O12   Zn12  S    
C164  H48   S    
C117  C121  S    
C118  H90   S    
C162  H46   S    
C94   N9    A    
C7    C175  A    
C18   C30   S    
C172  H84   S    
C111  C156  S    
C65   H33   S    
C136  O40   A    
C68   C72   A    
C89   C145  S    
O43   Zn7   S    
C169  H81   S    
O30   Zn2   S    
C14   C30   S    
C176  H100  S    
C15   C35   S    
C17   H109  S    
C130  H74   S    
O14   Zn9   S    
C101  C105  S    
C115  C143  S    
C102  H62   S    
C20   C24   S    
C36   C40   S    
C97   H57   S    
C39   C43   S    
C171  C175  A    
O3    Zn3   S    
C125  H93   S    
C25   C150  S    
C122  C126  S    
C163  C167  A    
C9    N5    A    
C15   H23   S    
C11   N7    A    
C19   H111  S    
C108  H68   S    
C105  C121  S    
C157  H1    S    
C106  H70   S    
C125  H77   S    
C100  C120  S    
C110  C138  T    
O25   Zn5   S    
C68   C88   A    
C159  C163  A    
C90   O34   A    
C42   H18   S    
C97   C113  S    
C84   H52   S    
C153  O9    A    
C132  H76   S    
C128  C132  S    
C6    C46   S    
C34   C38   S    
C152  O48   A    
C14   C34   S    
C80   H44   S    
O17   Zn5   S    
C163  H47   S    
C150  O6    A    
C67   C87   A    
C68   H36   S    
C90   C146  S    
C71   C75   A    
C35   H27   S    
C17   H113  S    
C118  H54   S    
C10   C165  S    
C23   C39   S    
C30   C58   S    
C33   H25   S    
C24   C40   S    
C102  C106  S    
C41   H29   S    
C81   C85   A    
C158  C162  A    
C172  C176  A    
C155  O15   A    
C36   H28   S    
C120  C124  S    
C8    C160  A    
