data_mof_unit_32959.cif
_audit_creation_date              2012-12-10T17:29:16-0500
_audit_creation_method            fapswitch 2.2
_symmetry_space_group_name_H-M    P1
_symmetry_Int_Tables_number       1
_space_group_crystal_system       triclinic
_cell_length_a                    11.995244
_cell_length_b                    12.885847
_cell_length_c                    13.119105
_cell_angle_alpha                 87.421861
_cell_angle_beta                  113.408295
_cell_angle_gamma                 93.495742
_cell_volume                      1856.97158224

loop_
_atom_site_label
_atom_site_type_symbol
_atom_type_description
_atom_site_fract_x
_atom_site_fract_y
_atom_site_fract_z
_atom_type_partial_charge
C1    C     C_R   0.477175 0.299443 0.497935 0.897617
C2    C     C_R   0.563284 0.527446 0.988714 0.050220
C3    C     C_R   0.539606 0.553230 0.877095 0.085246
C4    C     C_R   0.472048 0.543423 0.027921 0.093844
C5    C     C_R   0.370399 0.602470 0.963874 0.171074
C6    C     C_R   0.359448 0.642811 0.860244 -0.253841
C7    C     C_R   0.442815 0.618231 0.816941 -0.188186
C8    C     C_R   0.477548 0.498810 0.127901 -0.260269
C9    C     C_R   0.296344 0.583505 0.111033 -0.173701
C10   C     C_R   0.612657 0.511698 0.828669 -0.159142
C11   C     C_R   0.536590 0.811852 0.503493 -0.050848
C12   C     C_R   0.567463 0.502146 0.708459 0.880068
C13   C     C_R   0.463906 0.188063 0.497739 -0.058096
C14   C     C_R   0.359912 0.028920 0.520357 -0.215942
C15   C     C_R   0.366000 0.136493 0.514097 -0.190522
C16   C     C_R   0.554218 0.132887 0.485310 -0.275595
C17   C     C_R   0.549356 0.026108 0.492128 0.185399
C18   C     C_R   0.451627 0.973781 0.510081 0.187121
C19   C     C_R   0.446641 0.866973 0.516633 -0.283810
C20   C     C_R   0.634613 0.863442 0.487377 -0.199407
C21   C     C_R   0.641009 0.971002 0.481717 -0.215369
C22   C     C_R   0.003869 0.590612 0.387993 -0.306310
C23   C     C_R   0.522930 0.700533 0.502364 0.875542
C24   C     C_R   0.125127 0.583025 0.400174 0.046574
C25   C     C_R   0.161193 0.462175 0.550127 -0.038225
C26   C     C_R   0.039789 0.467340 0.541018 0.088759
C27   C     C_R   0.960131 0.532496 0.458753 0.088894
C28   C     C_R   0.838769 0.537751 0.449760 -0.049699
C29   C     C_R   0.874825 0.416799 0.599642 0.022808
C30   C     C_R   0.996017 0.409114 0.611686 -0.319198
C31   C     C_R   0.433544 0.505193 0.291329 0.883617
C32   C     C_R   0.282201 0.620982 0.005366 -0.194393
C33   C     C_R   0.396218 0.524228 0.172944 -0.059291
C34   C     C_R   0.723774 0.469103 0.896303 -0.222400
C35   C     C_R   0.757979 0.460926 0.010620 0.220982
C36   C     C_R   0.677070 0.486720 0.056558 -0.234127
H1    H     H_    0.232839 0.604295 0.145862 0.162645
H2    H     H_    0.704500 0.820885 0.477144 0.160634
H3    H     H_    0.284522 0.989055 0.533828 0.139848
H4    H     H_    0.716418 0.010881 0.468288 0.143156
H5    H     H_    0.295909 0.179084 0.523935 0.163852
H6    H     H_    0.629377 0.172851 0.471351 0.164535
H7    H     H_    0.776860 0.588124 0.387259 0.127211
H8    H     H_    0.842048 0.372145 0.654804 0.132876
H9    H     H_    0.944822 0.641257 0.323540 0.150455
H10   H     H_    0.054982 0.358258 0.675935 0.150884
H11   H     H_    0.157870 0.627561 0.344919 0.130033
H12   H     H_    0.284878 0.691150 0.811484 0.149061
H13   H     H_    0.223099 0.411807 0.612622 0.131639
H14   H     H_    0.204984 0.667063 0.957816 0.142896
H15   H     H_    0.547385 0.445798 0.174362 0.157968
H16   H     H_    0.782798 0.440293 0.860420 0.175401
H17   H     H_    0.706724 0.477348 0.145504 0.155037
H18   H     H_    0.431635 0.652044 0.736697 0.170301
H19   H     H_    0.371525 0.826942 0.530616 0.157619
N1    N     N_R   0.798200 0.480260 0.519790 -0.098645
N2    N     N_R   0.201820 0.519740 0.480210 -0.101077
O1    O     O_R   0.579910 0.341070 0.505280 -0.624616
O2    O     O_R   0.388440 0.353740 0.492580 -0.613153
O3    O     O_R   0.643280 0.490550 0.663120 -0.616252
O4    O     O_R   0.451810 0.503220 0.650420 -0.622101
O5    O     O_R   0.611560 0.646260 0.507420 -0.621822
O6    O     O_R   0.420090 0.658930 0.494720 -0.637439
O7    O     O_R   0.548190 0.496780 0.349580 -0.622070
O8    O     O_R   0.356720 0.509450 0.336880 -0.607102
Zn1   Zn    Zn3+2 0.627850 0.491540 0.508480 0.942136
Zn2   Zn    Zn3+2 0.372150 0.508460 0.491520 0.948407
I1    I     I_    0.928425 0.403108 0.113434 -0.421713

loop_
_geom_bond_atom_site_label_1
_geom_bond_atom_site_label_2
_ccdc_geom_bond_type
C2    C4    A    
C31   C33   S    
C29   C30   A    
C29   N1    A    
C20   H2    S    
C14   C18   A    
C28   H7    S    
C34   H16   S    
C35   C36   A    
C9    C32   A    
C4    C8    A    
C5    C32   A    
C11   C19   A    
C23   O6    A    
C2    C3    A    
C28   N1    A    
O3    Zn1   S    
C10   C34   A    
C3    C10   A    
C1    O1    A    
C9    C33   A    
C12   O4    A    
C8    H15   S    
C32   H14   S    
C26   C27   A    
C6    C7    A    
C21   H4    S    
C6    H12   S    
C35   I1    S    
N2    Zn2   S    
N1    Zn1   S    
C4    C5    A    
C10   C12   S    
C11   C23   S    
C25   C26   A    
C1    O2    A    
O1    Zn1   S    
C26   C30   A    
C3    C7    A    
C22   C24   A    
C8    C33   A    
C13   C15   A    
C29   H8    S    
C5    C6    A    
O6    Zn2   S    
C11   C20   A    
C1    C13   S    
O5    Zn1   S    
C2    C36   A    
C12   O3    A    
C16   H6    S    
C25   N2    A    
C22   C27   A    
C22   H9    S    
C20   C21   A    
C15   H5    S    
C17   C18   A    
C34   C35   A    
C13   C16   A    
C19   H19   S    
C27   C28   A    
C31   O8    A    
O4    Zn2   S    
C14   C15   A    
C18   C19   A    
C36   H17   S    
C7    H18   S    
O2    Zn2   S    
C14   H3    S    
C24   H11   S    
C31   O7    A    
C30   H10   S    
C23   O5    A    
C17   C21   A    
C9    H1    S    
C16   C17   A    
C24   N2    A    
O8    Zn2   S    
C25   H13   S    
O7    Zn1   S    
