data_mof_unit_53696.cif
_audit_creation_date              2013-03-05T16:50:10-0500
_audit_creation_method            fapswitch 2.2
_symmetry_space_group_name_H-M    P1
_symmetry_Int_Tables_number       1
_space_group_crystal_system       triclinic
_cell_length_a                    27.747577
_cell_length_b                    10.865329
_cell_length_c                    26.418066
_cell_angle_alpha                 91.030851
_cell_angle_beta                  90.123343
_cell_angle_gamma                 89.61098
_cell_volume                      7963.20261669

loop_
_atom_site_label
_atom_site_type_symbol
_atom_site_description
_atom_site_fract_x
_atom_site_fract_y
_atom_site_fract_z
_atom_type_partial_charge
O1    O     O_R   0.500000 0.319660 0.542350 -0.537946
O2    O     O_R   0.500000 0.680340 0.457650 -0.530980
O3    O     O_R   0.500000 0.319630 0.457650 -0.577205
O4    O     O_R   0.500000 0.680370 0.542350 -0.579267
C1    C     C_R   0.499383 0.262128 0.499442 0.845700
C2    C     C_R   0.500518 0.738030 0.500477 0.885885
O5    O     O_R   0.430260 0.500030 0.542340 -0.594222
O6    O     O_R   0.569740 0.499970 0.457660 -0.594463
O7    O     O_R   0.430270 0.500010 0.457650 -0.571863
O8    O     O_R   0.569730 0.499990 0.542350 -0.584473
C3    C     C_R   0.407274 0.495721 0.499972 0.811148
C4    C     C_R   0.592774 0.499198 0.500075 0.802691
Cu1   Cu    Cu3+1 0.500000 0.500020 0.550150 0.979555
Cu2   Cu    Cu3+1 0.500000 0.499980 0.449850 0.984921
O9    O     O_2   0.443630 0.662665 0.785594 -0.486575
O10   O     O_2   0.573758 0.392615 0.214096 -0.481145
C5    C     C_R   0.424484 0.611100 0.055010 0.690819
C6    C     C_R   0.560257 0.339402 0.944070 0.675452
H1    H     H_    0.562121 0.611192 0.630573 0.163362
H2    H     H_    0.560374 0.617988 0.371261 0.174185
C7    C     C_R   0.177370 0.380201 0.520199 0.658052
C8    C     C_R   0.821622 0.601241 0.500424 0.647901
O11   O     O_2   0.202468 0.276597 0.530078 -0.474535
O12   O     O_2   0.795099 0.704986 0.496001 -0.496587
N1    N     N_R   0.201318 0.479568 0.501976 -0.467635
N2    N     N_R   0.798589 0.490813 0.503563 -0.458717
C9    C     C_R   0.177376 0.583503 0.487586 0.567488
C10   C     C_R   0.823372 0.383239 0.510081 0.563872
C11   C     C_R   0.278911 0.483939 0.547169 0.467711
C12   C     C_R   0.722478 0.501726 0.455443 0.504835
C13   C     C_R   0.329276 0.486174 0.546467 -0.280830
C14   C     C_R   0.671857 0.508442 0.455334 -0.308018
C15   C     C_R   0.328098 0.484157 0.454713 -0.249989
C16   C     C_R   0.670869 0.476672 0.545917 -0.259233
C17   C     C_R   0.277899 0.478546 0.455236 -0.146440
C18   C     C_R   0.721003 0.474680 0.546591 -0.185570
C19   C     C_R   0.253091 0.478196 0.501324 0.226216
C20   C     C_R   0.746915 0.488550 0.501734 0.250340
C21   C     C_R   0.101769 0.492125 0.512957 -0.206637
C22   C     C_R   0.898595 0.496118 0.509519 -0.194192
C23   C     C_R   0.127083 0.386041 0.528528 -0.173654
C24   C     C_R   0.872424 0.606797 0.502728 -0.185012
C25   C     C_R   0.102035 0.291807 0.553772 0.435682
C26   C     C_R   0.897631 0.719539 0.500529 0.385951
C27   C     C_R   0.127030 0.591383 0.491909 -0.107647
C28   C     C_R   0.873910 0.383157 0.512856 -0.089876
C29   C     C_R   0.354248 0.487928 0.500290 -0.121595
C30   C     C_R   0.645829 0.494772 0.500393 -0.112366
H3    H     H_    0.346444 0.486447 0.418603 0.194216
H4    H     H_    0.651745 0.466315 0.581263 0.197645
H5    H     H_    0.258196 0.475995 0.419819 0.192955
H6    H     H_    0.739872 0.463466 0.582147 0.190097
C31   C     C_R   0.975234 0.388464 0.524009 0.022145
C32   C     C_R   0.025525 0.604462 0.501819 0.012353
C33   C     C_R   0.974613 0.609447 0.507213 -0.087712
C34   C     C_R   0.025557 0.393934 0.533595 -0.085649
C35   C     C_R   0.949525 0.498034 0.513319 0.020074
C36   C     C_R   0.050945 0.497185 0.516488 0.018384
C37   C     C_R   0.950203 0.276306 0.523423 -0.293498
C38   C     C_R   0.051495 0.700421 0.479676 -0.261186
C39   C     C_R   0.900352 0.273341 0.518567 0.604513
C40   C     C_R   0.101319 0.694991 0.475235 0.648258
O13   O     O_2   0.798953 0.276997 0.514212 -0.494727
O14   O     O_2   0.202464 0.679147 0.469584 -0.474036
C41   C     C_R   0.051506 0.300691 0.559858 0.336741
C42   C     C_R   0.947796 0.721252 0.506953 0.326836
H7    H     H_    0.652980 0.526132 0.420268 0.169948
H8    H     H_    0.348575 0.489166 0.582147 0.182645
H9    H     H_    0.969069 0.189265 0.525988 0.211974
H10   H     H_    0.033635 0.778260 0.462884 0.219053
C43   C     C_R   0.365084 0.215950 0.401714 -0.272412
C44   C     C_R   0.641946 0.767581 0.581384 -0.240648
H11   H     H_    0.331045 0.257436 0.412405 0.205724
H12   H     H_    0.673453 0.721420 0.566114 0.213651
C45   C     C_R   0.398588 0.184205 0.438967 -0.384885
C46   C     C_R   0.605880 0.809110 0.548747 -0.384716
H13   H     H_    0.390026 0.201557 0.478446 0.185609
H14   H     H_    0.609826 0.793857 0.508333 0.182983
C47   C     C_R   0.441061 0.120815 0.425415 0.039679
C48   C     C_R   0.566507 0.876811 0.567993 0.044680
C49   C     C_R   0.450753 0.096197 0.373949 0.600109
C50   C     C_R   0.562555 0.897004 0.620595 0.620813
C51   C     C_R   0.417754 0.131605 0.336819 -0.256222
C52   C     C_R   0.598210 0.852653 0.653144 -0.268919
H15   H     H_    0.425163 0.111501 0.297309 0.232204
H16   H     H_    0.595198 0.869035 0.693551 0.231694
C53   C     C_R   0.374691 0.190211 0.350720 0.654055
C54   C     C_R   0.638061 0.788744 0.633529 0.628997
C55   C     C_R   0.468568 0.933243 0.469203 0.457443
C56   C     C_R   0.533794 0.067195 0.530217 0.468665
C57   C     C_R   0.500807 0.871900 0.501183 -0.254419
C58   C     C_R   0.501378 0.128589 0.497913 -0.265400
C59   C     C_R   0.532663 0.938547 0.532881 -0.064367
C60   C     C_R   0.471121 0.061500 0.464766 -0.078705
C61   C     C_R   0.463292 0.555867 0.187914 0.698822
C62   C     C_R   0.529554 0.421783 0.811461 0.684236
O15   O     O_2   0.426355 0.607820 0.213868 -0.476374
O16   O     O_2   0.556876 0.339929 0.785133 -0.499601
N3    N     N_R   0.500734 0.502602 0.213642 -0.420400
N4    N     N_R   0.500813 0.503031 0.786085 -0.414148
C63   C     C_R   0.538872 0.450606 0.187877 0.685153
C64   C     C_R   0.472605 0.586889 0.811932 0.681618
C65   C     C_R   0.534780 0.568345 0.296743 0.504762
C66   C     C_R   0.535958 0.564427 0.704356 0.502815
C67   C     C_R   0.533930 0.566139 0.349791 -0.035924
C68   C     C_R   0.534922 0.562683 0.651279 -0.058506
C69   C     C_R   0.465991 0.435704 0.348087 -0.071703
C70   C     C_R   0.465498 0.437198 0.650872 -0.040692
C71   C     C_R   0.465483 0.435216 0.294956 0.520748
C72   C     C_R   0.465061 0.436927 0.703996 0.514751
C73   C     C_R   0.500294 0.502004 0.268605 0.097773
C74   C     C_R   0.500620 0.501266 0.731264 0.110836
C75   C     C_R   0.502325 0.506648 0.107402 -0.117209
C76   C     C_R   0.502079 0.508164 0.892247 -0.117377
C77   C     C_R   0.463133 0.557598 0.134523 -0.099552
C78   C     C_R   0.530656 0.422624 0.864842 -0.089075
C79   C     C_R   0.424060 0.606673 0.107768 -0.201351
C80   C     C_R   0.558734 0.337502 0.891268 -0.247802
C81   C     C_R   0.541339 0.455083 0.134230 -0.222541
C82   C     C_R   0.473358 0.593328 0.865703 -0.218547
N5    N     N_R   0.500000 0.499970 0.374520 -0.237547
N6    N     N_R   0.500000 0.500030 0.625480 -0.238880
H17   H     H_    0.439126 0.385076 0.368347 0.163759
H18   H     H_    0.438225 0.386960 0.629927 0.174714
H19   H     H_    0.392277 0.639938 0.127594 0.224538
H20   H     H_    0.578931 0.266481 0.871120 0.218561
C83   C     C_R   0.469640 0.584844 0.973576 -0.097164
C84   C     C_R   0.539277 0.444617 0.026201 -0.096951
C85   C     C_R   0.534788 0.430425 0.972517 0.006783
C86   C     C_R   0.465187 0.569865 0.026997 -0.000053
C87   C     C_R   0.502267 0.508136 0.946218 -0.080031
C88   C     C_R   0.502357 0.507341 0.053431 -0.075584
C89   C     C_R   0.444544 0.677081 0.946717 0.600764
C90   C     C_R   0.580207 0.404067 0.053528 0.599038
C91   C     C_R   0.447250 0.683706 0.893800 0.372513
C92   C     C_R   0.581974 0.412185 0.106569 0.372195
O17   O     O_3   0.028885 0.215945 0.590695 -0.622405
C93   C     C_3   0.999532 0.274654 0.628402 0.034150
H21   H     H_    0.964167 0.227303 0.628407 0.189553
H22   H     H_    0.991971 0.374036 0.622186 0.141935
C94   C     C_3   0.022111 0.263673 0.681004 -0.402019
H23   H     H_    0.030532 0.165886 0.688896 0.223796
H24   H     H_    0.055939 0.317539 0.682487 0.217194
C95   C     C_3   0.988221 0.313265 0.722085 -0.847769
H25   H     H_    0.979681 0.411825 0.715710 0.254954
H26   H     H_    0.005797 0.304988 0.759681 0.262918
H27   H     H_    0.954262 0.259688 0.722163 0.262571
O18   O     O_3   0.969542 0.834637 0.514388 -0.617332
C96   C     C_3   0.983515 0.850193 0.565695 0.056312
H28   H     H_    0.016824 0.906407 0.566470 0.194299
H29   H     H_    0.992751 0.762284 0.584811 0.124666
C97   C     C_3   0.944258 0.919655 0.595403 -0.264540
H30   H     H_    0.937497 0.010178 0.577743 0.265619
H31   H     H_    0.910271 0.866248 0.594327 0.249350
C98   C     C_3   0.959117 0.940190 0.650495 -0.920117
H32   H     H_    0.962569 0.850579 0.669806 0.259086
H33   H     H_    0.931414 0.997094 0.670388 0.272857
H34   H     H_    0.994131 0.988654 0.652595 0.262978
F1    F     F_    0.342137 0.221586 0.314772 -0.580786
F2    F     F_    0.673017 0.747651 0.665055 -0.602159
F3    F     F_    0.491372 0.034241 0.359961 -0.619551
F4    F     F_    0.524684 0.961519 0.640174 -0.614490
O19   O     O_3   0.433847 0.865912 0.442963 -0.572828
C99   C     C_3   0.386976 0.898431 0.460418 0.045210
H35   H     H_    0.366555 0.938486 0.428374 0.189892
H36   H     H_    0.386361 0.966490 0.492666 0.133754
C100  C     C_3   0.360880 0.784302 0.477610 -0.365244
H37   H     H_    0.359371 0.717339 0.445476 0.250916
H38   H     H_    0.381209 0.743487 0.509511 0.211130
C101  C     C_3   0.309780 0.815392 0.495158 -0.786184
H39   H     H_    0.310556 0.883545 0.526994 0.247331
H40   H     H_    0.292052 0.731008 0.508513 0.259034
H41   H     H_    0.288296 0.853287 0.463445 0.294417
O20   O     O_3   0.565477 0.131916 0.561440 -0.562210
C102  C     C_3   0.603505 0.182880 0.532959 0.072460
H42   H     H_    0.618808 0.258980 0.556249 0.186420
H43   H     H_    0.591416 0.223785 0.496756 0.112307
C103  C     C_3   0.643591 0.088562 0.522168 -0.395014
H44   H     H_    0.654738 0.044481 0.558011 0.255086
H45   H     H_    0.630020 0.017070 0.495310 0.221843
C104  C     C_3   0.687355 0.149019 0.498491 -0.797199
H46   H     H_    0.676881 0.196690 0.463232 0.238442
H47   H     H_    0.714949 0.077791 0.489070 0.283737
H48   H     H_    0.703353 0.216481 0.525561 0.285793
O21   O     O_3   0.422371 0.777714 0.870225 -0.523876
C105  C     C_3   0.454447 0.873586 0.857672 0.127979
H49   H     H_    0.442156 0.911544 0.821026 0.210906
H50   H     H_    0.492485 0.842227 0.851750 0.123523
C106  C     C_3   0.452706 0.976809 0.897913 -0.327987
H51   H     H_    0.414582 0.002982 0.905571 0.272041
H52   H     H_    0.469262 0.943999 0.933555 0.256158
C107  C     C_3   0.479985 0.090239 0.880866 -0.833794
H53   H     H_    0.518459 0.066811 0.873893 0.271837
H54   H     H_    0.477980 0.162818 0.910932 0.267997
H55   H     H_    0.463785 0.127079 0.845709 0.276304
O22   O     O_3   0.623791 0.373964 0.130550 -0.525082
C108  C     C_3   0.651181 0.477613 0.146316 0.129259
H56   H     H_    0.671774 0.450932 0.180574 0.194721
H57   H     H_    0.628664 0.558968 0.157751 0.142876
C109  C     C_3   0.687026 0.513828 0.105226 -0.345503
H58   H     H_    0.708195 0.431505 0.092827 0.271460
H59   H     H_    0.667118 0.550013 0.072091 0.245499
C110  C     C_3   0.721511 0.612928 0.124588 -0.868457
H60   H     H_    0.701092 0.696636 0.136716 0.271296
H61   H     H_    0.746677 0.637956 0.093874 0.275130
H62   H     H_    0.742900 0.578490 0.157050 0.257968
F5    F     F_    0.421379 0.770425 0.971524 -0.597824
F6    F     F_    0.621310 0.369522 0.029264 -0.598051
F7    F     F_    0.431563 0.369704 0.269343 -0.601821
F8    F     F_    0.430424 0.374292 0.728688 -0.623352
O23   O     O_3   0.126626 0.185220 0.567050 -0.535946
C111  C     C_3   0.133501 0.175835 0.620060 0.128259
H63   H     H_    0.156934 0.094025 0.626001 0.174729
H64   H     H_    0.099401 0.154465 0.639179 0.158507
C112  C     C_3   0.158525 0.287652 0.645146 -0.426428
H65   H     H_    0.193286 0.304991 0.626016 0.295856
H66   H     H_    0.135373 0.370984 0.642155 0.186186
C113  C     C_3   0.168583 0.265528 0.701060 -0.863132
H67   H     H_    0.134469 0.248077 0.721550 0.249769
H68   H     H_    0.185974 0.348069 0.718222 0.268286
H69   H     H_    0.193198 0.185343 0.705403 0.269890
O24   O     O_3   0.873415 0.831167 0.497799 -0.537694
C114  C     C_3   0.866777 0.863335 0.446483 0.186100
H70   H     H_    0.833915 0.922176 0.444809 0.205814
H71   H     H_    0.859831 0.782203 0.421018 0.107641
C115  C     C_3   0.909673 0.937031 0.426943 -0.331337
H72   H     H_    0.920343 0.007745 0.455640 0.292264
H73   H     H_    0.940787 0.874067 0.420158 0.220101
C116  C     C_3   0.897440 0.000875 0.377545 -0.895884
H74   H     H_    0.885801 0.932377 0.348365 0.258989
H75   H     H_    0.929763 0.049220 0.363498 0.273813
H76   H     H_    0.868251 0.069836 0.383858 0.265773
F9    F     F_    0.382596 0.642763 0.031936 -0.578691
F10   F     F_    0.582226 0.242750 0.966571 -0.594187
F11   F     F_    0.571010 0.627230 0.729410 -0.624089
F12   F     F_    0.568628 0.635698 0.272963 -0.634036
O25   O     O_3   0.748865 0.519716 0.411704 -0.602234
C117  C     C_3   0.740425 0.423851 0.375770 0.034141
H77   H     H_    0.752847 0.456614 0.338435 0.188859
H78   H     H_    0.701549 0.401766 0.371024 0.140906
C118  C     C_3   0.769240 0.307578 0.388759 -0.369820
H79   H     H_    0.808015 0.330744 0.393035 0.238051
H80   H     H_    0.756146 0.270632 0.425059 0.244802
C119  C     C_3   0.763630 0.208033 0.347749 -0.858239
H81   H     H_    0.725048 0.183657 0.342973 0.267623
H82   H     H_    0.783869 0.124206 0.358787 0.258167
H83   H     H_    0.778049 0.240468 0.311173 0.260795
O26   O     O_3   0.254711 0.485374 0.592798 -0.610943
C120  C     C_3   0.248026 0.609029 0.608748 0.024063
H84   H     H_    0.231161 0.664945 0.578337 0.156283
H85   H     H_    0.283293 0.650288 0.619694 0.162879
C121  C     C_3   0.214533 0.612814 0.654565 -0.313370
H86   H     H_    0.179384 0.571156 0.643890 0.211254
H87   H     H_    0.230714 0.558251 0.685578 0.242456
C122  C     C_3   0.205837 0.744642 0.673456 -0.878925
H88   H     H_    0.240463 0.788172 0.684724 0.270486
H89   H     H_    0.181659 0.744089 0.706905 0.259724
H90   H     H_    0.188446 0.799884 0.643384 0.255046
F13   F     F_    0.878344 0.162212 0.519831 -0.636679
F14   F     F_    0.123835 0.790849 0.453250 -0.594350

loop_
_geom_bond_atom_site_label_1
_geom_bond_atom_site_label_2
_geom_bond_distance
_ccdc_geom_bond_type
C51   C53   1.396868 A    
C110  H60   1.110942 S    
C122  H89   1.110777 S    
C65   F12   1.356748 S    
C75   C88   1.425975 A    
C43   C45   1.398448 A    
C98   H33   1.110374 S    
C14   C30   1.404330 A    
C76   C87   1.425819 A    
C32   C33   1.420718 A    
C3    C29   1.474402 S    
C114  H70   1.111349 S    
C69   H17   1.078259 S    
C103  C104  1.525209 S    
C44   C46   1.397379 A    
C84   C85   1.429090 A    
C66   C68   1.402214 A    
C103  H44   1.111176 S    
C31   C37   1.406587 A    
C114  C115  1.534541 S    
C102  H43   1.112059 S    
C32   C38   1.408032 A    
C104  H46   1.111101 S    
C108  C109  1.532243 S    
C22   C28   1.413836 A    
C110  H61   1.110376 S    
C117  C118  1.534203 S    
C10   C28   1.404037 A    
C120  H84   1.116082 S    
C113  H69   1.110810 S    
O1    C1    1.284726 A    
C114  H71   1.116798 S    
C65   C73   1.405277 A    
C99   H35   1.111269 S    
C17   C19   1.400058 A    
C46   H14   1.083180 S    
C92   O22   1.385617 S    
C116  H76   1.110422 S    
C112  H66   1.110494 S    
C15   C17   1.394759 A    
C61   N3    1.370857 A    
C104  H48   1.109041 S    
C101  H39   1.110803 S    
C15   H3    1.083002 S    
C2    C57   1.454406 S    
C27   C40   1.405651 A    
C55   C60   1.402858 A    
C119  H81   1.110952 S    
C12   C20   1.406132 A    
C38   C40   1.388466 A    
C118  H79   1.111672 S    
O4    Cu1   1.974049 S    
C106  H52   1.110288 S    
O20   C102  1.418629 S    
C71   C73   1.405284 A    
N1    C19   1.436680 S    
C91   O21   1.385355 S    
C75   C81   1.410969 A    
C90   F6    1.356919 S    
C66   F11   1.356330 S    
O21   C105  1.418980 S    
O19   C99   1.421052 S    
C61   C77   1.410958 A    
C109  H58   1.111536 S    
C77   C79   1.400622 A    
C62   O16   1.349209 S    
C8    C24   1.412463 A    
C14   H7    1.082789 S    
C46   C48   1.403977 A    
C97   C98   1.524789 S    
C86   C88   1.420364 A    
O6    C4    1.288919 A    
C55   C57   1.402544 A    
C25   O23   1.390214 S    
C6    C80   1.395246 A    
C42   O18   1.386097 S    
C18   H6    1.082781 S    
C4    C30   1.472625 S    
C21   C27   1.413177 A    
C41   O17   1.393753 S    
C9    C27   1.403814 A    
C22   C24   1.414576 A    
C122  H90   1.111664 S    
O9    C64   1.348180 S    
Cu2   N5    1.990071 S    
C13   C29   1.404747 A    
Cu1   Cu2   2.649727 S    
C98   H34   1.109029 S    
C69   C71   1.403558 A    
C96   H29   1.116477 S    
C72   F8    1.356447 S    
C24   C26   1.416876 A    
C70   H18   1.081553 S    
C95   H27   1.110980 S    
C71   F7    1.356248 S    
C84   C88   1.416835 A    
N4    C64   1.370885 A    
N2    C10   1.365468 A    
C44   C54   1.396827 A    
C100  C101  1.526490 S    
C72   C74   1.403317 A    
C104  H47   1.110381 S    
C7    O11   1.348856 S    
C13   H8    1.083173 S    
C110  H62   1.110879 S    
C117  H78   1.113012 S    
C37   C39   1.389435 A    
C16   H4    1.082989 S    
C28   C39   1.406736 A    
C63   C81   1.420780 A    
C107  H55   1.110879 S    
C83   C89   1.416595 A    
O18   C96   1.416520 S    
C47   C60   1.484881 S    
C44   H12   1.080211 S    
C93   H21   1.111076 S    
C112  C113  1.525670 S    
C100  H37   1.108965 S    
C43   H11   1.079740 S    
C31   C35   1.416207 A    
C102  C103  1.531025 S    
N2    C20   1.434893 S    
C90   C92   1.403193 A    
C50   F4    1.357366 S    
C21   C36   1.414179 A    
O8    Cu1   1.946219 S    
O2    C2    1.283633 A    
C100  H38   1.110455 S    
C76   C78   1.408897 A    
C118  H80   1.109109 S    
C94   H24   1.109766 S    
C107  H54   1.110366 S    
C106  C107  1.526037 S    
O5    C3    1.287339 A    
O7    Cu2   1.946221 S    
H1    C68   1.078960 S    
C116  H74   1.110849 S    
C84   C90   1.416431 A    
C57   C59   1.410899 A    
C95   H26   1.110378 S    
O7    C3    1.290248 A    
C121  H87   1.112012 S    
C113  H68   1.110434 S    
O23   C111  1.418336 S    
C111  C112  1.542042 S    
C38   H10   1.079131 S    
C25   C41   1.414029 A    
N3    C73   1.452225 S    
C68   N6    1.362470 A    
C58   C60   1.408965 A    
C67   N5    1.363380 A    
C65   C67   1.402318 A    
C61   O15   1.349240 S    
C111  H63   1.110968 S    
C108  H57   1.116558 S    
C45   H13   1.083122 S    
C26   C42   1.402132 A    
O3    Cu2   1.974051 S    
O8    C4    1.287965 A    
C78   C80   1.400303 A    
C121  C122  1.526115 S    
C7    C23   1.413883 A    
O4    C2    1.281222 A    
C51   H15   1.082375 S    
C97   H31   1.110693 S    
N4    C74   1.448069 S    
C120  H85   1.114584 S    
C115  H73   1.110734 S    
C33   C35   1.412437 A    
C17   H5    1.082670 S    
N1    C9    1.365758 A    
C15   C29   1.404550 A    
C11   O26   1.380923 S    
C43   C53   1.396812 A    
C96   C97   1.530779 S    
O1    Cu1   1.966785 S    
C39   F13   1.357767 S    
C12   O25   1.386775 S    
C105  H50   1.117368 S    
C122  H88   1.111422 S    
C93   H22   1.113614 S    
C40   F14   1.358173 S    
C33   C42   1.420377 A    
C64   C82   1.421079 A    
O26   C120  1.411967 S    
C56   C59   1.401406 A    
C66   C74   1.402648 A    
H2    C67   1.081577 S    
C32   C36   1.417812 A    
C31   C34   1.420025 A    
C106  H51   1.111578 S    
C119  H82   1.109903 S    
C7    N1    1.367038 A    
C117  H77   1.110902 S    
C120  C121  1.527400 S    
O6    Cu2   1.945642 S    
C22   C35   1.416798 A    
N3    C63   1.372387 A    
C5    C86   1.417301 A    
C49   F3    1.357396 S    
C99   C100  1.517301 S    
C62   C78   1.410366 A    
C23   C25   1.418592 A    
C52   C54   1.397338 A    
C70   N6    1.364080 A    
O22   C108  1.418711 S    
O3    C1    1.278542 A    
C93   C94   1.529406 S    
C49   C51   1.397711 A    
C103  H45   1.109803 S    
C6    F10   1.356462 S    
C26   O24   1.385504 S    
C94   C95   1.526082 S    
C5    F9    1.356446 S    
C89   F5    1.356589 S    
C115  C116  1.525440 S    
O17   C93   1.426947 S    
C56   O20   1.390022 S    
C50   C52   1.398275 A    
C81   C92   1.416580 A    
C119  H83   1.110754 S    
C95   H25   1.110950 S    
C118  C119  1.525515 S    
C107  H53   1.110816 S    
C82   C91   1.416527 A    
C105  C106  1.531966 S    
C99   H36   1.118107 S    
C105  H49   1.111156 S    
C83   C86   1.429253 A    
C116  H75   1.110359 S    
C102  H42   1.108101 S    
C94   H23   1.109649 S    
C12   C14   1.406023 A    
Cu1   N6    1.990071 S    
C113  H67   1.110542 S    
C37   H9    1.080949 S    
C70   C72   1.403560 A    
C101  H40   1.107061 S    
C53   F1    1.355657 S    
C109  C110  1.526010 S    
O25   C117  1.416950 S    
C62   N4    1.368990 A    
C18   C20   1.398416 A    
C56   C58   1.411141 A    
C48   C50   1.407352 A    
C34   C36   1.410454 A    
C8    O12   1.348708 S    
C54   F2    1.355628 S    
C112  H65   1.108701 S    
C47   C49   1.407117 A    
C108  H56   1.111138 S    
O2    Cu2   1.966784 S    
C83   C87   1.416870 A    
C1    C58   1.451465 S    
C9    O14   1.348972 S    
C111  H64   1.101636 S    
C10   O13   1.348710 S    
O10   C63   1.348452 S    
O5    Cu1   1.945642 S    
C16   C30   1.403895 A    
C97   H30   1.110793 S    
C16   C18   1.391199 A    
C11   C13   1.398051 A    
C115  H72   1.110811 S    
C8    N2    1.367180 A    
C21   C23   1.412785 A    
C11   C19   1.406470 A    
C98   H32   1.110791 S    
C89   C91   1.403298 A    
C69   N5    1.361730 A    
C52   H16   1.082359 S    
C6    C85   1.417176 A    
C80   H20   1.083275 S    
C75   C77   1.408305 A    
C48   C59   1.484039 S    
C96   H28   1.111249 S    
C79   H19   1.083309 S    
C45   C47   1.404781 A    
O24   C114  1.417403 S    
C55   O19   1.390085 S    
C109  H59   1.110544 S    
C76   C82   1.412090 A    
C34   C41   1.428106 A    
C5    C79   1.395544 A    
C121  H86   1.111692 S    
C85   C87   1.420559 A    
C101  H41   1.110729 S    
