data_mof_unit_64747.cif
_audit_creation_date              2012-12-10T19:41:35-0500
_audit_creation_method            fapswitch 2.2
_symmetry_space_group_name_H-M    P1
_symmetry_Int_Tables_number       1
_space_group_crystal_system       monoclinic
_cell_length_a                    18.265197
_cell_length_b                    30.500153
_cell_length_c                    30.720653
_cell_angle_alpha                 90.0
_cell_angle_beta                  89.226334
_cell_angle_gamma                 90.0
_cell_volume                      17112.6484049

loop_
_atom_site_label
_atom_site_type_symbol
_atom_type_description
_atom_site_fract_x
_atom_site_fract_y
_atom_site_fract_z
_atom_type_partial_charge
C1    C     C_R   0.499307 0.689783 0.309890 0.875467
C2    C     C_R   0.500693 0.689783 0.690110 0.875467
C3    C     C_R   0.999307 0.189783 0.309890 0.875467
C4    C     C_R   0.000693 0.189783 0.690110 0.875467
C5    C     C_R   0.999307 0.689783 0.809890 0.875467
C6    C     C_R   0.000693 0.689783 0.190110 0.875467
C7    C     C_R   0.499307 0.189783 0.809890 0.875467
C8    C     C_R   0.500693 0.189783 0.190110 0.875467
C9    C     C_R   0.556391 0.623516 0.404236 0.147556
C10   C     C_R   0.443609 0.623516 0.595764 0.147556
C11   C     C_R   0.056391 0.123516 0.404236 0.147556
C12   C     C_R   0.943609 0.123516 0.595764 0.147556
C13   C     C_R   0.056391 0.623517 0.904236 0.147556
C14   C     C_R   0.943609 0.623516 0.095764 0.147556
C15   C     C_R   0.556391 0.123516 0.904236 0.147556
C16   C     C_R   0.443609 0.123517 0.095764 0.147556
C17   C     C_3   0.578287 0.654822 0.439110 -0.503722
C18   C     C_3   0.421713 0.654822 0.560889 -0.503722
C19   C     C_3   0.078287 0.154822 0.439110 -0.503722
C20   C     C_3   0.921713 0.154822 0.560889 -0.503723
C21   C     C_3   0.078286 0.654822 0.939111 -0.503722
C22   C     C_3   0.921712 0.654822 0.060890 -0.503721
C23   C     C_3   0.578287 0.154822 0.939110 -0.503721
C24   C     C_3   0.421714 0.154822 0.060889 -0.503722
C25   C     C_3   0.576564 0.690607 0.404775 -0.470287
C26   C     C_3   0.423436 0.690607 0.595225 -0.470287
C27   C     C_3   0.076564 0.190607 0.404775 -0.470286
C28   C     C_3   0.923436 0.190607 0.595225 -0.470286
C29   C     C_3   0.076563 0.690607 0.904775 -0.470285
C30   C     C_3   0.923435 0.690607 0.095225 -0.470286
C31   C     C_3   0.576564 0.190607 0.904775 -0.470287
C32   C     C_3   0.423436 0.190607 0.095224 -0.470285
C33   C     C_R   0.540748 0.879870 0.160189 0.132873
C34   C     C_R   0.459253 0.879870 0.839811 0.132873
C35   C     C_R   0.040748 0.379870 0.160189 0.132874
C36   C     C_R   0.959252 0.379870 0.839811 0.132873
C37   C     C_R   0.040748 0.879870 0.660189 0.132874
C38   C     C_R   0.959252 0.879870 0.339811 0.132873
C39   C     C_R   0.540748 0.379870 0.660189 0.132873
C40   C     C_R   0.459251 0.379869 0.339811 0.132872
C41   C     C_R   0.497538 0.842810 0.157403 -0.096813
C42   C     C_R   0.502462 0.842810 0.842597 -0.096813
C43   C     C_R   0.997538 0.342810 0.157403 -0.096813
C44   C     C_R   0.002462 0.342810 0.842597 -0.096812
C45   C     C_R   0.997538 0.842810 0.657403 -0.096813
C46   C     C_R   0.002462 0.842810 0.342597 -0.096813
C47   C     C_R   0.497538 0.342810 0.657403 -0.096812
C48   C     C_R   0.502462 0.342810 0.342597 -0.096812
C49   C     C_R   0.452274 0.837855 0.120975 -0.211622
C50   C     C_R   0.547726 0.837855 0.879025 -0.211621
C51   C     C_R   0.952274 0.337855 0.120975 -0.211622
C52   C     C_R   0.047726 0.337855 0.879025 -0.211622
C53   C     C_R   0.952274 0.837855 0.620975 -0.211622
C54   C     C_R   0.047727 0.837855 0.379025 -0.211622
C55   C     C_R   0.452273 0.337855 0.620975 -0.211622
C56   C     C_R   0.547727 0.337855 0.379024 -0.211622
C57   C     C_R   0.451838 0.870357 0.088745 -0.218353
C58   C     C_R   0.548161 0.870356 0.911255 -0.218352
C59   C     C_R   0.951839 0.370356 0.088745 -0.218352
C60   C     C_R   0.048162 0.370357 0.911255 -0.218353
C61   C     C_R   0.951839 0.870356 0.588745 -0.218353
C62   C     C_R   0.048162 0.870357 0.411255 -0.218352
C63   C     C_R   0.451838 0.370357 0.588745 -0.218352
C64   C     C_R   0.548162 0.370357 0.411255 -0.218352
C65   C     C_R   0.498407 0.906886 0.092469 -0.097670
C66   C     C_R   0.501593 0.906886 0.907530 -0.097670
C67   C     C_R   0.998407 0.406886 0.092469 -0.097670
C68   C     C_R   0.001593 0.406886 0.907530 -0.097670
C69   C     C_R   0.998407 0.906886 0.592469 -0.097670
C70   C     C_R   0.001593 0.906886 0.407531 -0.097671
C71   C     C_R   0.498407 0.406886 0.592469 -0.097671
C72   C     C_R   0.501593 0.406886 0.407531 -0.097671
C73   C     C_R   0.542290 0.910143 0.128595 0.132181
C74   C     C_R   0.457711 0.910143 0.871405 0.132182
C75   C     C_R   0.042289 0.410143 0.128595 0.132180
C76   C     C_R   0.957710 0.410143 0.871405 0.132181
C77   C     C_R   0.042289 0.910143 0.628595 0.132181
C78   C     C_R   0.957710 0.910143 0.371405 0.132181
C79   C     C_R   0.542290 0.410143 0.628594 0.132181
C80   C     C_R   0.457710 0.410143 0.371406 0.132182
C81   C     C_3   0.598299 0.937588 0.150438 -0.497391
C82   C     C_3   0.401702 0.937588 0.849561 -0.497393
C83   C     C_3   0.098299 0.437588 0.150438 -0.497393
C84   C     C_3   0.901701 0.437588 0.849562 -0.497393
C85   C     C_3   0.098299 0.937588 0.650438 -0.497393
C86   C     C_3   0.901700 0.937587 0.349562 -0.497391
C87   C     C_3   0.598300 0.437587 0.650438 -0.497393
C88   C     C_3   0.401699 0.437587 0.349562 -0.497391
C89   C     C_R   0.358970 0.750194 0.250028 0.927405
C90   C     C_R   0.358970 0.749786 0.750053 0.930728
C91   C     C_R   0.641030 0.749786 0.249946 0.930729
C92   C     C_R   0.641030 0.750194 0.749972 0.927404
C93   C     C_R   0.858970 0.250194 0.250028 0.927405
C94   C     C_R   0.858970 0.249786 0.750053 0.930728
C95   C     C_R   0.141030 0.249786 0.249946 0.930729
C96   C     C_R   0.141030 0.250194 0.749972 0.927404
C97   C     C_R   0.858970 0.750194 0.750028 0.927404
C98   C     C_R   0.858970 0.749786 0.250053 0.930728
C99   C     C_R   0.141030 0.749786 0.749946 0.930729
C100  C     C_R   0.141030 0.750194 0.249972 0.927404
C101  C     C_R   0.358970 0.250194 0.750028 0.927404
C102  C     C_R   0.358970 0.249786 0.250053 0.930728
C103  C     C_R   0.641030 0.249786 0.749946 0.930728
C104  C     C_R   0.641030 0.250194 0.249972 0.927404
C105  C     C_3   0.597147 0.902516 0.186571 -0.483262
C106  C     C_3   0.402854 0.902516 0.813428 -0.483261
C107  C     C_3   0.097146 0.402516 0.186571 -0.483261
C108  C     C_3   0.902853 0.402516 0.813429 -0.483262
C109  C     C_3   0.097147 0.902516 0.686571 -0.483261
C110  C     C_3   0.902852 0.902515 0.313429 -0.483262
C111  C     C_3   0.597148 0.402515 0.686571 -0.483262
C112  C     C_3   0.402851 0.402515 0.313430 -0.483263
C113  C     C_R   0.500371 0.939937 0.939905 0.887339
C114  C     C_R   0.499629 0.939937 0.060095 0.887338
C115  C     C_R   0.000371 0.439937 0.939905 0.887339
C116  C     C_R   0.999629 0.439937 0.060095 0.887338
C117  C     C_R   0.000371 0.939937 0.439905 0.887339
C118  C     C_R   0.999629 0.939937 0.560094 0.887338
C119  C     C_R   0.500371 0.439937 0.439905 0.887339
C120  C     C_R   0.499629 0.439937 0.560094 0.887339
C121  C     C_R   0.500419 0.560172 0.439803 0.879868
C122  C     C_R   0.499581 0.560172 0.560196 0.879868
C123  C     C_R   0.000419 0.060172 0.439803 0.879869
C124  C     C_R   0.999581 0.060172 0.560196 0.879868
C125  C     C_R   0.000419 0.560172 0.939803 0.879869
C126  C     C_R   0.999581 0.560172 0.060196 0.879868
C127  C     C_R   0.500419 0.060172 0.939803 0.879868
C128  C     C_R   0.499581 0.060172 0.060196 0.879868
C129  C     C_R   0.499740 0.810039 0.190103 0.879949
C130  C     C_R   0.500260 0.810039 0.809897 0.879950
C131  C     C_R   0.999740 0.310039 0.190103 0.879949
C132  C     C_R   0.000260 0.310039 0.809897 0.879949
C133  C     C_R   0.999740 0.810039 0.690103 0.879948
C134  C     C_R   0.000260 0.810039 0.309897 0.879949
C135  C     C_R   0.499740 0.310039 0.690103 0.879948
C136  C     C_R   0.500260 0.310039 0.309897 0.879949
C137  C     C_1   0.282416 0.750584 0.250054 -0.191838
C138  C     C_1   0.282416 0.749384 0.750066 -0.196137
C139  C     C_1   0.717584 0.749384 0.249934 -0.196137
C140  C     C_1   0.717584 0.750584 0.749946 -0.191839
C141  C     C_1   0.782416 0.250584 0.250054 -0.191838
C142  C     C_1   0.782416 0.249384 0.750066 -0.196137
C143  C     C_1   0.217584 0.249384 0.249934 -0.196137
C144  C     C_1   0.217584 0.250584 0.749946 -0.191839
C145  C     C_1   0.782416 0.750584 0.750054 -0.191838
C146  C     C_1   0.782416 0.749384 0.250066 -0.196137
C147  C     C_1   0.217584 0.749384 0.749934 -0.196137
C148  C     C_1   0.217584 0.750584 0.249946 -0.191839
C149  C     C_1   0.282416 0.250584 0.750054 -0.191838
C150  C     C_1   0.282416 0.249384 0.250066 -0.196137
C151  C     C_1   0.717584 0.249384 0.749934 -0.196137
C152  C     C_1   0.717584 0.250584 0.249946 -0.191839
C153  C     C_R   0.555073 0.655888 0.373168 0.110252
C154  C     C_R   0.444927 0.655888 0.626832 0.110252
C155  C     C_R   0.055073 0.155888 0.373168 0.110252
C156  C     C_R   0.944927 0.155888 0.626832 0.110252
C157  C     C_R   0.055073 0.655888 0.873168 0.110252
C158  C     C_R   0.944926 0.655888 0.126832 0.110252
C159  C     C_R   0.555073 0.155888 0.873167 0.110252
C160  C     C_R   0.444927 0.155888 0.126832 0.110252
C161  C     C_R   0.500749 0.655975 0.341877 -0.083133
C162  C     C_R   0.499251 0.655975 0.658123 -0.083134
C163  C     C_R   0.000749 0.155975 0.341877 -0.083134
C164  C     C_R   0.999251 0.155975 0.658123 -0.083134
C165  C     C_R   0.000749 0.655975 0.841877 -0.083134
C166  C     C_R   0.999251 0.655975 0.158123 -0.083133
C167  C     C_R   0.500749 0.155975 0.841877 -0.083133
C168  C     C_R   0.499251 0.155975 0.158123 -0.083134
C169  C     C_R   0.452838 0.620215 0.338637 -0.212036
C170  C     C_R   0.547162 0.620215 0.661363 -0.212035
C171  C     C_R   0.952838 0.120215 0.338637 -0.212035
C172  C     C_R   0.047162 0.120215 0.661363 -0.212035
C173  C     C_R   0.952839 0.620215 0.838637 -0.212035
C174  C     C_R   0.047162 0.620215 0.161363 -0.212035
C175  C     C_R   0.452838 0.120215 0.838637 -0.212036
C176  C     C_R   0.547161 0.120215 0.161363 -0.212034
C177  C     C_R   0.452789 0.588084 0.370812 -0.221072
C178  C     C_R   0.547210 0.588084 0.629188 -0.221073
C179  C     C_R   0.952789 0.088084 0.370812 -0.221073
C180  C     C_R   0.047210 0.088084 0.629188 -0.221073
C181  C     C_R   0.952790 0.588084 0.870812 -0.221072
C182  C     C_R   0.047211 0.588084 0.129188 -0.221073
C183  C     C_R   0.452789 0.088084 0.870812 -0.221072
C184  C     C_R   0.547210 0.088084 0.129188 -0.221073
C185  C     C_R   0.502287 0.591324 0.405134 -0.094714
C186  C     C_R   0.497713 0.591324 0.594866 -0.094714
C187  C     C_R   0.002287 0.091324 0.405134 -0.094714
C188  C     C_R   0.997713 0.091324 0.594866 -0.094714
C189  C     C_R   0.002287 0.591324 0.905134 -0.094714
C190  C     C_R   0.997713 0.591324 0.094866 -0.094714
C191  C     C_R   0.502287 0.091324 0.905134 -0.094714
C192  C     C_R   0.497713 0.091324 0.094866 -0.094714
H1    H     H_    0.413289 0.561621 0.369581 0.156373
H2    H     H_    0.586711 0.561621 0.630419 0.156373
H3    H     H_    0.913289 0.061621 0.369581 0.156374
H4    H     H_    0.086711 0.061621 0.630419 0.156373
H5    H     H_    0.913289 0.561621 0.869581 0.156373
H6    H     H_    0.086711 0.561621 0.130419 0.156374
H7    H     H_    0.413289 0.061621 0.869581 0.156373
H8    H     H_    0.586711 0.061621 0.130419 0.156373
H9    H     H_    0.535468 0.658697 0.464880 0.191620
H10   H     H_    0.365769 0.647984 0.548812 0.211111
H11   H     H_    0.634231 0.647984 0.451188 0.211111
H12   H     H_    0.464532 0.658697 0.535120 0.191620
H13   H     H_    0.035468 0.158697 0.464880 0.191620
H14   H     H_    0.865769 0.147984 0.548812 0.211111
H15   H     H_    0.134231 0.147984 0.451188 0.211111
H16   H     H_    0.964533 0.158697 0.535120 0.191620
H17   H     H_    0.035467 0.658697 0.964880 0.191620
H18   H     H_    0.865768 0.647984 0.048812 0.211111
H19   H     H_    0.134230 0.647984 0.951188 0.211111
H20   H     H_    0.964532 0.658697 0.035120 0.191620
H21   H     H_    0.535468 0.158697 0.964880 0.191619
H22   H     H_    0.365769 0.147984 0.048812 0.211111
H23   H     H_    0.634231 0.147984 0.951188 0.211111
H24   H     H_    0.464533 0.158697 0.035120 0.191620
H25   H     H_    0.532612 0.715236 0.410599 0.216979
H26   H     H_    0.368489 0.704468 0.602926 0.203710
H27   H     H_    0.631511 0.704468 0.397073 0.203710
H28   H     H_    0.467388 0.715236 0.589401 0.216980
H29   H     H_    0.032612 0.215236 0.410599 0.216979
H30   H     H_    0.868489 0.204468 0.602926 0.203710
H31   H     H_    0.131511 0.204468 0.397073 0.203709
H32   H     H_    0.967388 0.215236 0.589401 0.216979
H33   H     H_    0.032611 0.715236 0.910599 0.216979
H34   H     H_    0.868488 0.704468 0.102927 0.203710
H35   H     H_    0.131511 0.704468 0.897074 0.203709
H36   H     H_    0.967387 0.715236 0.089401 0.216979
H37   H     H_    0.532612 0.215236 0.910599 0.216979
H38   H     H_    0.368489 0.204468 0.102926 0.203709
H39   H     H_    0.631512 0.204468 0.897073 0.203710
H40   H     H_    0.467389 0.215236 0.089401 0.216979
H41   H     H_    0.417248 0.809409 0.117712 0.161862
H42   H     H_    0.582751 0.809408 0.882289 0.161863
H43   H     H_    0.917249 0.309409 0.117711 0.161863
H44   H     H_    0.082752 0.309409 0.882288 0.161863
H45   H     H_    0.917248 0.809409 0.617712 0.161863
H46   H     H_    0.082752 0.809409 0.382288 0.161862
H47   H     H_    0.417247 0.309409 0.617712 0.161862
H48   H     H_    0.582753 0.309409 0.382288 0.161862
H49   H     H_    0.416638 0.866643 0.060879 0.159281
H50   H     H_    0.583361 0.866642 0.939121 0.159280
H51   H     H_    0.916639 0.366643 0.060879 0.159281
H52   H     H_    0.083362 0.366643 0.939121 0.159281
H53   H     H_    0.916638 0.866643 0.560879 0.159281
H54   H     H_    0.083362 0.866643 0.439121 0.159281
H55   H     H_    0.416638 0.366643 0.560879 0.159281
H56   H     H_    0.583363 0.366643 0.439120 0.159281
H57   H     H_    0.650743 0.938856 0.131704 0.211892
H58   H     H_    0.424007 0.969836 0.838953 0.198602
H59   H     H_    0.575995 0.969836 0.161047 0.198602
H60   H     H_    0.349258 0.938857 0.868295 0.211892
H61   H     H_    0.150743 0.438857 0.131704 0.211892
H62   H     H_    0.924005 0.469836 0.838953 0.198602
H63   H     H_    0.075994 0.469836 0.161047 0.198602
H64   H     H_    0.849257 0.438856 0.868296 0.211892
H65   H     H_    0.150743 0.938856 0.631704 0.211892
H66   H     H_    0.924004 0.969836 0.338953 0.198601
H67   H     H_    0.075994 0.969836 0.661047 0.198602
H68   H     H_    0.849256 0.938856 0.368296 0.211892
H69   H     H_    0.650744 0.438856 0.631703 0.211892
H70   H     H_    0.424002 0.469835 0.338954 0.198601
H71   H     H_    0.575996 0.469836 0.661046 0.198602
H72   H     H_    0.349255 0.438855 0.368297 0.211892
H73   H     H_    0.648770 0.883347 0.188488 0.200699
H74   H     H_    0.425314 0.914567 0.781822 0.212832
H75   H     H_    0.574687 0.914566 0.218177 0.212832
H76   H     H_    0.351231 0.883348 0.811511 0.200699
H77   H     H_    0.148770 0.383348 0.188488 0.200699
H78   H     H_    0.925313 0.414566 0.781822 0.212832
H79   H     H_    0.074687 0.414567 0.218178 0.212832
H80   H     H_    0.851230 0.383347 0.811512 0.200699
H81   H     H_    0.148770 0.883348 0.688488 0.200698
H82   H     H_    0.925312 0.914566 0.281823 0.212832
H83   H     H_    0.074687 0.914567 0.718178 0.212832
H84   H     H_    0.851230 0.883347 0.311512 0.200699
H85   H     H_    0.648771 0.383347 0.688487 0.200698
H86   H     H_    0.425310 0.414566 0.281823 0.212832
H87   H     H_    0.574688 0.414566 0.718177 0.212832
H88   H     H_    0.351228 0.383346 0.311513 0.200698
O1    O     O_R   0.500000 0.730040 0.321660 -0.625570
O2    O     O_R   0.500000 0.730040 0.678340 -0.625569
O3    O     O_R   0.000000 0.230040 0.321660 -0.625570
O4    O     O_R   0.000000 0.230040 0.678340 -0.625570
O5    O     O_R   0.000000 0.730040 0.821660 -0.625570
O6    O     O_R   0.000000 0.730040 0.178340 -0.625570
O7    O     O_R   0.500000 0.230040 0.821660 -0.625570
O8    O     O_R   0.500000 0.230040 0.178340 -0.625570
O9    O     O_R   0.500000 0.678320 0.269940 -0.622766
O10   O     O_R   0.500000 0.678320 0.730060 -0.622766
O11   O     O_R   0.000000 0.178320 0.269940 -0.622766
O12   O     O_R   0.000000 0.178320 0.730060 -0.622766
O13   O     O_R   0.000000 0.678320 0.769940 -0.622766
O14   O     O_R   0.000000 0.678320 0.230060 -0.622766
O15   O     O_R   0.500000 0.178320 0.769940 -0.622766
O16   O     O_R   0.500000 0.178320 0.230060 -0.622766
O17   O     O_R   0.392670 0.775850 0.275850 -0.617639
O18   O     O_R   0.392670 0.775850 0.724150 -0.623206
O19   O     O_R   0.607330 0.775850 0.275850 -0.623206
O20   O     O_R   0.607330 0.775850 0.724150 -0.617638
O21   O     O_R   0.892670 0.275850 0.275850 -0.617639
O22   O     O_R   0.892670 0.275850 0.724150 -0.623206
O23   O     O_R   0.107330 0.275850 0.275850 -0.623206
O24   O     O_R   0.107330 0.275850 0.724150 -0.617638
O25   O     O_R   0.892670 0.775850 0.775850 -0.617638
O26   O     O_R   0.892670 0.775850 0.224150 -0.623206
O27   O     O_R   0.107330 0.775850 0.775850 -0.623206
O28   O     O_R   0.107330 0.775850 0.224150 -0.617638
O29   O     O_R   0.392670 0.275850 0.775850 -0.617638
O30   O     O_R   0.392670 0.275850 0.224150 -0.623206
O31   O     O_R   0.607330 0.275850 0.775850 -0.623206
O32   O     O_R   0.607330 0.275850 0.224150 -0.617638
O33   O     O_R   0.392690 0.724130 0.224130 -0.623656
O34   O     O_R   0.392690 0.724130 0.775870 -0.616407
O35   O     O_R   0.607310 0.724130 0.224130 -0.616407
O36   O     O_R   0.607310 0.724130 0.775870 -0.623656
O37   O     O_R   0.892690 0.224130 0.224130 -0.623656
O38   O     O_R   0.892690 0.224130 0.775870 -0.616408
O39   O     O_R   0.107310 0.224130 0.224130 -0.616407
O40   O     O_R   0.107310 0.224130 0.775870 -0.623656
O41   O     O_R   0.892690 0.724130 0.724130 -0.623656
O42   O     O_R   0.892690 0.724130 0.275870 -0.616408
O43   O     O_R   0.107310 0.724130 0.724130 -0.616407
O44   O     O_R   0.107310 0.724130 0.275870 -0.623656
O45   O     O_R   0.392690 0.224130 0.724130 -0.623656
O46   O     O_R   0.392690 0.224130 0.275870 -0.616408
O47   O     O_R   0.607310 0.224130 0.724130 -0.616407
O48   O     O_R   0.607310 0.224130 0.275870 -0.623656
O49   O     O_R   0.500000 0.821650 0.230050 -0.622279
O50   O     O_R   0.500000 0.821650 0.769950 -0.622280
O51   O     O_R   0.000000 0.321650 0.230050 -0.622279
O52   O     O_R   0.000000 0.321650 0.769950 -0.622280
O53   O     O_R   0.000000 0.821650 0.730050 -0.622279
O54   O     O_R   0.000000 0.821650 0.269950 -0.622280
O55   O     O_R   0.500000 0.321650 0.730050 -0.622279
O56   O     O_R   0.500000 0.321650 0.269950 -0.622280
O57   O     O_R   0.500000 0.769930 0.178330 -0.624954
O58   O     O_R   0.500000 0.769930 0.821670 -0.624954
O59   O     O_R   0.000000 0.269930 0.178330 -0.624954
O60   O     O_R   0.000000 0.269930 0.821670 -0.624954
O61   O     O_R   0.000000 0.769930 0.678330 -0.624954
O62   O     O_R   0.000000 0.769930 0.321670 -0.624954
O63   O     O_R   0.500000 0.269930 0.678330 -0.624954
O64   O     O_R   0.500000 0.269930 0.321670 -0.624954
O65   O     O_R   0.439370 0.954170 0.954170 -0.625916
O66   O     O_R   0.439370 0.954170 0.045830 -0.622309
O67   O     O_R   0.560630 0.954170 0.954170 -0.622309
O68   O     O_R   0.560630 0.954170 0.045830 -0.625916
O69   O     O_R   0.939370 0.454170 0.954170 -0.625916
O70   O     O_R   0.939370 0.454170 0.045830 -0.622309
O71   O     O_R   0.060630 0.454170 0.954170 -0.622310
O72   O     O_R   0.060630 0.454170 0.045830 -0.625916
O73   O     O_R   0.939370 0.954170 0.454170 -0.625916
O74   O     O_R   0.939370 0.954170 0.545830 -0.622310
O75   O     O_R   0.060630 0.954170 0.454170 -0.622310
O76   O     O_R   0.060630 0.954170 0.545830 -0.625916
O77   O     O_R   0.439370 0.454170 0.454170 -0.625916
O78   O     O_R   0.439370 0.454170 0.545830 -0.622310
O79   O     O_R   0.560630 0.454170 0.454170 -0.622310
O80   O     O_R   0.560630 0.454170 0.545830 -0.625916
O81   O     O_R   0.439410 0.545780 0.454170 -0.625702
O82   O     O_R   0.439410 0.545780 0.545830 -0.618580
O83   O     O_R   0.560590 0.545780 0.454170 -0.618580
O84   O     O_R   0.560590 0.545780 0.545830 -0.625702
O85   O     O_R   0.939410 0.045780 0.454170 -0.625702
O86   O     O_R   0.939410 0.045780 0.545830 -0.618580
O87   O     O_R   0.060590 0.045780 0.454170 -0.618580
O88   O     O_R   0.060590 0.045780 0.545830 -0.625702
O89   O     O_R   0.939410 0.545780 0.954170 -0.625702
O90   O     O_R   0.939410 0.545780 0.045830 -0.618580
O91   O     O_R   0.060590 0.545780 0.954170 -0.618580
O92   O     O_R   0.060590 0.545780 0.045830 -0.625702
O93   O     O_R   0.439410 0.045780 0.954170 -0.625702
O94   O     O_R   0.439410 0.045780 0.045830 -0.618580
O95   O     O_R   0.560590 0.045780 0.954170 -0.618580
O96   O     O_R   0.560590 0.045780 0.045830 -0.625702
Zn1   Zn    Zn3+2 0.500000 0.784520 0.284530 0.952396
Zn2   Zn    Zn3+2 0.500000 0.784520 0.715470 0.952396
Zn3   Zn    Zn3+2 0.000000 0.284520 0.284530 0.952396
Zn4   Zn    Zn3+2 0.000000 0.284520 0.715470 0.952396
Zn5   Zn    Zn3+2 0.000000 0.784520 0.784530 0.952396
Zn6   Zn    Zn3+2 0.000000 0.784520 0.215470 0.952396
Zn7   Zn    Zn3+2 0.500000 0.284520 0.784530 0.952396
Zn8   Zn    Zn3+2 0.500000 0.284520 0.215470 0.952396
Zn9   Zn    Zn3+2 0.500000 0.715450 0.215460 0.958472
Zn10  Zn    Zn3+2 0.500000 0.715450 0.784540 0.958472
Zn11  Zn    Zn3+2 0.000000 0.215450 0.215460 0.958472
Zn12  Zn    Zn3+2 0.000000 0.215450 0.784540 0.958472
Zn13  Zn    Zn3+2 0.000000 0.715450 0.715460 0.958472
Zn14  Zn    Zn3+2 0.000000 0.715450 0.284540 0.958472
Zn15  Zn    Zn3+2 0.500000 0.215450 0.715460 0.958472
Zn16  Zn    Zn3+2 0.500000 0.215450 0.284540 0.958472
Zn17  Zn    Zn3+2 0.419100 0.999980 0.000000 0.951806
Zn18  Zn    Zn3+2 0.580900 0.999980 0.000000 0.951806
Zn19  Zn    Zn3+2 0.919100 0.499980 0.000000 0.951806
Zn20  Zn    Zn3+2 0.080900 0.499980 0.000000 0.951806
Zn21  Zn    Zn3+2 0.919100 0.999980 0.500000 0.951806
Zn22  Zn    Zn3+2 0.080900 0.999980 0.500000 0.951806
Zn23  Zn    Zn3+2 0.419100 0.499980 0.500000 0.951806
Zn24  Zn    Zn3+2 0.580900 0.499980 0.500000 0.951806
H89   H     H_    0.413253 0.618448 0.312738 0.155782
H90   H     H_    0.586747 0.618448 0.687261 0.155782
H91   H     H_    0.913253 0.118448 0.312738 0.155782
H92   H     H_    0.086747 0.118448 0.687261 0.155782
H93   H     H_    0.913254 0.618448 0.812738 0.155782
H94   H     H_    0.086747 0.618448 0.187261 0.155782
H95   H     H_    0.413253 0.118448 0.812738 0.155782
H96   H     H_    0.586746 0.118448 0.187262 0.155782

loop_
_geom_bond_atom_site_label_1
_geom_bond_atom_site_label_2
_ccdc_geom_bond_type
O6    Zn6   S    
C127  O93   A    
C93   O37   A    
C26   H26   S    
O75   Zn22  S    
C34   C42   A    
C95   O39   A    
C93   C141  S    
O68   Zn18  S    
C10   C154  A    
C92   O36   A    
C89   O17   A    
C179  H3    S    
O33   Zn9   S    
C177  H1    S    
C14   C158  A    
C175  C183  A    
C86   C110  S    
O47   Zn15  S    
O48   Zn16  S    
C70   C117  S    
C128  O96   A    
C62   C70   A    
C51   H43   S    
C169  C177  A    
C136  O56   A    
C99   C147  S    
C8    C168  S    
C110  H82   S    
C22   H20   S    
C84   H64   S    
O80   Zn24  S    
C99   O27   A    
O58   Zn10  S    
O19   Zn1   S    
C37   C109  S    
C180  H4    S    
C15   C23   S    
C39   C111  S    
C103  O47   A    
C79   C87   S    
C122  O82   A    
C94   O22   A    
C73   C81   S    
C174  H94   S    
C32   H38   S    
C166  C174  A    
C27   H29   S    
C101  C149  S    
C170  H90   S    
C30   H36   S    
C127  O95   A    
C54   H46   S    
C23   H23   S    
C20   C28   S    
C21   C29   S    
C115  O69   A    
C153  C161  A    
C94   C142  S    
C142  C151  T    
C24   C32   S    
O24   Zn4   S    
C46   C134  S    
C131  O51   A    
C11   C19   S    
C12   C20   S    
C1    O9    A    
O90   Zn19  S    
C17   H9    S    
C104  O48   A    
C114  O66   A    
C33   C73   A    
C170  C178  A    
O74   Zn21  S    
O13   Zn13  S    
C36   C44   A    
C53   H45   S    
O54   Zn6   S    
O11   Zn11  S    
O23   Zn3   S    
O66   Zn17  S    
C52   H44   S    
C39   C47   A    
C23   H21   S    
O9    Zn9   S    
C176  C184  A    
C15   C191  A    
C7    O15   A    
C97   C145  S    
C56   H48   S    
C140  C145  T    
O81   Zn23  S    
C44   C132  S    
C63   H55   S    
C45   C133  S    
C17   C25   S    
C104  C152  S    
O44   Zn14  S    
C80   C88   S    
C58   H50   S    
C1    O1    A    
O8    Zn8   S    
C10   C18   S    
C103  O31   A    
C31   H37   S    
C43   C131  S    
C159  C167  A    
C160  C168  A    
C112  H86   S    
C35   C107  S    
C23   C31   S    
C8    O8    A    
C179  C187  A    
C135  O55   A    
O88   Zn22  S    
C95   O23   A    
C182  C190  A    
C85   H65   S    
C89   O33   A    
O36   Zn10  S    
O61   Zn13  S    
O92   Zn20  S    
C32   H40   S    
C66   C113  S    
C16   C160  A    
C30   H34   S    
C137  C148  T    
C69   C77   A    
C119  O79   A    
C43   C51   A    
O79   Zn24  S    
C174  C182  A    
C71   C79   A    
C88   H70   S    
C40   C112  S    
C125  O89   A    
C114  O68   A    
O71   Zn20  S    
O51   Zn3   S    
C111  H85   S    
C82   H60   S    
O43   Zn13  S    
O34   Zn10  S    
C122  C186  S    
C39   C79   A    
C40   C80   A    
C105  H73   S    
C102  O30   A    
C22   H18   S    
C49   C57   A    
C120  O78   A    
C17   H11   S    
C52   C60   A    
C59   C67   A    
C53   C61   A    
C184  H8    S    
C55   C63   A    
C94   O38   A    
O26   Zn6   S    
C27   H31   S    
O94   Zn17  S    
O29   Zn7   S    
C11   C155  A    
C161  C169  A    
C90   O18   A    
C45   C53   A    
C117  O73   A    
C12   C156  A    
O49   Zn1   S    
C13   C157  A    
C90   C138  S    
C175  H95   S    
C176  H96   S    
C81   C105  S    
C134  O54   A    
O27   Zn5   S    
O38   Zn12  S    
C157  C165  A    
C124  C188  S    
O3    Zn3   S    
C155  C163  A    
C127  C191  S    
C31   H39   S    
C128  C192  S    
C178  C186  A    
C67   C116  S    
C112  H88   S    
O59   Zn11  S    
O57   Zn9   S    
C64   H56   S    
C28   H32   S    
C28   C156  S    
C184  C192  A    
C85   H67   S    
C86   H68   S    
C42   C50   A    
C28   H30   S    
C172  H92   S    
C173  H93   S    
C14   C22   S    
C20   H14   S    
C164  C172  A    
C67   C75   A    
O78   Zn23  S    
C119  O77   A    
C3    O3    A    
C87   H71   S    
O84   Zn24  S    
C169  H89   S    
O18   Zn2   S    
C167  C175  A    
C168  C176  A    
C7    C167  S    
C22   C30   S    
C47   C135  S    
O55   Zn7   S    
C48   C136  S    
O93   Zn17  S    
C136  O64   A    
C103  C151  S    
C105  H75   S    
O2    Zn2   S    
C97   O25   A    
C2    O10   A    
C108  H78   S    
C72   C80   A    
O76   Zn22  S    
C116  O70   A    
C24   H24   S    
C98   O26   A    
C104  O32   A    
C121  O81   A    
O14   Zn14  S    
O41   Zn13  S    
C130  O58   A    
C7    O7    A    
C173  C181  A    
C14   C190  A    
C99   O43   A    
C171  H91   S    
O10   Zn10  S    
C29   H35   S    
C117  O75   A    
C18   H12   S    
C96   O24   A    
C141  C152  T    
C6    C166  S    
C139  C146  T    
C95   C143  S    
O5    Zn5   S    
C25   H25   S    
C18   C26   S    
O7    Zn7   S    
C76   C84   S    
C2    O2    A    
C178  H2    S    
C88   H72   S    
C81   H59   S    
C125  O91   A    
C85   C109  S    
C62   H54   S    
C87   C111  S    
C92   O20   A    
C69   C118  S    
C177  C185  A    
C48   C56   A    
C41   C49   A    
C50   H42   S    
C86   H66   S    
C57   H49   S    
C180  C188  A    
O87   Zn22  S    
C126  C190  S    
O42   Zn14  S    
C181  C189  A    
O62   Zn14  S    
O89   Zn19  S    
C3    O11   A    
C38   C110  S    
C163  C171  A    
C87   H69   S    
C3    C163  S    
C172  C180  A    
C1    C161  S    
O45   Zn15  S    
O46   Zn16  S    
O70   Zn19  S    
C96   O40   A    
C74   C82   S    
C82   H58   S    
C27   C155  S    
C60   H52   S    
C106  H74   S    
C107  H79   S    
C50   C58   A    
C108  H80   S    
C33   C105  S    
C81   H57   S    
C116  O72   A    
C29   C157  S    
C54   C62   A    
C129  O57   A    
C135  O63   A    
C83   H63   S    
C121  O83   A    
C34   C106  S    
C4    O12   A    
C15   C159  A    
C120  O80   A    
O69   Zn19  S    
C5    O13   A    
O67   Zn18  S    
C162  C170  A    
C91   O19   A    
C102  O46   A    
C46   C54   A    
O4    Zn4   S    
C18   H10   S    
C102  C150  S    
C91   C139  S    
C113  O65   A    
O31   Zn7   S    
C89   C137  S    
C100  O44   A    
C25   H27   S    
O96   Zn18  S    
C92   C140  S    
O53   Zn5   S    
C158  C166  A    
O30   Zn8   S    
O35   Zn9   S    
C118  O76   A    
C106  H76   S    
C26   H28   S    
C57   C65   A    
C154  C162  A    
O72   Zn20  S    
O56   Zn8   S    
C9    C185  A    
C33   C41   A    
C171  C179  A    
C25   C153  S    
C156  C164  A    
C75   C83   S    
C37   C77   A    
C84   C108  S    
C21   H17   S    
C181  H5    S    
C126  O92   A    
O22   Zn4   S    
C68   C115  S    
C88   C112  S    
C36   C108  S    
C60   C68   A    
O1    Zn1   S    
C109  H81   S    
C111  H87   S    
C66   C74   A    
O39   Zn11  S    
C70   C78   A    
O77   Zn23  S    
C65   C114  S    
C182  H6    S    
C29   H33   S    
C129  O49   A    
C65   C73   A    
O82   Zn23  S    
O15   Zn15  S    
O21   Zn3   S    
O16   Zn16  S    
C35   C75   A    
C61   H53   S    
C71   C120  S    
C83   H61   S    
C11   C187  A    
C93   O21   A    
C6    O6    A    
C123  O87   A    
O12   Zn12  S    
C132  O52   A    
C96   C144  S    
C165  C173  A    
C12   C188  A    
C13   C189  A    
C59   H51   S    
C115  O71   A    
C40   C48   A    
C49   H41   S    
C36   C76   A    
C10   C186  A    
C58   C66   A    
C143  C150  T    
O40   Zn12  S    
C82   C106  S    
C130  O50   A    
C122  O84   A    
C4    C164  S    
C5    C165  S    
C124  O86   A    
C5    O5    A    
C78   C86   S    
O32   Zn8   S    
C133  O61   A    
C16   C24   S    
C118  O74   A    
C19   H15   S    
C90   O34   A    
C24   H22   S    
C19   C27   S    
C113  O67   A    
C4    O4    A    
C101  O45   A    
C38   C46   A    
C13   C21   S    
O52   Zn4   S    
C131  O59   A    
O63   Zn15  S    
O64   Zn16  S    
C97   O41   A    
O28   Zn6   S    
C98   C146  S    
C133  O53   A    
O60   Zn12  S    
C183  H7    S    
C21   H19   S    
C121  C185  S    
C126  O90   A    
O86   Zn21  S    
C144  C149  T    
C138  C147  T    
C128  O94   A    
C56   C64   A    
C42   C130  S    
C68   C76   A    
O73   Zn21  S    
C109  H83   S    
C110  H84   S    
C9    C17   S    
C107  H77   S    
O50   Zn2   S    
C34   C74   A    
O65   Zn17  S    
C84   H62   S    
C9    C153  A    
C26   C154  S    
C51   C59   A    
C20   H16   S    
C35   C43   A    
C47   C55   A    
C61   C69   A    
C30   C158  S    
C16   C192  A    
O95   Zn18  S    
C63   C71   A    
C123  O85   A    
C183  C191  A    
O85   Zn21  S    
C6    O14   A    
C38   C78   A    
O25   Zn5   S    
C132  O60   A    
C134  O62   A    
C41   C129  S    
C44   C52   A    
C100  C148  S    
C72   C119  S    
O20   Zn2   S    
C8    O16   A    
C83   C107  S    
C64   C72   A    
C123  C187  S    
C124  O88   A    
O37   Zn11  S    
C77   C85   S    
C100  O28   A    
C101  O29   A    
O91   Zn20  S    
C98   O42   A    
O17   Zn1   S    
C19   H13   S    
C125  C189  S    
C55   H47   S    
O83   Zn24  S    
C37   C45   A    
C31   C159  S    
C91   O35   A    
C2    C162  S    
C32   C160  S    
