data_mof_unit_5147.cif
_audit_creation_date              2012-12-10T17:25:17-0500
_audit_creation_method            fapswitch 2.2
_symmetry_space_group_name_H-M    P1
_symmetry_Int_Tables_number       1
_space_group_crystal_system       triclinic
_cell_length_a                    27.854067
_cell_length_b                    10.757337
_cell_length_c                    9.628084
_cell_angle_alpha                 90.447822
_cell_angle_beta                  89.68159
_cell_angle_gamma                 94.383865
_cell_volume                      2876.35278631

loop_
_atom_site_label
_atom_site_type_symbol
_atom_type_description
_atom_site_fract_x
_atom_site_fract_y
_atom_site_fract_z
_atom_type_partial_charge
C1    C     C_R   0.497687 0.262475 0.499721 0.792883
C2    C     C_R   0.275552 0.491895 0.613308 -0.094865
C3    C     C_R   0.253061 0.519818 0.489934 0.215221
C4    C     C_R   0.101425 0.514360 0.484274 -0.094625
C5    C     C_R   0.124620 0.402462 0.490397 -0.021912
C6    C     C_R   0.097287 0.288278 0.496125 -0.100855
C7    C     C_R   0.129486 0.629849 0.477548 -0.121487
C8    C     C_R   0.354343 0.515723 0.499318 -0.208756
C9    C     C_R   0.644953 0.490870 0.498270 -0.042661
C10   C     C_R   0.971725 0.390367 0.507511 0.042517
C11   C     C_R   0.975732 0.617351 0.468406 0.067658
C12   C     C_R   0.407470 0.504767 0.500222 0.839730
C13   C     C_R   0.948457 0.501918 0.489163 0.074229
C14   C     C_R   0.942930 0.279203 0.536200 -0.200741
C15   C     C_R   0.893013 0.276909 0.540710 -0.130342
C16   C     C_R   0.869747 0.385175 0.517273 -0.021055
C17   C     C_R   0.897316 0.497990 0.491558 -0.046467
C18   C     C_R   0.873623 0.606873 0.468191 -0.027536
C19   C     C_R   0.823114 0.600951 0.470624 0.560096
C20   C     C_R   0.819278 0.383417 0.519319 0.540564
C21   C     C_R   0.720809 0.499662 0.371870 -0.086493
C22   C     C_R   0.670828 0.500812 0.372639 -0.217421
C23   C     C_R   0.497876 0.736661 0.500205 0.803022
C24   C     C_R   0.669875 0.473800 0.622325 -0.131000
C25   C     C_R   0.719908 0.472057 0.621376 -0.041633
C26   C     C_R   0.745550 0.486583 0.496354 0.328951
C27   C     C_R   0.022749 0.393592 0.497982 0.055279
C28   C     C_R   0.050187 0.510113 0.485363 0.075024
C29   C     C_R   0.026870 0.622161 0.474201 -0.019298
C30   C     C_R   0.047446 0.283650 0.499596 -0.194639
C31   C     C_R   0.105613 0.741126 0.472431 0.427256
C32   C     C_R   0.950663 0.724218 0.441455 -0.196221
C33   C     C_R   0.900689 0.718883 0.441870 -0.135069
C34   C     C_R   0.592291 0.497130 0.499558 0.817971
C35   C     C_R   0.055548 0.736068 0.471175 -0.241694
C36   C     C_R   0.421820 0.114634 0.651897 -0.204393
C37   C     C_R   0.386851 0.042516 0.726446 0.338397
C38   C     C_R   0.387124 0.913278 0.726220 -0.120977
C39   C     C_R   0.422303 0.855332 0.652053 -0.204334
C40   C     C_R   0.458686 0.926399 0.578136 0.091695
C41   C     C_R   0.458443 0.057808 0.577746 0.052747
C42   C     C_R   0.494001 0.127857 0.499120 -0.060392
C43   C     C_R   0.527347 0.068961 0.418216 -0.159816
C44   C     C_R   0.527586 0.940914 0.418914 -0.142024
C45   C     C_R   0.174959 0.406700 0.490274 0.574248
C46   C     C_R   0.494442 0.869829 0.500399 -0.048262
C47   C     C_R   0.571295 0.643224 0.149284 -0.184025
C48   C     C_R   0.615816 0.671881 0.090022 -0.295374
C49   C     C_R   0.622194 0.652293 0.950084 0.358712
C50   C     C_R   0.581192 0.628288 0.866456 0.234349
C51   C     C_R   0.537275 0.569220 0.926817 0.070065
C52   C     C_R   0.535234 0.571704 0.076353 0.111333
C53   C     C_R   0.467524 0.426978 0.072306 0.493930
C54   C     C_R   0.467263 0.428809 0.925180 -0.031823
C55   C     C_R   0.180313 0.628683 0.478241 0.603502
C56   C     C_R   0.280708 0.551528 0.372776 -0.101335
C57   C     C_R   0.330802 0.551617 0.376237 0.250997
C58   C     C_R   0.325520 0.491150 0.620212 0.216800
Cu1   Cu    Cu3+1 0.500000 0.499990 0.640660 1.000936
Cu2   Cu    Cu3+1 0.500000 0.500010 0.359340 1.025324
H1    H     H_    0.263006 0.577276 0.278499 0.190818
H2    H     H_    0.968501 0.813574 0.416244 0.144402
H3    H     H_    0.650768 0.462185 0.720106 0.172157
H4    H     H_    0.883322 0.803509 0.421063 0.191755
H5    H     H_    0.738827 0.461010 0.717916 0.162644
H6    H     H_    0.040037 0.824707 0.471619 0.167885
H7    H     H_    0.554185 0.122753 0.356980 0.156978
H8    H     H_    0.419263 0.214378 0.650801 0.171147
H9    H     H_    0.253791 0.471421 0.705115 0.190468
H10   H     H_    0.359621 0.857185 0.782314 0.195456
H11   H     H_    0.419953 0.754678 0.651597 0.172493
H12   H     H_    0.554558 0.897091 0.358015 0.151986
H13   H     H_    0.567822 0.672376 0.254418 0.217371
H14   H     H_    0.645135 0.712959 0.152818 0.207302
H15   H     H_    0.441273 0.368117 0.869229 0.194856
H16   H     H_    0.114363 0.201117 0.498283 0.224296
H17   H     H_    0.652568 0.509826 0.274989 0.172234
H18   H     H_    0.740399 0.509418 0.274612 0.157392
H19   H     H_    0.872683 0.189318 0.562820 0.195101
H20   H     H_    0.957819 0.192213 0.558953 0.143905
H21   H     H_    0.029329 0.191582 0.500627 0.147636
N1    N     N_R   0.201555 0.518425 0.484964 -0.467658
N2    N     N_R   0.797103 0.490327 0.495822 -0.471549
N3    N     N_R   0.500460 0.501210 0.147910 -0.221645
N4    N     N_R   0.500480 0.501290 0.852040 -0.213381
O1    O     O_R   0.500000 0.319640 0.618810 -0.593973
O2    O     O_2   0.792556 0.275654 0.543302 -0.516839
O3    O     O_2   0.208633 0.735880 0.473573 -0.429306
O4    O     O_2   0.800129 0.705037 0.448880 -0.502222
O5    O     O_R   0.500000 0.319660 0.381240 -0.538367
O6    O     O_R   0.430260 0.500010 0.618770 -0.569651
O7    O     O_R   0.430270 0.500030 0.381200 -0.494794
O8    O     O_R   0.500000 0.680340 0.618760 -0.538098
O9    O     O_R   0.500000 0.680360 0.381190 -0.595418
O10   O     O_R   0.569730 0.499970 0.618800 -0.565336
O11   O     O_R   0.569740 0.499990 0.381230 -0.611610
O12   O     O_2   0.197326 0.299809 0.495279 -0.467676
Br1   Br    Br    0.349768 0.460441 0.801874 -0.400961
Cl1   Cl    Cl    0.135289 0.892341 0.468463 -0.500231
Br2   Br    Br    0.337756 0.119902 0.826797 -0.328860
Cl2   Cl    Cl    0.425586 0.321326 0.154340 -0.492310
Cl3   Cl    Cl    0.680246 0.691971 0.881198 -0.559845
Br3   Br    Br    0.585675 0.755932 0.727328 -0.417701
Br4   Br    Br    0.363313 0.612826 0.210414 -0.366765

loop_
_geom_bond_atom_site_label_1
_geom_bond_atom_site_label_2
_ccdc_geom_bond_type
C10   C27   A    
C21   C26   A    
C38   H10   S    
C40   C41   A    
C1    O5    A    
C11   C13   A    
C41   C42   A    
C12   O6    A    
C45   N1    A    
C58   Br1   S    
C7    C55   A    
C51   N4    A    
C53   C54   A    
C40   C46   A    
C26   N2    S    
C53   N3    A    
C28   C29   A    
C34   O11   A    
C5    C6    A    
C9    C22   A    
C15   C16   A    
C20   O2    S    
C56   C57   A    
C18   C19   A    
C55   O3    S    
C52   N3    A    
C8    C58   A    
C15   H19   S    
C53   Cl2   S    
C16   C17   A    
C21   H18   S    
C14   H20   S    
C2    H9    S    
C16   C20   A    
Cu1   Cu2   S    
C23   C46   S    
C21   C22   A    
C27   C30   A    
C36   C41   A    
Cu1   O10   S    
C4    C7    A    
C19   N2    A    
C4    C28   A    
C44   C46   A    
C50   C51   A    
Cu2   O7    S    
C7    C31   A    
C51   C52   A    
C48   H14   S    
C25   H5    S    
C24   C25   A    
C47   H13   S    
C10   C14   A    
C39   C40   A    
C35   H6    S    
C25   C26   A    
C5    C45   A    
C23   O8    A    
C43   C44   A    
Cu1   N4    S    
C37   C38   A    
C19   O4    S    
C8    C57   A    
C3    C56   A    
C47   C48   A    
C8    C12   S    
C3    N1    S    
C36   H8    S    
C17   C18   A    
Cu1   O6    S    
C34   O10   A    
C55   N1    A    
Cu2   O11   S    
C48   C49   A    
C6    C30   A    
C11   C32   A    
C24   H3    S    
C31   Cl1   S    
C9    C34   S    
C31   C35   A    
C42   C43   A    
C49   Cl3   S    
C1    O1    A    
C57   Br4   S    
C36   C37   A    
C14   C15   A    
C12   O7    A    
C22   H17   S    
C4    C5    A    
C10   C13   A    
C54   N4    A    
C2    C58   A    
C9    C24   A    
C6    H16   S    
C47   C52   A    
Cu2   O5    S    
C29   C35   A    
C23   O9    A    
C13   C17   A    
C32   C33   A    
C30   H21   S    
C2    C3    A    
Cu1   O1    S    
C32   H2    S    
C45   O12   S    
Cu2   N3    S    
C38   C39   A    
C33   H4    S    
C44   H12   S    
C18   C33   A    
C54   H15   S    
C1    C42   S    
C50   Br3   S    
C11   C29   A    
C43   H7    S    
C49   C50   A    
C20   N2    A    
C27   C28   A    
C39   H11   S    
C56   H1    S    
Cu1   O8    S    
C37   Br2   S    
Cu2   O9    S    
