data_mof_unit_54525.cif
_audit_creation_date              2012-12-10T18:45:09-0500
_audit_creation_method            fapswitch 2.2
_symmetry_space_group_name_H-M    P1
_symmetry_Int_Tables_number       1
_space_group_crystal_system       triclinic
_cell_length_a                    10.630852
_cell_length_b                    9.889012
_cell_length_c                    10.719066
_cell_angle_alpha                 90.36832
_cell_angle_beta                  89.720367
_cell_angle_gamma                 89.796293
_cell_volume                      1126.8366955

loop_
_atom_site_label
_atom_site_type_symbol
_atom_type_description
_atom_site_fract_x
_atom_site_fract_y
_atom_site_fract_z
_atom_type_partial_charge
Br1   Br    Br    0.623246 0.030708 0.143434 -0.524569
Br2   Br    Br    0.416647 0.038397 0.893404 -0.510245
Br3   Br    Br    0.840625 0.662009 0.734669 -0.442175
Br4   Br    Br    0.153578 0.665111 0.733254 -0.438153
C1    C     C_R   0.260291 0.500189 0.502832 0.931699
C2    C     C_R   0.494196 0.501387 0.740548 0.922213
C3    C     C_R   0.586856 0.747022 0.118684 -0.212078
C4    C     C_R   0.458208 0.755178 0.894579 -0.198940
C5    C     C_R   0.560063 0.871364 0.064634 0.274770
C6    C     C_R   0.486062 0.875147 0.957068 0.262947
C7    C     C_R   0.498176 0.629283 0.942036 0.068962
C8    C     C_R   0.542317 0.626141 0.064189 0.054749
C9    C     C_R   0.534718 0.502365 0.128315 -0.115609
C10   C     C_R   0.495107 0.505497 0.874722 -0.087661
C11   C     C_R   0.523915 0.381142 0.062983 -0.145083
C12   C     C_R   0.739568 0.499756 0.502638 0.920534
C13   C     C_R   0.513124 0.383083 0.935963 -0.142236
C14   C     C_R   0.064982 0.424847 0.417699 -0.196995
C15   C     C_R   0.936224 0.424381 0.417773 -0.199383
C16   C     C_R   0.871804 0.499194 0.508183 -0.137941
C17   C     C_R   0.127743 0.500326 0.507879 -0.137961
C18   C     C_R   0.933518 0.571884 0.602445 0.239181
C19   C     C_R   0.063993 0.572733 0.602081 0.237769
C20   C     C_R   0.573969 0.072056 0.580878 -0.000333
C21   C     C_R   0.425764 0.071498 0.419356 0.000251
C22   C     C_R   0.573789 0.928513 0.581031 -0.023327
C23   C     C_R   0.425925 0.927929 0.419209 -0.018982
C24   C     C_R   0.514432 0.500212 0.260979 0.869569
H1    H     H_    0.115826 0.368536 0.346302 0.172194
H2    H     H_    0.400549 0.762712 0.812503 0.232377
H3    H     H_    0.886669 0.367957 0.346303 0.181225
H4    H     H_    0.633135 0.126314 0.645843 0.152641
H5    H     H_    0.366492 0.125323 0.354498 0.143098
H6    H     H_    0.632622 0.874749 0.646249 0.175815
H7    H     H_    0.366833 0.873645 0.354199 0.146288
H8    H     H_    0.521184 0.285233 0.110001 0.230005
H9    H     H_    0.516527 0.288590 0.885836 0.224911
H10   H     H_    0.642184 0.745761 0.203166 0.199064
N1    N     N_R   0.500000 0.857200 0.500000 -0.099209
N2    N     N_R   0.500000 0.142810 0.500000 -0.092892
O1    O     O_R   0.316770 0.614620 0.499990 -0.593755
O2    O     O_R   0.683230 0.614620 0.500010 -0.599958
O3    O     O_R   0.316800 0.385290 0.500000 -0.614367
O4    O     O_R   0.683200 0.385290 0.500000 -0.616890
O5    O     O_R   0.500010 0.614690 0.316770 -0.634295
O6    O     O_R   0.499990 0.614690 0.683230 -0.617508
O7    O     O_R   0.500040 0.385360 0.316770 -0.615993
O8    O     O_R   0.499960 0.385360 0.683230 -0.616533
Zn1   Zn    Zn3+2 0.500000 0.653120 0.500000 0.993794
Zn2   Zn    Zn3+2 0.500000 0.346880 0.500000 0.999017

loop_
_geom_bond_atom_site_label_1
_geom_bond_atom_site_label_2
_ccdc_geom_bond_type
C7    C8    A    
C20   H4    S    
C9    C24   S    
C2    C10   S    
C14   C17   A    
C23   H7    S    
C5    C6    A    
C12   O4    A    
C15   C16   A    
C10   C13   A    
O5    Zn1   S    
C12   C16   S    
C15   H3    S    
C21   N2    A    
O8    Zn2   S    
C1    O3    A    
C4    H2    S    
O3    Zn2   S    
C14   H1    S    
C13   H9    S    
O6    Zn1   S    
C2    O8    A    
C4    C7    A    
N2    Zn2   S    
C24   O7    A    
O1    Zn1   S    
N1    Zn1   S    
C3    H10   S    
C16   C18   A    
O7    Zn2   S    
C9    C11   A    
C17   C19   A    
C3    C8    A    
C24   O5    A    
C7    C10   A    
C22   N1    A    
C21   C23   A    
O2    Zn1   S    
C23   N1    A    
Br2   C6    S    
C12   O2    A    
C11   H8    S    
Br1   C5    S    
C8    C9    A    
C3    C5    A    
C14   C15   A    
O4    Zn2   S    
C11   C13   A    
Br4   C19   S    
C1    O1    A    
C18   C19   A    
Br3   C18   S    
C2    O6    A    
C20   N2    A    
C22   H6    S    
C4    C6    A    
C20   C22   A    
C21   H5    S    
C1    C17   S    
