data_mof_unit_60401.cif
_audit_creation_date              2012-12-10T19:39:55-0500
_audit_creation_method            fapswitch 2.2
_symmetry_space_group_name_H-M    P1
_symmetry_Int_Tables_number       1
_space_group_crystal_system       triclinic
_cell_length_a                    15.797485
_cell_length_b                    17.078805
_cell_length_c                    19.447166
_cell_angle_alpha                 91.479862
_cell_angle_beta                  91.42168
_cell_angle_gamma                 97.31598
_cell_volume                      5200.34714721

loop_
_atom_site_label
_atom_site_type_symbol
_atom_type_description
_atom_site_fract_x
_atom_site_fract_y
_atom_site_fract_z
_atom_type_partial_charge
C1    C     C_R   0.488731 0.348833 0.501114 0.882666
C2    C     C_R   0.517954 0.900785 0.483721 0.289236
C3    C     C_R   0.452286 0.143004 0.570890 -0.105449
C4    C     C_R   0.547719 0.856996 0.429110 -0.105451
C5    C     C_R   0.452071 0.225414 0.565190 -0.098003
C6    C     C_R   0.547933 0.774587 0.434811 -0.098000
C7    C     C_R   0.747965 0.452884 0.472757 0.063664
C8    C     C_R   0.252035 0.547115 0.527243 0.063663
C9    C     C_R   0.836119 0.446125 0.479086 -0.154737
C10   C     C_R   0.163881 0.553875 0.520914 -0.154739
C11   C     C_R   0.890125 0.502290 0.520433 0.273072
C12   C     C_R   0.511269 0.651167 0.498886 0.882663
C13   C     C_R   0.109875 0.497710 0.479566 0.273072
C14   C     C_R   0.852148 0.559729 0.558192 -0.201345
C15   C     C_R   0.147852 0.440271 0.441808 -0.201344
C16   C     C_R   0.501269 0.502912 0.367329 0.862483
C17   C     C_R   0.498731 0.497087 0.632671 0.862482
C18   C     C_R   0.762772 0.563093 0.550632 0.077681
C19   C     C_R   0.237228 0.436907 0.449368 0.077679
C20   C     C_R   0.435323 0.535040 0.253277 0.001415
C21   C     C_R   0.564678 0.464963 0.746724 0.001415
C22   C     C_R   0.433939 0.530546 0.181284 -0.148004
C23   C     C_R   0.480567 0.262734 0.504122 -0.151834
C24   C     C_R   0.566063 0.469457 0.818716 -0.148005
C25   C     C_R   0.500406 0.502763 0.145577 0.005605
C26   C     C_R   0.499594 0.497238 0.854423 0.005605
C27   C     C_R   0.569168 0.479051 0.182473 -0.160180
C28   C     C_R   0.430831 0.520947 0.817527 -0.160178
C29   C     C_R   0.572766 0.482548 0.254204 -0.017091
C30   C     C_R   0.427233 0.517450 0.745796 -0.017093
C31   C     C_R   0.504025 0.508239 0.291184 -0.165349
C32   C     C_R   0.495975 0.491761 0.708816 -0.165355
C33   C     C_R   0.500168 0.499096 0.930254 0.444561
C34   C     C_R   0.519433 0.737266 0.495877 -0.151837
C35   C     C_R   0.499832 0.500905 0.069746 0.444561
C36   C     C_2   0.365213 0.571495 0.285876 0.916698
C37   C     C_2   0.634790 0.428509 0.714125 0.916701
C38   C     C_2   0.132365 0.624745 0.551455 0.920299
C39   C     C_2   0.867635 0.375255 0.448545 0.920300
C40   C     C_2   0.905864 0.614908 0.606985 0.908363
C41   C     C_2   0.094136 0.385092 0.393015 0.908363
C42   C     C_2   0.724374 0.622920 0.591166 0.967038
C43   C     C_2   0.275626 0.377080 0.408833 0.967039
C44   C     C_2   0.650321 0.458136 0.286852 0.885465
C45   C     C_R   0.506696 0.217933 0.448215 -0.107618
C46   C     C_2   0.349676 0.541858 0.713148 0.885466
C47   C     C_2   0.469060 0.747541 0.619328 0.871299
C48   C     C_2   0.530927 0.252458 0.380667 0.871299
C49   C     C_2   0.420216 0.101409 0.633363 0.928286
C50   C     C_2   0.579793 0.898591 0.366638 0.928285
C51   C     C_2   0.426463 0.272933 0.624510 0.893433
C52   C     C_2   0.573546 0.727068 0.375493 0.893437
C53   C     C_R   0.493298 0.782066 0.551782 -0.107614
C54   C     C_R   0.508005 0.137088 0.455446 -0.161533
C55   C     C_R   0.491989 0.862911 0.544551 -0.161532
C56   C     C_R   0.482045 0.099215 0.516277 0.289235
Cu1   Cu    Cu3+1 0.415220 0.496180 0.496660 1.060991
Cu2   Cu    Cu3+1 0.584780 0.503820 0.503340 1.060988
H1    H     H_    0.239338 0.581475 0.286088 0.350974
H2    H     H_    0.618553 0.449029 0.847090 0.190254
H3    H     H_    0.621693 0.458638 0.155265 0.182042
H4    H     H_    0.378305 0.541358 0.844735 0.182043
H5    H     H_    0.725968 0.372463 0.297160 0.375557
H6    H     H_    0.274023 0.627527 0.702842 0.375557
H7    H     H_    0.411944 0.761077 0.709925 0.379723
H8    H     H_    0.588029 0.238919 0.290065 0.379722
H9    H     H_    0.472511 0.897118 0.587638 0.229279
H10   H     H_    0.527478 0.102881 0.412357 0.229283
H11   H     H_    0.436398 0.019488 0.703829 0.357565
H12   H     H_    0.760666 0.418534 0.713913 0.350974
H13   H     H_    0.563617 0.980513 0.296172 0.357566
H14   H     H_    0.347960 0.347437 0.660844 0.358102
H15   H     H_    0.652052 0.652564 0.339163 0.358103
H16   H     H_    0.293322 0.590338 0.558339 0.172181
H17   H     H_    0.706678 0.409661 0.441661 0.172180
H18   H     H_    0.054792 0.709168 0.541721 0.357414
H19   H     H_    0.945208 0.290832 0.458279 0.357413
H20   H     H_    0.936622 0.726367 0.644653 0.354026
H21   H     H_    0.063378 0.273633 0.355346 0.354026
H22   H     H_    0.693407 0.733816 0.596861 0.343456
H23   H     H_    0.306593 0.266184 0.403137 0.343455
H24   H     H_    0.381449 0.550976 0.152910 0.190255
N1    N     N_R   0.565274 0.475332 0.035271 -0.211327
N2    N     N_2   0.019060 0.499337 0.472166 -0.134553
N3    N     N_R   0.434727 0.524670 0.964730 -0.211327
N4    N     N_R   0.565438 0.474381 0.966904 -0.209311
N5    N     N_R   0.434563 0.525620 0.033096 -0.209311
N6    N     N_2   0.480975 0.016352 0.522908 -0.191481
N7    N     N_2   0.519025 0.983648 0.477090 -0.191477
N8    N     N_R   0.712130 0.509560 0.508360 -0.215907
N9    N     N_R   0.287870 0.490440 0.491640 -0.215908
N10   N     N_2   0.980940 0.500663 0.527834 -0.134553
O1    O     O_R   0.420530 0.382500 0.496880 -0.537685
O2    O     O_R   0.281532 0.552946 0.259887 -0.718559
O3    O     O_2   0.619352 0.380391 0.666378 -0.573694
O4    O     O_R   0.718471 0.447062 0.740113 -0.718559
O5    O     O_2   0.164755 0.655051 0.605056 -0.577752
O6    O     O_R   0.068367 0.659365 0.517196 -0.715429
O7    O     O_2   0.835245 0.344950 0.394943 -0.577753
O8    O     O_R   0.931633 0.340635 0.482804 -0.715430
O9    O     O_2   0.958474 0.589994 0.645066 -0.527392
O10   O     O_R   0.896496 0.695232 0.609419 -0.722451
O11   O     O_2   0.041526 0.410007 0.354934 -0.527389
O12   O     O_R   0.579470 0.617500 0.503120 -0.537688
O13   O     O_R   0.103504 0.304769 0.390580 -0.722451
O14   O     O_2   0.703319 0.609609 0.650199 -0.570285
O15   O     O_R   0.719217 0.697132 0.563855 -0.681759
O16   O     O_2   0.296680 0.390392 0.349801 -0.570283
O17   O     O_R   0.280784 0.302868 0.436144 -0.681761
O18   O     O_2   0.700229 0.506214 0.320014 -0.563602
O19   O     O_R   0.669845 0.381662 0.274460 -0.742053
O20   O     O_2   0.299771 0.493779 0.679984 -0.563600
O21   O     O_R   0.330147 0.618331 0.725542 -0.742054
O22   O     O_2   0.492947 0.685498 0.636783 -0.603920
O23   O     O_R   0.563720 0.388950 0.502520 -0.587280
O24   O     O_R   0.421137 0.788098 0.664449 -0.725924
O25   O     O_2   0.507043 0.314503 0.363216 -0.603922
O26   O     O_R   0.578841 0.211898 0.335541 -0.725924
O27   O     O_2   0.354502 0.116994 0.659480 -0.535805
O28   O     O_R   0.464844 0.043882 0.661917 -0.725593
O29   O     O_2   0.645509 0.883006 0.340525 -0.535805
O30   O     O_R   0.535168 0.956119 0.338083 -0.725593
O31   O     O_2   0.461887 0.269787 0.680820 -0.551346
O32   O     O_R   0.360342 0.319271 0.616418 -0.689339
O33   O     O_2   0.538124 0.730213 0.319181 -0.551349
O34   O     O_R   0.436280 0.611050 0.497480 -0.587279
O35   O     O_R   0.639667 0.680730 0.383587 -0.689335
O36   O     O_R   0.428380 0.496760 0.397320 -0.560798
O37   O     O_R   0.571620 0.503240 0.602680 -0.560799
O38   O     O_R   0.571570 0.503220 0.402960 -0.558440
O39   O     O_R   0.428430 0.496780 0.597040 -0.558435
O40   O     O_2   0.380653 0.619613 0.333623 -0.573698

loop_
_geom_bond_atom_site_label_1
_geom_bond_atom_site_label_2
_ccdc_geom_bond_type
C47   O22   D    
C23   C45   A    
C46   O20   D    
C17   O39   A    
C51   O31   D    
C14   C18   A    
H13   O30   S    
C2    C4    A    
C50   O30   S    
C38   O6    S    
Cu1   O36   S    
C3    C49   S    
C16   C31   S    
C15   C19   A    
H22   O15   S    
C37   O3    D    
C41   O13   S    
C22   H24   S    
C24   C26   A    
C12   O12   A    
C2    C55   A    
C18   C42   S    
C11   C14   A    
C56   N6    S    
C49   O28   S    
C12   O34   A    
Cu2   O37   S    
H18   O6    S    
C9    C39   S    
C27   C29   A    
H21   O13   S    
H19   O8    S    
C39   O8    S    
C33   N3    A    
C27   H3    S    
C40   O9    D    
C35   N5    A    
C11   N10   S    
C22   C25   A    
C5    C23   A    
H1    O2    S    
C16   O38   A    
C42   O15   S    
C47   C53   S    
C53   C55   A    
Cu1   O1    S    
H14   O32   S    
C51   O32   S    
C50   O29   D    
C38   O5    D    
C52   O35   S    
C19   C43   S    
N3    N5    A    
C47   O24   S    
C21   C32   A    
C54   C56   A    
C17   O37   A    
C18   N8    A    
C15   C41   S    
C4    C6    A    
Cu1   O34   S    
C35   N1    A    
C7    H17   S    
H15   O35   S    
C7    N8    A    
C40   O10   S    
C6    C34   A    
C37   O4    S    
C4    C50   S    
C2    N7    S    
H12   O4    S    
C33   N4    A    
C36   O2    S    
Cu2   N8    S    
C3    C56   A    
C26   C33   S    
C39   O7    D    
C13   N2    S    
C13   C15   A    
C24   H2    S    
C54   H10   S    
C8    H16   S    
C8    N9    A    
N2    N10   D    
C42   O14   D    
C25   C35   S    
C1    O1    A    
H23   O17   S    
C45   C54   A    
C1    C23   S    
C9    C11   A    
C29   C44   S    
Cu2   O23   S    
H7    O24   S    
Cu2   O12   S    
C12   C34   S    
C45   C48   S    
C7    C9    A    
H6    O21   S    
Cu1   N9    S    
C46   O21   S    
C30   C46   S    
Cu1   O39   S    
C20   C22   A    
C3    C5    A    
C10   C13   A    
C48   O26   S    
C52   O33   D    
C48   O25   D    
C25   C27   A    
C43   O17   S    
H11   O28   S    
C26   C28   A    
C10   C38   S    
C36   O40   D    
C55   H9    S    
C29   C31   A    
C30   C32   A    
Cu1   Cu2   S    
C49   O27   D    
Cu2   O38   S    
C28   C30   A    
C43   O16   D    
C16   O36   A    
H5    O19   S    
C19   N9    A    
C14   C40   S    
C20   C36   S    
C44   O19   S    
C41   O11   D    
N1    N4    A    
C21   C37   S    
N6    N7    D    
C34   C53   A    
C8    C10   A    
H8    O26   S    
C21   C24   A    
C17   C32   S    
C5    C51   S    
H20   O10   S    
C1    O23   A    
C6    C52   S    
C44   O18   D    
C20   C31   A    
C28   H4    S    
