data_mof_unit_21737.cif
_audit_creation_date              2012-12-11T15:37:20-0500
_audit_creation_method            fapswitch 2.2
_symmetry_space_group_name_H-M    P1
_symmetry_Int_Tables_number       1
_space_group_crystal_system       triclinic
_cell_length_a                    17.636678
_cell_length_b                    24.515171
_cell_length_c                    14.941926
_cell_angle_alpha                 89.544614
_cell_angle_beta                  125.818922
_cell_angle_gamma                 90.814674
_cell_volume                      5238.00483915

loop_
_atom_site_label
_atom_site_type_symbol
_atom_type_description
_atom_site_fract_x
_atom_site_fract_y
_atom_site_fract_z
_atom_type_partial_charge
C1    C     C_R   0.844257 0.649611 0.914570 -0.046629
C2    C     C_R   0.173294 0.360182 0.088211 -0.096627
C3    C     C_R   0.187470 0.627369 0.085506 -0.116411
C4    C     C_R   0.843824 0.349885 0.911159 -0.038198
C5    C     C_R   0.323171 0.137580 0.914828 -0.128863
C6    C     C_R   0.681869 0.867277 0.088517 -0.110211
C7    C     C_R   0.690041 0.124277 0.087124 -0.100967
C8    C     C_R   0.336360 0.853218 0.913436 -0.080195
C9    C     C_3   0.409022 0.498743 0.449248 0.215645
C10   C     C_3   0.577314 0.498374 0.627553 0.237803
C11   C     C_3   0.906795 0.002193 0.445709 0.212131
C12   C     C_3   0.078594 0.997953 0.611397 0.222151
C13   C     C_R   0.742702 0.250272 0.901994 0.056222
C14   C     C_R   0.327102 0.685526 0.061207 0.036852
C15   C     C_R   0.300012 0.292597 0.060291 0.078923
C16   C     C_R   0.722291 0.712010 0.962189 0.102436
C17   C     C_R   0.217080 0.773258 0.926772 0.091408
C18   C     C_R   0.840143 0.177530 0.078798 0.028458
C19   C     C_R   0.813556 0.814476 0.037116 0.098469
C20   C     C_R   0.193404 0.197022 0.955920 0.060322
C21   C     C_R   0.182919 0.720898 0.897302 0.525616
C22   C     C_R   0.873709 0.231442 0.092360 0.572901
C23   C     C_R   0.866175 0.768366 0.060281 0.514693
C24   C     C_R   0.148575 0.246900 0.931063 0.513086
C25   C     C_R   0.718971 0.195540 0.887386 0.479879
C26   C     C_R   0.366195 0.738125 0.084069 0.555879
C27   C     C_R   0.344209 0.242983 0.087357 0.504623
C28   C     C_R   0.670851 0.757719 0.946651 0.501011
C29   C     C_R   0.232664 0.678469 0.974367 -0.251368
C30   C     C_R   0.825764 0.268161 0.001612 -0.239106
C31   C     C_R   0.818898 0.718174 0.014926 -0.285765
C32   C     C_R   0.202668 0.293710 0.988052 -0.268939
C33   C     C_R   0.753457 0.163524 0.982082 -0.212776
C34   C     C_R   0.311227 0.781162 0.012535 -0.282076
C35   C     C_R   0.290862 0.196493 0.025642 -0.272852
C36   C     C_R   0.717925 0.808152 0.986118 -0.296133
C37   C     C_R   0.907136 0.445275 0.479896 0.178157
C38   C     C_R   0.882873 0.539113 0.363538 0.176870
C39   C     C_R   0.954165 0.449710 0.432341 0.147855
C40   C     C_R   0.860312 0.538857 0.439821 0.146186
C41   C     C_R   0.556223 0.989574 0.601755 0.166044
C42   C     C_R   0.412065 0.009988 0.377500 0.180064
C43   C     C_R   0.576369 0.987583 0.525940 0.127487
C44   C     C_R   0.391468 0.011664 0.453127 0.143750
C45   C     C_R   0.940825 0.496989 0.370264 -0.118105
C46   C     C_R   0.884166 0.493034 0.508382 -0.073907
C47   C     C_R   0.504247 0.998310 0.416226 -0.159944
C48   C     C_R   0.463325 0.000312 0.562895 -0.156001
C49   C     C_R   0.934921 0.352554 0.094537 -0.149296
C50   C     C_R   0.091812 0.620987 0.901163 -0.050896
C51   C     C_R   0.079048 0.364116 0.901924 -0.050050
C52   C     C_R   0.934110 0.643586 0.098567 -0.048853
C53   C     C_R   0.428805 0.858081 0.098227 -0.079348
C54   C     C_R   0.593741 0.121625 0.903029 -0.087906
C55   C     C_R   0.586369 0.870815 0.902414 -0.031427
C56   C     C_R   0.415093 0.129135 0.098877 -0.009850
C57   C     C_R   0.005459 0.545078 0.275181 -0.128667
C58   C     C_R   0.946937 0.453469 0.695314 -0.131091
C59   C     C_R   0.942528 0.544105 0.690079 -0.182061
C60   C     C_R   0.992145 0.453639 0.261196 -0.126547
C61   C     C_R   0.530389 0.045083 0.293650 -0.142334
C62   C     C_R   0.453601 0.954160 0.698022 -0.116637
C63   C     C_R   0.453178 0.045601 0.696958 -0.176427
C64   C     C_R   0.523769 0.952908 0.288302 -0.134974
C65   C     C_R   0.731160 0.454007 0.743648 0.458573
C66   C     C_R   0.264896 0.544836 0.293101 0.476947
C67   C     C_R   0.263775 0.454494 0.292313 0.479880
C68   C     C_R   0.731072 0.544402 0.745301 0.475106
C69   C     C_R   0.231111 0.953895 0.731627 0.510825
C70   C     C_R   0.761957 0.045892 0.294768 0.475227
C71   C     C_R   0.762841 0.955623 0.296152 0.467242
C72   C     C_R   0.230699 0.044646 0.729434 0.460629
C73   C     C_R   0.866420 0.673164 0.010667 0.183910
C74   C     C_R   0.157703 0.340619 0.991602 0.198705
C75   C     C_R   0.178640 0.638342 0.987332 0.152586
C76   C     C_R   0.863178 0.322903 0.004248 0.184358
C77   C     C_R   0.336261 0.152565 0.012949 0.199137
C78   C     C_R   0.669561 0.851776 0.991910 0.233430
C79   C     C_R   0.684435 0.134220 0.990923 0.146697
C80   C     C_R   0.354003 0.830891 0.009643 0.199703
C81   C     C_R   0.979053 0.498877 0.305849 0.179773
C82   C     C_R   0.921876 0.497643 0.626000 0.135186
C83   C     C_R   0.524761 0.998565 0.340214 0.196833
C84   C     C_R   0.443254 0.999885 0.639678 0.186367
C85   C     C_R   0.675057 0.498677 0.717554 -0.194099
C86   C     C_R   0.318214 0.499480 0.346045 -0.254381
C87   C     C_R   0.175281 0.998663 0.697282 -0.198965
C88   C     C_R   0.814265 0.001390 0.349757 -0.227701
C89   C     C_3   0.506326 0.452099 0.594316 -0.079577
C90   C     C_3   0.479961 0.544742 0.482662 -0.107326
C91   C     C_3   0.480844 0.455273 0.476378 -0.090997
C92   C     C_3   0.505489 0.541880 0.600596 -0.113468
C93   C     C_3   0.013302 0.948154 0.564066 -0.079289
C94   C     C_3   0.971966 0.051952 0.492794 -0.110393
C95   C     C_3   0.979525 0.967959 0.448313 -0.161234
C96   C     C_3   0.006116 0.032382 0.609042 -0.145156
C97   C     C_3   0.432293 0.495641 0.565099 -0.245453
C98   C     C_3   0.552751 0.501386 0.510821 -0.192514
C99   C     C_3   0.938662 0.982597 0.559589 -0.158984
C100  C     C_3   0.046001 0.017509 0.496872 -0.140922
H1    H     H_    0.802504 0.667738 0.834521 0.130312
H2    H     H_    0.222521 0.345816 0.170859 0.155284
H3    H     H_    0.245584 0.638532 0.167686 0.176513
H4    H     H_    0.809233 0.332721 0.830079 0.158014
H5    H     H_    0.272242 0.154265 0.834353 0.157634
H6    H     H_    0.736341 0.854721 0.171134 0.155402
H7    H     H_    0.749213 0.132868 0.169933 0.178919
H8    H     H_    0.294006 0.835066 0.832570 0.152399
H9    H     H_    0.979782 0.339729 0.179245 0.155652
H10   H     H_    0.061304 0.622265 0.814795 0.121554
H11   H     H_    0.043307 0.354380 0.815819 0.116514
H12   H     H_    0.970963 0.652031 0.184636 0.071809
H13   H     H_    0.470327 0.846808 0.183791 0.114829
H14   H     H_    0.562658 0.125716 0.817002 0.159072
H15   H     H_    0.554049 0.862467 0.816744 0.092017
H16   H     H_    0.443978 0.132309 0.183799 0.077812
H17   H     H_    0.011454 0.586210 0.303572 0.120981
H18   H     H_    0.934402 0.411137 0.673486 0.129349
H19   H     H_    0.925792 0.585540 0.660858 0.126451
H20   H     H_    0.975149 0.411938 0.265511 0.131908
H21   H     H_    0.542579 0.086017 0.325902 0.078251
H22   H     H_    0.448376 0.912220 0.673541 0.095043
H23   H     H_    0.441317 0.087207 0.667469 0.110469
H24   H     H_    0.526283 0.910962 0.312348 0.094897
H25   H     H_    0.379768 0.493451 0.583447 0.137833
H26   H     H_    0.603631 0.504018 0.489958 0.139235
H27   H     H_    0.891599 0.968408 0.581562 0.182322
H28   H     H_    0.092596 0.031356 0.473718 0.167716
H29   H     H_    0.519134 0.414374 0.642560 0.176753
H30   H     H_    0.464616 0.581617 0.431758 0.165047
H31   H     H_    0.469175 0.420220 0.422949 0.154264
H32   H     H_    0.517940 0.577119 0.654012 0.163858
H33   H     H_    0.029401 0.905388 0.593695 0.188706
H34   H     H_    0.954212 0.094520 0.462361 0.162875
H35   H     H_    0.964931 0.942909 0.378198 0.162663
H36   H     H_    0.020133 0.058507 0.677551 0.171909
N1    N     N_R   0.892620 0.603790 0.941800 -0.053357
N2    N     N_R   0.107380 0.396210 0.058200 -0.050547
N3    N     N_R   0.107380 0.603790 0.058200 -0.049312
N4    N     N_R   0.892620 0.396210 0.941800 -0.057391
N5    N     N_R   0.392620 0.103790 0.941800 -0.059273
N6    N     N_R   0.607380 0.896210 0.058200 -0.057314
N7    N     N_R   0.607380 0.103790 0.058200 -0.044180
N8    N     N_R   0.392620 0.896210 0.941800 -0.055196
N9    N     N_R   0.952210 0.397600 0.057910 -0.054793
N10   N     N_R   0.047790 0.602400 0.942090 -0.060770
N11   N     N_R   0.047790 0.397600 0.942090 -0.062275
N12   N     N_R   0.952210 0.602400 0.057910 -0.052808
N13   N     N_R   0.452210 0.897600 0.057910 -0.058574
N14   N     N_R   0.547790 0.102400 0.942090 -0.060300
N15   N     N_R   0.547790 0.897600 0.942090 -0.059719
N16   N     N_R   0.452210 0.102400 0.057910 -0.056676
N17   N     N_R   0.026300 0.529110 0.206760 -0.053424
N18   N     N_R   0.973700 0.470890 0.793240 -0.048287
N19   N     N_R   0.973700 0.529110 0.793240 -0.046818
N20   N     N_R   0.026300 0.470890 0.206760 -0.066755
N21   N     N_R   0.526300 0.029110 0.206760 -0.045603
N22   N     N_R   0.473700 0.970890 0.793240 -0.040601
N23   N     N_R   0.473700 0.029110 0.793240 -0.044131
N24   N     N_R   0.526300 0.970890 0.206760 -0.057458
N25   N     N_R   0.818530 0.472270 0.792960 -0.140602
N26   N     N_R   0.181470 0.527730 0.207040 -0.116004
N27   N     N_R   0.181470 0.472270 0.207040 -0.127292
N28   N     N_R   0.818530 0.527730 0.792960 -0.138517
N29   N     N_R   0.318530 0.972270 0.792960 -0.135402
N30   N     N_R   0.681470 0.027730 0.207040 -0.113927
N31   N     N_R   0.681470 0.972270 0.207040 -0.131981
N32   N     N_R   0.318530 0.027730 0.792960 -0.139764
Ni1   Ni    Ni4+2 0.934150 0.565840 0.869060 0.211051
Ni2   Ni    Ni4+2 0.065850 0.434160 0.130940 0.215220
Ni3   Ni    Ni4+2 0.065850 0.565840 0.130940 0.221909
Ni4   Ni    Ni4+2 0.934150 0.434160 0.869060 0.209159
Ni5   Ni    Ni4+2 0.434150 0.065840 0.869060 0.205761
Ni6   Ni    Ni4+2 0.565850 0.934160 0.130940 0.213718
Ni7   Ni    Ni4+2 0.565850 0.065840 0.130940 0.235158
Ni8   Ni    Ni4+2 0.434150 0.934160 0.869060 0.209467
O1    O     O_3   0.698931 0.403507 0.693734 -0.640715
C101  C     C_3   0.730952 0.394135 0.627876 0.237631
H37   H     H_    0.807707 0.387601 0.681040 0.105633
H38   H     H_    0.716023 0.429745 0.573060 0.063349
C102  C     C_3   0.680331 0.344483 0.553663 -0.251750
H39   H     H_    0.610346 0.339578 0.536810 0.223812
H40   H     H_    0.669245 0.351269 0.473220 0.193792
C103  C     C_3   0.736073 0.292245 0.604485 -0.926132
H41   H     H_    0.808816 0.298085 0.630618 0.263674
H42   H     H_    0.703743 0.258967 0.542735 0.248031
H43   H     H_    0.736979 0.279770 0.676396 0.281373
O2    O     O_3   0.283661 0.597096 0.334962 -0.687248
C104  C     C_3   0.265938 0.601065 0.415453 0.195648
H44   H     H_    0.333988 0.605021 0.497796 0.122533
H45   H     H_    0.227140 0.565348 0.418279 0.079963
C105  C     C_3   0.209016 0.652189 0.392145 -0.289600
H46   H     H_    0.245540 0.688188 0.387399 0.212427
H47   H     H_    0.140075 0.647252 0.311347 0.186466
C106  C     C_3   0.194740 0.662035 0.481772 -1.060374
H48   H     H_    0.157199 0.626974 0.487527 0.278243
H49   H     H_    0.152708 0.699290 0.461741 0.266736
H50   H     H_    0.263509 0.668028 0.562423 0.280992
O3    O     O_3   0.280521 0.402454 0.335885 -0.662237
C107  C     C_3   0.230963 0.394532 0.382601 0.219283
H51   H     H_    0.154336 0.393542 0.317277 0.114701
H52   H     H_    0.247213 0.427883 0.441944 0.067485
C108  C     C_3   0.259979 0.340673 0.446516 -0.298712
H53   H     H_    0.336962 0.335892 0.494142 0.219681
H54   H     H_    0.242144 0.341479 0.506552 0.195539
C109  C     C_3   0.210198 0.291707 0.370229 -0.833836
H55   H     H_    0.134038 0.293245 0.331576 0.267906
H56   H     H_    0.238174 0.253437 0.418658 0.251943
H57   H     H_    0.221113 0.291206 0.304384 0.269145
O4    O     O_3   0.698736 0.596595 0.707167 -0.641674
C110  C     C_3   0.730682 0.615133 0.644687 0.213135
H58   H     H_    0.705168 0.587218 0.573852 0.126358
H59   H     H_    0.808441 0.617248 0.696229 0.061710
C111  C     C_3   0.694608 0.672624 0.600190 -0.269153
H60   H     H_    0.719593 0.701929 0.668470 0.185508
H61   H     H_    0.722303 0.686874 0.553591 0.185314
C112  C     C_3   0.588512 0.673982 0.524190 -0.862305
H62   H     H_    0.562929 0.648943 0.449939 0.255379
H63   H     H_    0.566092 0.716638 0.498717 0.229148
H64   H     H_    0.558068 0.658694 0.567057 0.287196
O5    O     O_3   0.201670 0.901702 0.688968 -0.669299
C113  C     C_3   0.247051 0.883276 0.642114 0.115987
H65   H     H_    0.235059 0.838558 0.630412 0.136873
H66   H     H_    0.324049 0.889317 0.697869 0.095327
C114  C     C_3   0.204660 0.909119 0.528474 -0.294653
H67   H     H_    0.127845 0.902809 0.476834 0.213194
H68   H     H_    0.219136 0.953675 0.537975 0.206191
C115  C     C_3   0.242953 0.884246 0.469046 -0.943977
H69   H     H_    0.314740 0.899219 0.504947 0.269070
H70   H     H_    0.198450 0.896424 0.380820 0.298734
H71   H     H_    0.243855 0.839069 0.474069 0.239819
O6    O     O_3   0.777264 0.098523 0.334392 -0.669341
C116  C     C_3   0.759868 0.102054 0.415235 0.211939
H72   H     H_    0.826253 0.096993 0.498695 0.122774
H73   H     H_    0.709948 0.070407 0.406125 0.065074
C117  C     C_3   0.718952 0.157995 0.406419 -0.326287
H74   H     H_    0.659853 0.165596 0.318980 0.212583
H75   H     H_    0.691378 0.158683 0.456842 0.154512
C118  C     C_3   0.792283 0.203219 0.445951 -0.848315
H76   H     H_    0.845766 0.199560 0.536211 0.235228
H77   H     H_    0.758488 0.243573 0.427700 0.277184
H78   H     H_    0.827230 0.200668 0.403967 0.279448
O7    O     O_3   0.785198 0.903133 0.338594 -0.648976
C119  C     C_3   0.714354 0.881916 0.346220 0.194110
H79   H     H_    0.648873 0.873808 0.263243 0.100818
H80   H     H_    0.699664 0.911007 0.390666 0.098368
C120  C     C_3   0.746541 0.828813 0.412520 -0.309374
H81   H     H_    0.818179 0.834500 0.489612 0.233123
H82   H     H_    0.698793 0.818525 0.436098 0.160647
C121  C     C_3   0.745537 0.781274 0.346437 -0.778422
H83   H     H_    0.673742 0.774222 0.270550 0.268723
H84   H     H_    0.768624 0.743647 0.397388 0.263357
H85   H     H_    0.793748 0.789707 0.323112 0.263610
O8    O     O_3   0.200789 0.095123 0.678099 -0.644872
C122  C     C_3   0.262083 0.115241 0.653202 0.204256
H86   H     H_    0.268158 0.085406 0.602021 0.117952
H87   H     H_    0.332843 0.123518 0.729867 0.065591
C123  C     C_3   0.226353 0.169093 0.590532 -0.339616
H88   H     H_    0.214848 0.198234 0.637953 0.210865
H89   H     H_    0.280476 0.186915 0.582602 0.170447
C124  C     C_3   0.136092 0.161286 0.475347 -0.758053
H90   H     H_    0.145938 0.131256 0.427870 0.283741
H91   H     H_    0.116083 0.200686 0.430712 0.242199
H92   H     H_    0.078844 0.147051 0.480518 0.262322
I1    I     I_    0.632308 0.303062 0.784071 -0.383150
I2    I     I_    0.410218 0.614916 0.142261 -0.322936
I3    I     I_    0.381768 0.366315 0.121527 -0.334382
I4    I     I_    0.654692 0.633357 0.916202 -0.317788
I5    I     I_    0.121847 0.839305 0.841773 -0.304444
I6    I     I_    0.925062 0.114693 0.193098 -0.360282
I7    I     I_    0.878019 0.893603 0.076856 -0.260691
I8    I     I_    0.117226 0.121401 0.904256 -0.336962
O9    O     O_3   0.097448 0.713269 0.796626 -0.637367
C125  C     C_3   0.110912 0.687562 0.722074 0.200686
H93   H     H_    0.041071 0.672841 0.651254 0.107636
H94   H     H_    0.154307 0.650196 0.757836 0.103420
C126  C     C_3   0.149413 0.726784 0.675989 -0.316017
H95   H     H_    0.113584 0.717760 0.587024 0.179019
H96   H     H_    0.133760 0.769760 0.681643 0.242754
C127  C     C_3   0.254645 0.720272 0.734428 -0.960200
H97   H     H_    0.294509 0.732196 0.822389 0.265275
H98   H     H_    0.278176 0.746479 0.693968 0.242135
H99   H     H_    0.270997 0.677279 0.729734 0.274444
O10   O     O_3   0.950330 0.248910 0.193971 -0.653462
C128  C     C_3   0.928499 0.251379 0.271714 0.155791
H100  H     H_    0.994155 0.263345 0.351647 0.130437
H101  H     H_    0.909060 0.211015 0.287194 0.137219
C129  C     C_3   0.855195 0.294547 0.245484 -0.371519
H102  H     H_    0.873084 0.309998 0.325089 0.237034
H103  H     H_    0.858014 0.329957 0.201141 0.225244
C130  C     C_3   0.755160 0.271825 0.180987 -0.817070
H104  H     H_    0.728107 0.261799 0.094929 0.251921
H105  H     H_    0.708742 0.303018 0.178106 0.287558
H106  H     H_    0.751507 0.234779 0.221418 0.250069
O11   O     O_3   0.962628 0.773358 0.122805 -0.613389
C131  C     C_3   0.002560 0.756266 0.232989 0.212899
H107  H     H_    0.065933 0.732943 0.259772 0.092513
H108  H     H_    0.956949 0.728331 0.242042 0.095072
C132  C     C_3   0.033974 0.804259 0.313275 -0.317370
H109  H     H_    0.101755 0.793899 0.391727 0.164820
H110  H     H_    0.045235 0.841671 0.280071 0.257116
C133  C     C_3   0.964995 0.814869 0.341433 -0.895199
H111  H     H_    0.895890 0.826305 0.266558 0.273040
H112  H     H_    0.991562 0.848287 0.402574 0.259386
H113  H     H_    0.956917 0.777865 0.378688 0.250385
O12   O     O_3   0.052295 0.250918 0.855956 -0.645762
C134  C     C_3   0.020582 0.239157 0.745671 0.166431
H114  H     H_    0.950430 0.257443 0.690670 0.138961
H115  H     H_    0.009334 0.194774 0.729488 0.144419
C135  C     C_3   0.081182 0.262177 0.709794 -0.342982
H116  H     H_    0.089313 0.307062 0.721447 0.230708
H117  H     H_    0.151716 0.243699 0.759381 0.191159
C136  C     C_3   0.036738 0.249112 0.588795 -0.941777
H118  H     H_    0.027375 0.204332 0.574922 0.262797
H119  H     H_    0.082657 0.264443 0.565762 0.287372
H120  H     H_    0.967794 0.268980 0.534938 0.295406
O13   O     O_3   0.650553 0.177171 0.781716 -0.650317
C137  C     C_3   0.686242 0.134626 0.753153 0.202661
H121  H     H_    0.625720 0.111287 0.684055 0.140226
H122  H     H_    0.728411 0.104878 0.821490 0.147746
C138  C     C_3   0.743124 0.158026 0.713832 -0.358834
H123  H     H_    0.696685 0.183610 0.639888 0.213098
H124  H     H_    0.801715 0.183778 0.779627 0.217720
C139  C     C_3   0.783186 0.113081 0.683679 -0.889135
H125  H     H_    0.825106 0.084443 0.753809 0.310403
H126  H     H_    0.829265 0.131445 0.663323 0.255945
H127  H     H_    0.725420 0.090510 0.610463 0.265081
O14   O     O_3   0.458549 0.747915 0.170677 -0.639287
C140  C     C_3   0.472060 0.743335 0.273991 0.206238
H128  H     H_    0.546601 0.754006 0.337827 0.111949
H129  H     H_    0.464171 0.700627 0.291537 0.152745
C141  C     C_3   0.411940 0.781743 0.290561 -0.432921
H130  H     H_    0.457808 0.801886 0.372459 0.187378
H131  H     H_    0.379367 0.814612 0.228206 0.232224
C142  C     C_3   0.334367 0.750982 0.287178 -0.891810
H132  H     H_    0.363740 0.716843 0.347454 0.266238
H133  H     H_    0.281900 0.734811 0.203074 0.260980
H134  H     H_    0.298590 0.779199 0.308698 0.271419
O15   O     O_3   0.440263 0.241635 0.166399 -0.621245
C143  C     C_3   0.461073 0.222601 0.268803 0.234318
H135  H     H_    0.524090 0.196894 0.306978 0.061931
H136  H     H_    0.405459 0.195841 0.260618 0.092333
C144  C     C_3   0.487794 0.268736 0.351141 -0.343119
H137  H     H_    0.544294 0.254179 0.434866 0.178517
H138  H     H_    0.514871 0.304667 0.331992 0.247298
C145  C     C_3   0.406904 0.284655 0.355430 -0.851459
H139  H     H_    0.344427 0.293121 0.271587 0.262429
H140  H     H_    0.426195 0.321541 0.407461 0.272300
H141  H     H_    0.390115 0.250935 0.391493 0.256803
O16   O     O_3   0.578545 0.752651 0.910841 -0.628507
C146  C     C_3   0.512103 0.745667 0.794493 0.226903
H142  H     H_    0.453195 0.773326 0.768717 0.111536
H143  H     H_    0.482304 0.703706 0.778389 0.151681
C147  C     C_3   0.544251 0.756742 0.719059 -0.425763
H144  H     H_    0.583034 0.796011 0.740039 0.214015
H145  H     H_    0.591219 0.723770 0.729104 0.227270
C148  C     C_3   0.460164 0.758807 0.598110 -0.974081
H146  H     H_    0.423573 0.718584 0.571599 0.268018
H147  H     H_    0.484048 0.769336 0.546046 0.280135
H148  H     H_    0.410503 0.790606 0.585483 0.262538
I9    I     I_    0.838285 0.370303 0.464018 -0.544038
I10   I     I_    0.822825 0.600227 0.237020 -0.326837
I11   I     I_    0.062331 0.391194 0.489440 -0.546875
I12   I     I_    0.774599 0.600697 0.435836 -0.444833
I13   I     I_    0.667154 0.978844 0.774542 -0.349967
I14   I     I_    0.304429 0.022960 0.204929 -0.270524
I15   I     I_    0.713893 0.967974 0.574796 -0.485501
I16   I     I_    0.254335 0.032313 0.403893 -0.415082

loop_
_geom_bond_atom_site_label_1
_geom_bond_atom_site_label_2
_ccdc_geom_bond_type
C122  H87   S    
C10   C85   S    
C37   I9    S    
C148  H146  S    
C66   O2    S    
C63   H23   S    
C72   N32   A    
C130  H104  S    
N7    Ni7   S    
C15   C32   A    
C5    H5    S    
C16   C31   A    
C40   C46   A    
C108  H54   S    
O10   C128  S    
C58   C82   A    
C91   H31   S    
C121  H84   S    
C96   C99   S    
C50   H10   S    
C114  C115  S    
C89   H29   S    
C119  H79   S    
C125  H93   S    
C38   C45   A    
N25   Ni4   S    
N26   Ni3   S    
C139  H125  S    
C59   H19   S    
C127  H99   S    
N3    Ni3   S    
C47   C83   S    
C18   C33   A    
C106  H50   S    
C121  H85   S    
C27   O15   S    
O3    C107  S    
C41   C43   A    
C42   C44   A    
C115  H69   S    
C53   H13   S    
C102  H40   S    
C135  H117  S    
C2    N2    A    
C105  C106  S    
C13   C30   A    
C143  H135  S    
C17   I5    S    
C142  H133  S    
C109  H55   S    
C19   I7    S    
C27   C35   A    
C64   H24   S    
C21   C29   A    
C17   C21   A    
C142  H132  S    
N29   Ni8   S    
C23   C31   A    
N6    N15   A    
N4    N9    A    
C19   C23   A    
C24   C32   A    
C30   C76   S    
N19   Ni1   S    
C90   C92   S    
O12   C134  S    
C56   H16   S    
C14   C26   A    
N17   N20   A    
C94   C96   S    
N18   N19   A    
N31   Ni6   S    
C131  H107  S    
N21   N24   A    
N22   N23   A    
C12   C93   S    
C17   C34   A    
C5    C77   A    
C1    H1    S    
C7    C79   A    
C54   C79   A    
C120  C121  S    
C3    H3    S    
N9    Ni2   S    
N15   Ni8   S    
C137  C138  S    
C45   C81   S    
C9    C90   S    
C55   N15   A    
C67   O3    S    
C119  C120  S    
C63   C84   A    
C40   I12   S    
C68   N28   A    
C127  H97   S    
C128  H101  S    
C22   O10   S    
C139  H127  S    
C54   H14   S    
N20   Ni2   S    
C69   O5    S    
C91   C98   S    
O16   C146  S    
C106  H48   S    
C107  H52   S    
C138  H123  S    
C65   N25   A    
C43   C47   A    
C115  H71   S    
C44   C48   A    
C105  H47   S    
N1    N12   A    
C146  H142  S    
C59   C82   A    
C63   N23   A    
C68   O4    S    
C7    N7    A    
C101  H37   S    
C146  C147  S    
C54   N14   A    
N8    N13   A    
C43   I15   S    
C92   H32   S    
C93   H33   S    
C32   C74   S    
C124  H90   S    
C111  H61   S    
C136  H119  S    
C52   H12   S    
C4    H4    S    
C103  H41   S    
C11   C99   S    
C104  H45   S    
N27   Ni2   S    
C137  H122  S    
C46   C82   S    
C20   C35   A    
C131  C132  S    
C10   C89   S    
C103  H42   S    
C89   C91   S    
C3    C75   A    
C116  H72   S    
C11   C88   S    
C39   C45   A    
C93   C95   S    
C71   N31   A    
C126  H95   S    
C53   N13   A    
C68   C85   A    
C140  H129  S    
N17   Ni3   S    
C92   C97   S    
O9    C125  S    
C133  H112  S    
C53   C80   A    
C141  H130  S    
C55   C78   A    
C113  C114  S    
C112  H62   S    
C71   C88   A    
C129  H103  S    
C113  H66   S    
O5    C113  S    
C132  H110  S    
C60   C81   A    
C145  H140  S    
C94   C100  S    
C138  C139  S    
N8    Ni8   S    
C118  H77   S    
C39   I11   S    
C144  H138  S    
C7    H7    S    
C6    N6    A    
C14   C29   A    
C62   H22   S    
C72   C87   A    
C1    N1    A    
N11   Ni4   S    
C145  H141  S    
C28   O16   S    
C62   C84   A    
C22   C30   A    
C100  H28   S    
C141  C142  S    
C72   O8    S    
O14   C140  S    
C21   O9    S    
C66   C86   A    
C124  H92   S    
C117  C118  S    
C134  C135  S    
C123  H88   S    
C65   O1    S    
C114  H68   S    
C119  H80   S    
C125  H94   S    
C116  C117  S    
C69   N29   A    
C67   N27   A    
N14   Ni5   S    
C3    N3    A    
C139  H126  S    
C147  H144  S    
C126  C127  S    
N5    N16   A    
C25   C33   A    
C106  H49   S    
C38   I10   S    
N3    N10   A    
C125  C126  S    
C118  H76   S    
C51   C74   A    
C18   I6    S    
C144  H137  S    
C115  H70   S    
C96   H36   S    
C102  H39   S    
C112  H64   S    
N30   Ni7   S    
C44   I16   S    
C143  H136  S    
C15   I3    S    
C109  H56   S    
O7    C119  S    
N12   Ni3   S    
C66   N26   A    
N13   Ni6   S    
C58   N18   A    
N16   Ni7   S    
C62   N22   A    
C56   N16   A    
C93   C99   S    
C69   C87   A    
C50   N10   A    
C131  H108  S    
C122  C123  S    
C10   C92   S    
C148  H147  S    
C18   C22   A    
C23   O11   S    
C120  H82   S    
C108  C109  S    
C134  H114  S    
C97   H25   S    
C61   C83   A    
O11   C131  S    
C95   C100  S    
C33   C79   S    
C99   H27   S    
C121  H83   S    
C57   N17   A    
C35   C77   S    
C132  H109  S    
C129  C130  S    
C64   C83   A    
C128  H100  S    
C61   N21   A    
O15   C143  S    
C64   N24   A    
C49   N9    A    
C103  H43   S    
C11   C94   S    
C112  H63   S    
N25   N28   A    
C57   H17   S    
N26   N27   A    
C102  C103  S    
C135  H116  S    
C67   C86   A    
C9    C97   S    
C130  H105  S    
N24   Ni6   S    
C141  H131  S    
C13   I1    S    
C142  H134  S    
C101  H38   S    
C146  H143  S    
C1    C73   A    
C71   O7    S    
C37   C39   A    
C50   C75   A    
C105  H46   S    
C38   C40   A    
C136  H118  S    
C55   H15   S    
O6    C116  S    
C117  H75   S    
C60   H20   S    
C24   O12   S    
C104  H44   S    
C70   O6    S    
C12   C100  S    
C101  C102  S    
C6    C78   A    
C90   H30   S    
C98   H26   S    
C28   C36   A    
O1    C101  S    
C2    H2    S    
C12   C96   S    
C41   I13   S    
C37   C46   A    
C135  C136  S    
C16   C28   A    
C108  H53   S    
N2    Ni2   S    
C140  H128  S    
C25   O13   S    
C70   C88   A    
C9    C91   S    
C60   N20   A    
N6    Ni6   S    
C117  H74   S    
C133  H113  S    
O8    C122  S    
C61   H21   S    
C127  H98   S    
C128  C129  S    
C19   C36   A    
C70   N30   A    
C31   C73   S    
C58   H18   S    
C10   C98   S    
C34   C80   S    
C15   C27   A    
C26   C34   A    
N7    N14   A    
C20   C24   A    
C107  H51   S    
C138  H124  S    
C20   I8    S    
N1    Ni1   S    
C2    C74   A    
C42   I14   S    
N4    Ni4   S    
N5    Ni5   S    
C13   C25   A    
N28   Ni1   S    
O13   C137  S    
C8    H8    S    
C132  C133  S    
C6    H6    S    
N32   Ni5   S    
C130  H106  S    
C52   C73   A    
C124  H91   S    
C59   N19   A    
C111  H60   S    
C136  H120  S    
C56   C77   A    
C48   C84   S    
C89   C97   S    
O2    C104  S    
C134  H115  S    
C104  C105  S    
C123  H89   S    
C110  H58   S    
C137  H121  S    
C9    C86   S    
C4    N4    A    
C26   O14   S    
C5    N5    A    
C51   N11   A    
N2    N11   A    
C110  C111  S    
C95   H35   S    
C114  H67   S    
C49   C76   A    
N18   Ni4   S    
C8    N8    A    
C143  C144  S    
C116  H73   S    
C16   I4    S    
N21   Ni7   S    
N22   Ni8   S    
C110  H59   S    
N29   N32   A    
C147  H145  S    
C126  H96   S    
N30   N31   A    
C140  C141  S    
C57   C81   A    
N10   Ni1   S    
C123  C124  S    
C122  H86   S    
C49   H9    S    
C11   C95   S    
C133  H111  S    
C51   H11   S    
C12   C87   S    
C111  C112  S    
C120  H81   S    
C65   C85   A    
C29   C75   S    
C148  H148  S    
C147  C148  S    
C129  H102  S    
C36   C78   S    
C109  H57   S    
C145  H139  S    
C107  C108  S    
C94   H34   S    
C41   C48   A    
C118  H78   S    
C42   C47   A    
C113  H65   S    
C4    C76   A    
C52   N12   A    
O4    C110  S    
N23   Ni5   S    
C144  C145  S    
C8    C80   A    
C90   C98   S    
C14   I2    S    
