data_mof_unit_53385.cif
_audit_creation_date              2012-12-10T17:23:13-0500
_audit_creation_method            fapswitch 2.2
_symmetry_space_group_name_H-M    P1
_symmetry_Int_Tables_number       1
_space_group_crystal_system       triclinic
_cell_length_a                    15.83778
_cell_length_b                    10.817033
_cell_length_c                    9.637246
_cell_angle_alpha                 89.455404
_cell_angle_beta                  89.958077
_cell_angle_gamma                 92.81778
_cell_volume                      1648.95978479

loop_
_atom_site_label
_atom_site_type_symbol
_atom_type_description
_atom_site_fract_x
_atom_site_fract_y
_atom_site_fract_z
_atom_type_partial_charge
C1    C     C_R   0.506639 0.262987 0.501402 0.796636
C2    C     C_3   0.082596 0.498438 0.501003 0.181409
C3    C     C_3   0.974769 0.614099 0.490285 -0.155942
C4    C     C_3   0.916761 0.496417 0.502463 0.158412
C5    C     C_3   0.028815 0.548172 0.382007 -0.195918
C6    C     C_3   0.969102 0.430469 0.393872 -0.161658
C7    C     C_1   0.174467 0.499267 0.500436 -0.064197
C8    C     C_1   0.825086 0.496217 0.502563 -0.078042
C9    C     C_R   0.535652 0.107464 0.764873 0.153980
C10   C     C_R   0.500974 0.051176 0.885105 -0.160913
C11   C     C_R   0.449357 0.942922 0.875935 0.178932
C12   C     C_R   0.339996 0.499580 0.500029 0.822458
C13   C     C_R   0.441301 0.883258 0.748323 -0.195885
C14   C     C_R   0.479166 0.936417 0.627817 0.018123
C15   C     C_R   0.511118 0.059928 0.632650 0.085748
C16   C     C_R   0.514077 0.128468 0.505517 -0.109954
C17   C     C_R   0.507821 0.065555 0.379246 -0.212191
C18   C     C_R   0.497184 0.938204 0.377889 -0.215148
C19   C     C_R   0.485529 0.871571 0.501694 -0.089171
C20   C     C_R   0.644162 0.601922 0.137549 0.245196
C21   C     C_R   0.721279 0.584756 0.068765 0.130641
C22   C     C_R   0.719934 0.583097 0.924266 -0.268077
C23   C     C_R   0.492704 0.736905 0.499993 0.776513
C24   C     C_R   0.643155 0.602813 0.858311 0.214235
C25   C     C_R   0.568724 0.553195 0.924832 0.125715
C26   C     C_R   0.569239 0.551903 0.073314 0.093292
C27   C     C_R   0.434389 0.449485 0.074347 -0.063736
C28   C     C_R   0.434498 0.449264 0.926823 -0.072017
C29   C     C_R   0.659879 0.498744 0.500203 0.799635
C30   C     C_3   0.970145 0.446555 0.621741 -0.163557
C31   C     C_3   0.023900 0.382296 0.512982 0.229887
C32   C     C_1   0.250149 0.499524 0.500168 -0.184922
C33   C     C_1   0.749509 0.497049 0.501363 -0.189221
C34   C     C_3   0.029866 0.564244 0.609299 -0.200237
Cu1   Cu    Cu3+1 0.499990 0.499990 0.640660 0.931301
Cu2   Cu    Cu3+1 0.500010 0.500010 0.359340 0.938338
H1    H     H_    0.496047 0.892443 0.279329 0.160352
H2    H     H_    0.944922 0.404222 0.719636 0.131013
H3    H     H_    0.053949 0.590127 0.283878 0.137541
H4    H     H_    0.952931 0.709781 0.480884 0.133965
H5    H     H_    0.055948 0.619380 0.697354 0.136296
H6    H     H_    0.510864 0.114570 0.280663 0.163133
N1    N     N_R   0.500800 0.501210 0.147910 -0.182692
N2    N     N_R   0.500830 0.501290 0.852040 -0.189286
O1    O     O_R   0.499990 0.319640 0.618810 -0.568774
O2    O     O_R   0.500000 0.319660 0.381240 -0.581469
O3    O     O_R   0.379070 0.499980 0.618770 -0.582461
O4    O     O_R   0.379080 0.500000 0.381190 -0.576880
O5    O     O_R   0.500000 0.680340 0.618760 -0.586392
O6    O     O_R   0.500010 0.680360 0.381190 -0.579793
O7    O     O_R   0.620920 0.500000 0.618810 -0.572331
O8    O     O_R   0.620930 0.500020 0.381230 -0.569890
C35   C     C_3   0.052447 0.250558 0.525773 -0.907192
H7    H     H_    0.996345 0.185162 0.532592 0.233430
H8    H     H_    0.090582 0.228204 0.433503 0.236877
H9    H     H_    0.091410 0.241327 0.620631 0.237016
C36   C     C_3   0.407689 0.885708 0.002358 -0.889811
H10   H     H_    0.413372 0.948956 0.092138 0.226379
H11   H     H_    0.339329 0.866580 0.981916 0.236945
H12   H     H_    0.437235 0.797466 0.028714 0.238024
H13   H     H_    0.403929 0.796867 0.743703 0.175392
H14   H     H_    0.380772 0.407015 0.129291 0.140055
C37   C     C_3   0.640843 0.725087 0.209206 -0.775171
H15   H     H_    0.650654 0.716955 0.322494 0.235221
H16   H     H_    0.690793 0.792254 0.169610 0.204406
H17   H     H_    0.580745 0.767490 0.183874 0.218006
C38   C     C_3   0.804919 0.602561 0.141445 -0.860817
H18   H     H_    0.796275 0.619245 0.253617 0.247359
H19   H     H_    0.841633 0.518545 0.129066 0.231243
H20   H     H_    0.841463 0.683563 0.096410 0.224261
H21   H     H_    0.778738 0.600551 0.868054 0.171132
C39   C     C_3   0.642382 0.725701 0.782665 -0.756120
H22   H     H_    0.652397 0.716233 0.669746 0.232058
H23   H     H_    0.583346 0.771942 0.805293 0.241413
H24   H     H_    0.693818 0.790780 0.820077 0.192146
H25   H     H_    0.381032 0.406448 0.872836 0.143789
H26   H     H_    0.943004 0.375024 0.306054 0.130084
C40   C     C_3   0.609042 0.200146 0.783684 -0.797853
H27   H     H_    0.587936 0.283514 0.837319 0.251761
H28   H     H_    0.658056 0.158195 0.848913 0.206094
H29   H     H_    0.639631 0.227140 0.683516 0.222897
H30   H     H_    0.516204 0.089886 0.985921 0.138975

loop_
_geom_bond_atom_site_label_1
_geom_bond_atom_site_label_2
_ccdc_geom_bond_type
C37   H16   S    
C2    C7    S    
C12   O4    A    
Cu1   O3    S    
C35   H7    S    
C21   C22   A    
C18   H1    S    
C39   H24   S    
C5    C6    S    
C40   H28   S    
C1    O2    A    
C23   O5    A    
C15   C16   A    
C29   C33   S    
C30   H2    S    
C18   C19   A    
C17   H6    S    
Cu1   Cu2   S    
C16   C17   A    
Cu1   O5    S    
Cu2   O2    S    
C9    C10   A    
Cu2   O8    S    
C4    C8    S    
C8    C33   T    
C2    C34   S    
C6    C31   S    
C37   H17   S    
C13   C14   A    
C21   C38   S    
C34   H5    S    
C12   O3    A    
C25   N2    A    
C26   N1    A    
C35   H8    S    
C30   C34   S    
C38   H18   S    
C24   C25   A    
C4    C6    S    
C40   H27   S    
C23   O6    A    
C3    C34   S    
C3    C5    S    
C25   C26   A    
C10   H30   S    
C2    C31   S    
C38   H19   S    
C19   C23   S    
C27   H14   S    
C17   C18   A    
C1    C16   S    
C31   C35   S    
Cu1   N2    S    
C39   H23   S    
C3    H4    S    
C5    H3    S    
Cu1   O7    S    
C22   C24   A    
C2    C5    S    
C3    C4    S    
Cu1   O1    S    
C22   H21   S    
Cu2   O6    S    
C24   C39   S    
C29   O7    A    
C35   H9    S    
C7    C32   T    
C14   C19   A    
C39   H22   S    
C6    H26   S    
C38   H20   S    
C20   C37   S    
C9    C15   A    
C11   C13   A    
C40   H29   S    
C1    O1    A    
C36   H10   S    
C30   C31   S    
C20   C26   A    
C28   N2    A    
Cu2   O4    S    
C9    C40   S    
C4    C30   S    
C36   H11   S    
C10   C11   A    
C37   H15   S    
C27   N1    A    
C36   H12   S    
C13   H13   S    
C20   C21   A    
C27   C28   A    
C14   C15   A    
Cu2   N1    S    
C11   C36   S    
C12   C32   S    
C29   O8    A    
C28   H25   S    
