data_mof_unit_41599.cif
_audit_creation_date              2012-12-11T17:35:11-0500
_audit_creation_method            fapswitch 2.2
_symmetry_space_group_name_H-M    P1
_symmetry_Int_Tables_number       1
_space_group_crystal_system       triclinic
_cell_length_a                    24.240617
_cell_length_b                    7.164182
_cell_length_c                    22.090707
_cell_angle_alpha                 89.999554
_cell_angle_beta                  99.458808
_cell_angle_gamma                 90.000414
_cell_volume                      3784.20558603

loop_
_atom_site_label
_atom_site_type_symbol
_atom_type_description
_atom_site_fract_x
_atom_site_fract_y
_atom_site_fract_z
_atom_type_partial_charge
O1    O     O_R   0.801940 0.607920 0.199180 -0.531098
O2    O     O_R   0.198060 0.392080 0.800820 -0.531166
O3    O     O_R   0.698060 0.107920 0.300820 -0.531191
O4    O     O_R   0.301940 0.892080 0.699180 -0.531184
O5    O     O_R   0.687840 0.274940 0.181980 -0.528953
O6    O     O_R   0.312160 0.725060 0.818020 -0.528947
O7    O     O_R   0.812160 0.774940 0.318020 -0.528922
O8    O     O_R   0.187840 0.225060 0.681980 -0.528911
C1    C     C_R   0.667252 0.446621 0.167617 0.763903
C2    C     C_R   0.332748 0.553380 0.832383 0.764013
C3    C     C_R   0.832739 0.946621 0.332398 0.763979
C4    C     C_R   0.167262 0.053380 0.667601 0.763883
O9    O     O_R   0.800890 0.278000 0.191820 -0.510224
O10   O     O_R   0.199110 0.722000 0.808180 -0.510299
O11   O     O_R   0.699110 0.778000 0.308180 -0.510279
O12   O     O_R   0.300890 0.222000 0.691820 -0.510274
O13   O     O_R   0.811910 0.110860 0.310720 -0.525831
O14   O     O_R   0.188090 0.889140 0.689280 -0.525845
O15   O     O_R   0.688090 0.610860 0.189280 -0.525829
O16   O     O_R   0.311910 0.389140 0.810720 -0.525824
C5    C     C_R   0.818549 0.446760 0.178972 0.833824
C6    C     C_R   0.181454 0.553240 0.821027 0.833917
C7    C     C_R   0.681453 0.946759 0.321028 0.833882
C8    C     C_R   0.318547 0.053241 0.678972 0.833932
O17   O     O_3   0.753490 0.442410 0.289000 -0.373103
O18   O     O_3   0.246510 0.557590 0.711000 -0.373092
O19   O     O_3   0.746510 0.942410 0.211000 -0.372982
O20   O     O_3   0.253490 0.057590 0.789000 -0.373058
V1    V     V_3+5 0.749350 0.166330 0.242770 1.688361
V2    V     V_3+5 0.250650 0.833670 0.757230 1.688159
V3    V     V_3+5 0.750650 0.666330 0.257230 1.688298
V4    V     V_3+5 0.249350 0.333670 0.742770 1.688179
C9    C     C_R   0.394544 0.127184 0.542848 -0.142912
C10   C     C_R   0.605451 0.872782 0.457147 -0.142903
C11   C     C_R   0.105471 0.627119 0.957161 -0.142955
C12   C     C_R   0.894618 0.372437 0.042919 -0.142869
C13   C     C_R   0.354321 0.140470 0.581601 0.351241
C14   C     C_R   0.645674 0.859498 0.418394 0.351254
C15   C     C_R   0.145694 0.640405 0.918409 0.351206
C16   C     C_R   0.854389 0.359171 0.081666 0.351390
C17   C     C_R   0.361560 0.042776 0.637948 -0.266147
C18   C     C_R   0.638439 0.957223 0.362053 -0.266135
C19   C     C_R   0.138442 0.542775 0.862052 -0.266122
C20   C     C_R   0.861565 0.457224 0.137947 -0.266047
C21   C     C_R   0.410379 0.932902 0.654551 0.331876
C22   C     C_R   0.589625 0.067126 0.345454 0.331876
C23   C     C_R   0.089613 0.432962 0.845438 0.331781
C24   C     C_R   0.910324 0.567448 0.154482 0.331804
C25   C     C_R   0.450482 0.920021 0.614998 0.399349
C26   C     C_R   0.549523 0.080008 0.385008 0.399347
C27   C     C_R   0.049511 0.420085 0.884989 0.399375
C28   C     C_R   0.950422 0.580343 0.114925 0.399386
C29   C     C_R   0.442469 0.017321 0.558908 -0.132034
C30   C     C_R   0.557530 0.982676 0.441093 -0.132025
C31   C     C_R   0.057533 0.517321 0.941090 -0.132029
C32   C     C_R   0.942478 0.482662 0.058908 -0.131890
C33   C     C_1   0.483039 0.005265 0.517298 0.161913
C34   C     C_1   0.516960 0.994730 0.482703 0.161916
C35   C     C_1   0.016966 0.505255 0.982701 0.161922
C36   C     C_1   0.983046 0.494715 0.017297 0.161969
C37   C     C_R   0.931473 0.062708 0.369652 0.435601
C38   C     C_R   0.068522 0.937341 0.630363 0.435583
C39   C     C_R   0.568578 0.563222 0.130325 0.435563
C40   C     C_R   0.431422 0.436780 0.869674 0.435547
C41   C     C_R   0.884299 0.957583 0.379326 -0.157769
C42   C     C_R   0.115702 0.042414 0.620675 -0.157756
C43   C     C_R   0.615677 0.457608 0.120710 -0.157675
C44   C     C_R   0.384323 0.542391 0.879289 -0.157704
C45   C     C_R   0.884672 0.867020 0.435053 -0.147408
C46   C     C_R   0.115338 0.132905 0.564938 -0.147396
C47   C     C_R   0.615219 0.366482 0.065077 -0.147101
C48   C     C_R   0.384781 0.633513 0.934923 -0.147029
C49   C     C_R   0.929379 0.887498 0.483913 -0.012500
C50   C     C_R   0.070627 0.112425 0.516082 -0.012512
C51   C     C_R   0.570501 0.386755 0.016228 -0.012354
C52   C     C_R   0.429498 0.613237 0.983773 -0.012383
C53   C     C_R   0.977315 0.990539 0.475156 -0.062340
C54   C     C_R   0.022690 0.009397 0.524845 -0.062334
C55   C     C_R   0.522678 0.490600 0.024861 -0.062017
C56   C     C_R   0.477322 0.509392 0.975139 -0.062023
C57   C     C_R   0.980011 0.072519 0.416602 -0.102848
C58   C     C_R   0.019991 0.927435 0.583403 -0.102835
C59   C     C_R   0.520073 0.573439 0.083322 -0.102728
C60   C     C_R   0.479926 0.426554 0.916678 -0.102725
C61   C     C_R   0.925750 0.811629 0.541943 0.323664
C62   C     C_R   0.074260 0.188260 0.458047 0.323669
C63   C     C_R   0.574021 0.309783 0.958325 0.323658
C64   C     C_R   0.425978 0.690205 0.041676 0.323687
C65   C     C_R   0.969083 0.838540 0.591896 0.388954
C66   C     C_R   0.030925 0.161334 0.408098 0.388951
C67   C     C_R   0.530710 0.336488 0.908338 0.388799
C68   C     C_R   0.469288 0.663498 0.091662 0.388779
H1    H     H_    0.388077 0.201920 0.499597 0.214597
H2    H     H_    0.611914 0.798021 0.500394 0.214593
H3    H     H_    0.111947 0.701802 0.000421 0.214599
H4    H     H_    0.888201 0.297416 0.999721 0.214529
Cl1   Cl    Cl    0.293983 0.274613 0.556279 -0.534835
Cl2   Cl    Cl    0.706006 0.725320 0.443711 -0.534822
Cl3   Cl    Cl    0.206051 0.774442 0.943747 -0.534709
Cl4   Cl    Cl    0.794120 0.224632 0.056403 -0.534647
Cl5   Cl    Cl    0.423141 0.816460 0.726146 -0.448828
Cl6   Cl    Cl    0.576867 0.183602 0.273866 -0.448839
Cl7   Cl    Cl    0.076842 0.316582 0.773834 -0.449049
Cl8   Cl    Cl    0.923029 0.684321 0.226002 -0.449196
Cl9   Cl    Cl    0.511001 0.781716 0.635893 -0.416087
Cl10  Cl    Cl    0.489011 0.218353 0.364121 -0.416112
Cl11  Cl    Cl    0.988975 0.281863 0.864079 -0.415926
Cl12  Cl    Cl    0.010850 0.719158 0.135720 -0.416240
Cl13  Cl    Cl    0.925350 0.187885 0.299511 -0.487010
Cl14  Cl    Cl    0.074633 0.812435 0.700554 -0.486941
Cl15  Cl    Cl    0.574732 0.687831 0.200576 -0.486814
Cl16  Cl    Cl    0.425269 0.312194 0.799418 -0.486807
H5    H     H_    0.847749 0.788295 0.440569 0.208571
H6    H     H_    0.152266 0.211587 0.559412 0.208579
H7    H     H_    0.652084 0.287347 0.059630 0.208511
H8    H     H_    0.347916 0.712646 0.940371 0.208595
Cl17  Cl    Cl    0.865317 0.684934 0.553725 -0.419932
Cl18  Cl    Cl    0.134693 0.314929 0.446253 -0.419943
Cl19  Cl    Cl    0.634276 0.181685 0.946764 -0.420715
Cl20  Cl    Cl    0.365723 0.818299 0.053238 -0.420590
Cl21  Cl    Cl    0.952998 0.778289 0.664901 -0.301908
Cl22  Cl    Cl    0.047023 0.221332 0.335078 -0.302029
Cl23  Cl    Cl    0.546668 0.273771 0.835490 -0.302230
Cl24  Cl    Cl    0.453330 0.726195 0.164512 -0.302239

loop_
_geom_bond_atom_site_label_1
_geom_bond_atom_site_label_2
_ccdc_geom_bond_type
O17   V3    S    
C55   C59   A    
O1    C5    A    
C31   C35   S    
O19   V1    S    
O13   V1    S    
O3    C7    A    
C56   C60   A    
O15   V3    S    
C13   Cl1   S    
C53   C54   A    
C46   H6    S    
O7    C3    A    
C59   C68   A    
C22   Cl6   S    
C45   H5    S    
C26   C30   A    
C7    C18   S    
C40   C44   A    
O9    V1    S    
C14   C18   A    
C63   C67   A    
C68   Cl24  S    
C30   C34   S    
O4    C8    A    
C25   C29   A    
C40   Cl16  S    
C24   Cl8   S    
O1    V3    S    
O2    V4    S    
C18   C22   A    
O3    V1    S    
C12   H4    S    
C46   C50   A    
C40   C60   A    
C1    O15   A    
C64   C68   A    
C2    O16   A    
O2    C6    A    
C45   C49   A    
O14   V2    S    
C60   C67   A    
C21   C25   A    
C64   Cl20  S    
C52   C64   A    
C16   C20   A    
C27   C31   A    
C14   Cl2   S    
O11   C7    A    
C38   C58   A    
C37   Cl13  S    
C35   C36   T    
O12   C8    A    
C67   Cl23  S    
C39   Cl15  S    
C8    C17   S    
C66   Cl22  S    
C63   Cl19  S    
O10   V2    S    
O5    V1    S    
C9    C29   A    
C39   C43   A    
C23   Cl7   S    
C38   C42   A    
C11   C31   A    
O8    V4    S    
C52   C56   A    
C12   C16   A    
O7    V3    S    
C62   C66   A    
C61   C65   A    
O18   V4    S    
C15   C19   A    
C4    C42   S    
C9    C13   A    
C32   C36   S    
C39   C59   A    
C44   C48   A    
C11   C15   A    
C1    C43   S    
O5    C1    A    
C12   C32   A    
C37   C41   A    
C5    C20   S    
C54   C58   A    
C15   Cl3   S    
C6    C19   S    
C38   Cl14  S    
C53   C57   A    
O8    C4    A    
C47   H7    S    
C48   C52   A    
C62   Cl18  S    
C17   C21   A    
C50   C62   A    
C61   Cl17  S    
C58   C65   A    
C49   C61   A    
C21   Cl5   S    
C57   C66   A    
C51   C63   A    
O6    V2    S    
C10   C30   A    
C2    C44   S    
C51   C55   A    
O16   V4    S    
C22   C26   A    
C3    O13   A    
C29   C33   S    
C10   C14   A    
C3    C41   S    
C25   Cl9   S    
C10   H2    S    
C9    H1    S    
C16   Cl4   S    
C23   C27   A    
O11   V3    S    
C11   H3    S    
O12   V4    S    
C48   H8    S    
O10   C6    A    
O20   V2    S    
C37   C57   A    
O9    C5    A    
C47   C51   A    
C33   C34   T    
C42   C46   A    
C65   Cl21  S    
C41   C45   A    
C43   C47   A    
C13   C17   A    
O6    C2    A    
C55   C56   A    
C20   C24   A    
C24   C28   A    
C28   Cl12  S    
C27   Cl11  S    
C50   C54   A    
C4    O14   A    
C26   Cl10  S    
C49   C53   A    
C19   C23   A    
O4    V2    S    
C28   C32   A    
