data_mof_unit_25914.cif
_audit_creation_date              2012-12-10T18:46:46-0500
_audit_creation_method            fapswitch 2.2
_symmetry_space_group_name_H-M    P1
_symmetry_Int_Tables_number       1
_space_group_crystal_system       triclinic
_cell_length_a                    18.211344
_cell_length_b                    18.067368
_cell_length_c                    51.564795
_cell_angle_alpha                 89.998064
_cell_angle_beta                  90.003362
_cell_angle_gamma                 89.882444
_cell_volume                      16966.3830888

loop_
_atom_site_label
_atom_site_type_symbol
_atom_type_description
_atom_site_fract_x
_atom_site_fract_y
_atom_site_fract_z
_atom_type_partial_charge
C1    C     C_R   0.999554 0.499951 0.821032 0.794092
C2    C     C_R   0.529493 0.869168 0.013937 -0.169481
C3    C     C_3   0.243685 0.279973 0.773540 -0.245137
C4    C     C_3   0.309849 0.724191 0.238401 -0.243359
C5    C     C_3   0.688458 0.276295 0.762127 -0.252939
C6    C     C_3   0.244566 0.280620 0.225898 -0.238495
C7    C     C_3   0.756252 0.719812 0.773587 -0.245228
C8    C     C_3   0.267160 0.768945 0.725621 -0.226816
C9    C     C_3   0.734736 0.230328 0.274996 -0.239461
C10   C     C_3   0.266374 0.302558 0.732302 -0.204286
C11   C     C_3   0.732807 0.697019 0.267154 -0.199981
C12   C     C_3   0.733091 0.230808 0.725699 -0.227457
C13   C     C_R   0.862798 0.463568 0.986917 -0.171904
C14   C     C_3   0.265583 0.769333 0.274948 -0.236522
C15   C     C_3   0.733556 0.697409 0.732340 -0.204463
C16   C     C_3   0.267326 0.303116 0.267066 -0.199566
C17   C     C_3   0.766849 0.269249 0.225693 -0.227460
C18   C     C_3   0.234317 0.730765 0.774934 -0.235978
C19   C     C_3   0.766378 0.802537 0.232305 -0.204466
C20   C     C_3   0.232630 0.196821 0.767035 -0.199579
C21   C     C_3   0.232904 0.731003 0.225635 -0.226942
C22   C     C_3   0.765302 0.269651 0.775002 -0.239816
C23   C     C_3   0.233648 0.197479 0.232285 -0.204380
C24   C     C_R   0.120299 0.536376 0.013425 -0.176445
C25   C     C_3   0.767228 0.803015 0.767143 -0.200257
C26   C     C_3   0.301401 0.801262 0.750339 0.019273
C27   C     C_3   0.700074 0.198023 0.250184 0.022016
C28   C     C_3   0.197534 0.300088 0.749639 0.019347
C29   C     C_3   0.801810 0.699542 0.249899 0.020519
C30   C     C_3   0.698582 0.198761 0.750407 0.019966
C31   C     C_3   0.300009 0.801886 0.250138 0.022250
C32   C     C_3   0.802413 0.699869 0.749671 0.019531
C33   C     C_3   0.198302 0.300569 0.249825 0.020060
C34   C     C_3   0.801410 0.301252 0.250399 0.019898
C35   C     C_R   0.522686 0.867864 0.986955 -0.167888
C36   C     C_3   0.199970 0.698136 0.750123 0.022260
C37   C     C_3   0.697571 0.800118 0.249659 0.019437
C38   C     C_3   0.301678 0.199411 0.749811 0.020024
C39   C     C_3   0.198585 0.698754 0.250350 0.019369
C40   C     C_3   0.799915 0.301993 0.750188 0.021986
C41   C     C_3   0.302466 0.199912 0.249636 0.019329
C42   C     C_3   0.698180 0.800451 0.749909 0.020593
C43   C     C_3   0.225705 0.808590 0.762954 0.075352
C44   C     C_3   0.776013 0.191270 0.237457 0.087486
C45   C     C_3   0.186315 0.218265 0.743174 0.051434
C46   C     C_R   0.472177 0.131836 0.013942 -0.169307
C47   C     C_3   0.812862 0.781620 0.256216 0.058067
C48   C     C_3   0.774138 0.191671 0.763168 0.075337
C49   C     C_3   0.223946 0.808858 0.237520 0.086953
C50   C     C_3   0.813546 0.781744 0.743263 0.051511
C51   C     C_3   0.187203 0.218533 0.256190 0.057210
C52   C     C_3   0.725882 0.308327 0.263177 0.075357
C53   C     C_3   0.276075 0.691125 0.737540 0.086924
C54   C     C_3   0.686423 0.718227 0.243282 0.051572
C55   C     C_3   0.312782 0.281422 0.756210 0.057063
C56   C     C_3   0.274241 0.691470 0.263005 0.075374
C57   C     C_R   0.119864 0.536283 0.986400 -0.173489
C58   C     C_3   0.723950 0.308767 0.737478 0.087488
C59   C     C_3   0.313676 0.281760 0.243205 0.051475
C60   C     C_3   0.687141 0.718391 0.756259 0.058131
C61   C     C_R   0.502924 0.934409 0.946092 0.514671
C62   C     C_R   0.478668 0.062735 0.054812 0.514436
C63   C     C_R   0.053952 0.517500 0.945644 0.509803
C64   C     C_R   0.929825 0.480330 0.054745 0.512911
C65   C     C_R   0.498158 0.066521 0.946078 0.515186
C66   C     C_R   0.523031 0.938241 0.054808 0.514597
C67   C     C_R   0.927191 0.483216 0.945855 0.514745
C68   C     C_R   0.863501 0.462667 0.013958 -0.176347
C69   C     C_R   0.055770 0.517530 0.054451 0.512993
C70   C     C_R   0.001914 0.433558 0.446078 0.515122
C71   C     C_R   0.977247 0.561863 0.554805 0.514572
C72   C     C_R   0.570283 0.017280 0.445844 0.514143
C73   C     C_R   0.442481 0.981590 0.554486 0.512601
C74   C     C_R   0.997272 0.565675 0.446088 0.514723
C75   C     C_R   0.021469 0.437318 0.554811 0.514465
C76   C     C_R   0.443776 0.982049 0.445674 0.510510
C77   C     C_R   0.568098 0.019903 0.554717 0.512691
C78   C     C_R   0.492424 0.067398 0.973181 -0.010325
C79   C     C_R   0.977631 0.632243 0.486951 -0.167870
C80   C     C_R   0.517918 0.935285 0.027709 -0.010087
C81   C     C_R   0.926466 0.482087 0.973010 -0.009131
C82   C     C_R   0.056597 0.517990 0.027319 -0.008095
C83   C     C_R   0.508950 0.933574 0.973186 -0.010075
C84   C     C_R   0.483805 0.065721 0.027713 -0.010265
C85   C     C_R   0.055621 0.518156 0.972769 -0.008568
C86   C     C_R   0.927786 0.480630 0.027599 -0.007919
C87   C     C_R   0.991284 0.566518 0.473183 -0.010097
C88   C     C_R   0.016334 0.434345 0.527712 -0.010236
C89   C     C_R   0.442225 0.981293 0.472801 -0.008596
C90   C     C_R   0.027889 0.368219 0.513942 -0.169330
C91   C     C_R   0.570010 0.019684 0.527575 -0.007934
C92   C     C_R   0.007677 0.432678 0.473180 -0.010292
C93   C     C_R   0.982361 0.564818 0.527707 -0.010104
C94   C     C_R   0.571096 0.018382 0.472994 -0.009002
C95   C     C_R   0.441516 0.981222 0.527353 -0.007988
C96   C     C_R   0.500752 0.000495 0.986794 -0.026682
C97   C     C_R   0.500839 0.000503 0.014100 -0.026485
C98   C     C_R   0.991310 0.499947 0.986514 -0.021670
C99   C     C_R   0.991887 0.499532 0.013834 -0.021352
C100  C     C_R   0.999430 0.499590 0.486793 -0.026676
C101  C     C_R   0.378196 0.962583 0.486460 -0.173290
C102  C     C_R   0.999364 0.499582 0.514099 -0.026476
C103  C     C_R   0.506452 0.999969 0.486522 -0.021757
C104  C     C_R   0.506000 0.000284 0.513840 -0.021331
C105  C     C_R   0.198671 0.878048 0.775813 0.133516
C106  C     C_R   0.180580 0.939514 0.760494 -0.149571
C107  C     C_R   0.151252 0.002978 0.771895 -0.124567
C108  C     C_R   0.141323 0.006401 0.798704 -0.116734
C109  C     C_R   0.162865 0.946792 0.814247 -0.143276
C110  C     C_R   0.192335 0.883060 0.802860 -0.145231
C111  C     C_R   0.807266 0.124347 0.224135 0.134788
C112  C     C_R   0.999864 0.499990 0.179044 0.801022
C113  C     C_R   0.634084 0.038220 0.513909 -0.176385
C114  C     C_R   0.836650 0.129214 0.199009 -0.171437
C115  C     C_R   0.869687 0.067471 0.187527 -0.159825
C116  C     C_R   0.874267 0.000815 0.201146 -0.109284
C117  C     C_R   0.845417 0.995843 0.226171 -0.124163
C118  C     C_R   0.812014 0.057173 0.237650 -0.129003
C119  C     C_R   0.114440 0.181870 0.736930 0.086218
C120  C     C_R   0.103984 0.144758 0.713274 -0.173833
C121  C     C_R   0.039247 0.105449 0.708756 -0.172970
C122  C     C_R   0.984572 0.103212 0.727704 -0.126633
C123  C     C_R   0.994226 0.140860 0.751144 -0.143021
C124  C     C_R   0.021241 0.366941 0.486955 -0.167706
C125  C     C_R   0.058795 0.180198 0.755731 -0.157613
C126  C     C_R   0.884235 0.819462 0.262222 0.083925
C127  C     C_R   0.893124 0.861127 0.285023 -0.182514
C128  C     C_R   0.957989 0.900526 0.289318 -0.151129
C129  C     C_R   0.013915 0.899312 0.270799 -0.114601
C130  C     C_R   0.005108 0.858341 0.248047 -0.140903
C131  C     C_R   0.940783 0.818454 0.243787 -0.159526
C132  C     C_R   0.801185 0.122392 0.776168 0.131976
C133  C     C_R   0.818777 0.060555 0.760953 -0.146007
C134  C     C_R   0.848014 0.997159 0.772433 -0.123857
C135  C     C_R   0.970848 0.630948 0.513933 -0.169456
C136  C     C_R   0.858442 0.994206 0.799224 -0.117605
C137  C     C_R   0.837576 0.054244 0.814678 -0.140735
C138  C     C_R   0.808242 0.117954 0.803219 -0.150481
C139  C     C_R   0.192860 0.876052 0.224316 0.134849
C140  C     C_R   0.163940 0.871770 0.199113 -0.169829
C141  C     C_R   0.131235 0.933822 0.187708 -0.158910
C142  C     C_R   0.126611 0.000233 0.201475 -0.109526
C143  C     C_R   0.155060 0.004612 0.226571 -0.123621
C144  C     C_R   0.188083 0.942968 0.237978 -0.129921
C145  C     C_R   0.885304 0.818268 0.736954 0.086561
C146  C     C_R   0.634676 0.037386 0.486871 -0.172099
C147  C     C_R   0.895599 0.855119 0.713237 -0.172684
C148  C     C_R   0.960300 0.894356 0.708605 -0.172669
C149  C     C_R   0.015096 0.896805 0.727502 -0.126981
C150  C     C_R   0.005600 0.859440 0.751006 -0.141340
C151  C     C_R   0.941062 0.820166 0.755710 -0.157754
C152  C     C_R   0.115789 0.180784 0.262208 0.083521
C153  C     C_R   0.106819 0.139283 0.285043 -0.183247
C154  C     C_R   0.041966 0.099858 0.289331 -0.150616
C155  C     C_R   0.986139 0.100871 0.270773 -0.114836
C156  C     C_R   0.995030 0.141675 0.247988 -0.141244
C157  C     C_R   0.377899 0.962361 0.513486 -0.176474
C158  C     C_R   0.059333 0.181596 0.243732 -0.158660
C159  C     C_R   0.698892 0.377603 0.276189 0.132198
C160  C     C_R   0.681154 0.439418 0.260982 -0.146357
C161  C     C_R   0.651975 0.502810 0.272480 -0.123962
C162  C     C_R   0.641772 0.505790 0.299281 -0.117544
C163  C     C_R   0.662829 0.445793 0.314725 -0.140906
C164  C     C_R   0.692101 0.382087 0.303246 -0.149848
C165  C     C_R   0.307219 0.623913 0.724368 0.134869
C166  C     C_R   0.336309 0.628170 0.699188 -0.170143
C167  C     C_R   0.369102 0.566110 0.687823 -0.158992
C168  C     C_R   0.953951 0.450035 0.609725 -0.016131
C169  C     C_R   0.373643 0.499717 0.701604 -0.109462
C170  C     C_R   0.345024 0.495364 0.726677 -0.123686
C171  C     C_R   0.311920 0.557016 0.738044 -0.129900
C172  C     C_R   0.614644 0.681694 0.237007 0.086544
C173  C     C_R   0.604276 0.644796 0.213303 -0.172799
C174  C     C_R   0.539560 0.605554 0.208703 -0.172729
C175  C     C_R   0.484820 0.603144 0.227619 -0.126935
C176  C     C_R   0.494385 0.640559 0.251110 -0.141550
C177  C     C_R   0.558940 0.679841 0.255781 -0.157737
C178  C     C_R   0.384197 0.319142 0.762252 0.083400
C179  C     C_R   0.939131 0.528810 0.391210 -0.019998
C180  C     C_R   0.393147 0.360590 0.785100 -0.183285
C181  C     C_R   0.457989 0.400022 0.789406 -0.150450
C182  C     C_R   0.513827 0.399063 0.770853 -0.114815
C183  C     C_R   0.504960 0.358303 0.748058 -0.141335
C184  C     C_R   0.440667 0.318379 0.743784 -0.158640
C185  C     C_R   0.301231 0.622043 0.275904 0.133339
C186  C     C_R   0.319313 0.560520 0.260613 -0.149033
C187  C     C_R   0.348580 0.497068 0.272043 -0.124486
C188  C     C_R   0.358454 0.493712 0.298856 -0.116918
C189  C     C_R   0.336912 0.553371 0.314373 -0.142783
C190  C     C_R   0.519118 0.935052 0.608718 -0.029307
C191  C     C_R   0.307517 0.617104 0.302957 -0.145890
C192  C     C_R   0.692678 0.375723 0.724178 0.134786
C193  C     C_R   0.663277 0.370922 0.699052 -0.171330
C194  C     C_R   0.630210 0.432690 0.687593 -0.159738
C195  C     C_R   0.625624 0.499308 0.701234 -0.109371
C196  C     C_R   0.654496 0.504210 0.726259 -0.124244
C197  C     C_R   0.687930 0.442857 0.737715 -0.129127
C198  C     C_R   0.385529 0.318215 0.236976 0.086304
C199  C     C_R   0.395965 0.355384 0.213329 -0.173817
C200  C     C_R   0.460682 0.394730 0.208821 -0.173031
C201  C     C_R   0.510695 0.932702 0.391521 -0.026014
C202  C     C_R   0.515360 0.396947 0.227770 -0.126591
C203  C     C_R   0.505727 0.359248 0.251201 -0.142948
C204  C     C_R   0.441175 0.319875 0.255779 -0.157609
C205  C     C_R   0.615779 0.680577 0.762299 0.083913
C206  C     C_R   0.606948 0.638962 0.785115 -0.182423
C207  C     C_R   0.542090 0.599577 0.789440 -0.151097
C208  C     C_R   0.486111 0.600764 0.770939 -0.114563
C209  C     C_R   0.494862 0.641689 0.748173 -0.140911
C210  C     C_R   0.559180 0.681554 0.743881 -0.159714
C211  C     C_R   0.902990 0.401192 0.595071 0.127845
C212  C     C_R   0.045406 0.549391 0.609621 -0.016263
C213  C     C_R   0.844889 0.432344 0.580826 -0.189678
C214  C     C_R   0.796873 0.386902 0.566942 -0.146786
C215  C     C_R   0.806466 0.310143 0.567174 -0.113190
C216  C     C_R   0.864247 0.278697 0.581230 -0.146927
C217  C     C_R   0.912490 0.323928 0.595097 -0.054560
C218  C     C_R   0.873602 0.554853 0.405923 0.125132
C219  C     C_R   0.830527 0.503769 0.419672 -0.189721
C220  C     C_R   0.768765 0.527646 0.433461 -0.141591
C221  C     C_R   0.749543 0.602579 0.433626 -0.115814
C222  C     C_R   0.792247 0.653831 0.420092 -0.147904
C223  C     C_R   0.500007 0.000001 0.820867 0.799027
C224  C     C_R   0.060439 0.470650 0.391246 -0.020103
C225  C     C_R   0.854171 0.630240 0.406347 -0.050468
C226  C     C_R   0.534677 0.866629 0.593837 0.120074
C227  C     C_R   0.478819 0.814600 0.589658 -0.111677
C228  C     C_R   0.493332 0.750202 0.575518 -0.146778
C229  C     C_R   0.563591 0.737471 0.565520 -0.109198
C230  C     C_R   0.619464 0.789078 0.569690 -0.135322
C231  C     C_R   0.605156 0.853518 0.583837 -0.147408
C232  C     C_R   0.519392 0.862730 0.406303 0.118273
C233  C     C_R   0.587718 0.844337 0.417161 -0.166084
C234  C     C_R   0.596338 0.778242 0.430934 -0.140929
C235  C     C_R   0.488257 0.066177 0.608679 -0.029599
C236  C     C_R   0.536885 0.730191 0.433920 -0.111701
C237  C     C_R   0.468674 0.748244 0.423173 -0.144040
C238  C     C_R   0.459823 0.814335 0.409407 -0.088572
C239  C     C_R   0.096111 0.598209 0.594850 0.127876
C240  C     C_R   0.153921 0.567039 0.580466 -0.190110
C241  C     C_R   0.201578 0.612457 0.566420 -0.145977
C242  C     C_R   0.191923 0.689208 0.566633 -0.112834
C243  C     C_R   0.134453 0.720674 0.580839 -0.147390
C244  C     C_R   0.086566 0.675467 0.594866 -0.054214
C245  C     C_R   0.125851 0.444490 0.406005 0.125781
C246  C     C_R   0.501822 0.067284 0.391674 -0.028439
C247  C     C_R   0.168685 0.495435 0.419912 -0.189715
C248  C     C_R   0.230327 0.471453 0.433748 -0.141567
C249  C     C_R   0.249686 0.396556 0.433797 -0.115820
C250  C     C_R   0.207238 0.345439 0.420101 -0.148763
C251  C     C_R   0.145417 0.369132 0.406312 -0.051147
C252  C     C_R   0.474233 0.134890 0.593785 0.120122
C253  C     C_R   0.530911 0.186261 0.590015 -0.113657
C254  C     C_R   0.517883 0.250942 0.575853 -0.146543
C255  C     C_R   0.448286 0.264611 0.565432 -0.109849
C256  C     C_R   0.391595 0.213657 0.569198 -0.136395
C257  C     C_R   0.454772 0.950595 0.109608 -0.016314
C258  C     C_R   0.404424 0.148929 0.583362 -0.144444
C259  C     C_R   0.496217 0.137199 0.406670 0.121143
C260  C     C_R   0.429947 0.156380 0.418872 -0.170294
C261  C     C_R   0.424238 0.222680 0.432707 -0.141197
C262  C     C_R   0.484593 0.270093 0.434445 -0.111804
C263  C     C_R   0.550744 0.251274 0.422341 -0.142426
C264  C     C_R   0.556641 0.185038 0.408470 -0.085629
C265  C     C_R   0.404183 0.901695 0.094821 0.127908
C266  C     C_R   0.346383 0.932773 0.080404 -0.190202
C267  C     C_R   0.298858 0.887279 0.066332 -0.145806
C268  C     C_R   0.439598 0.029325 0.891251 -0.020182
C269  C     C_R   0.308634 0.810544 0.066552 -0.112826
C270  C     C_R   0.366090 0.779169 0.080793 -0.147481
C271  C     C_R   0.413846 0.824453 0.094846 -0.054125
C272  C     C_R   0.374190 0.055440 0.906017 0.125864
C273  C     C_R   0.331454 0.004482 0.919956 -0.189735
C274  C     C_R   0.269843 0.028434 0.933812 -0.141609
C275  C     C_R   0.250418 0.103314 0.933849 -0.115772
C276  C     C_R   0.292765 0.154441 0.920119 -0.148835
C277  C     C_R   0.354553 0.130778 0.906309 -0.051263
C278  C     C_R   0.024321 0.364863 0.093784 0.119493
C279  C     C_R   0.010450 0.433593 0.108676 -0.029805
C280  C     C_R   0.967255 0.314140 0.089688 -0.116577
C281  C     C_R   0.980156 0.249431 0.075529 -0.146461
C282  C     C_R   0.050016 0.235081 0.065447 -0.110046
C283  C     C_R   0.107093 0.285387 0.069544 -0.136790
C284  C     C_R   0.094385 0.350154 0.083697 -0.141365
C285  C     C_R   0.000243 0.362701 0.906696 0.121780
C286  C     C_R   0.065896 0.342969 0.919207 -0.170825
C287  C     C_R   0.070528 0.276645 0.933079 -0.141107
C288  C     C_R   0.009714 0.229751 0.934540 -0.111811
C289  C     C_R   0.944187 0.249106 0.922117 -0.142091
C290  C     C_R   0.995718 0.432657 0.891679 -0.028957
C291  C     C_R   0.939366 0.315370 0.908211 -0.085288
C292  C     C_R   0.597051 0.098965 0.095105 0.127848
C293  C     C_R   0.655229 0.067873 0.080886 -0.189608
C294  C     C_R   0.703258 0.113365 0.067028 -0.146857
C295  C     C_R   0.693598 0.190116 0.067259 -0.113333
C296  C     C_R   0.635736 0.221503 0.081287 -0.146852
C297  C     C_R   0.587483 0.176222 0.095128 -0.054603
C298  C     C_R   0.626539 0.945362 0.905921 0.125079
C299  C     C_R   0.669590 0.996485 0.919661 -0.189768
C300  C     C_R   0.731361 0.972653 0.933458 -0.141614
C301  C     C_R   0.546101 0.050070 0.109742 -0.016090
C302  C     C_R   0.750609 0.897727 0.933640 -0.115780
C303  C     C_R   0.707926 0.846440 0.920113 -0.147716
C304  C     C_R   0.646001 0.869987 0.906358 -0.050341
C305  C     C_R   0.963468 0.632993 0.093838 0.119559
C306  C     C_R   0.019326 0.684742 0.089259 -0.113618
C307  C     C_R   0.004390 0.749055 0.075123 -0.146764
C308  C     C_R   0.933706 0.761982 0.065534 -0.109127
C309  C     C_R   0.877834 0.710654 0.070107 -0.135336
C310  C     C_R   0.892568 0.646295 0.084246 -0.145689
C311  C     C_R   0.978836 0.637293 0.906240 0.117873
C312  C     C_R   0.560982 0.971339 0.891209 -0.020073
C313  C     C_R   0.910373 0.655966 0.916925 -0.165186
C314  C     C_R   0.901799 0.721997 0.930737 -0.140771
C315  C     C_R   0.961424 0.769726 0.933923 -0.111721
C316  C     C_R   0.029772 0.751396 0.923348 -0.144283
C317  C     C_R   0.038588 0.685347 0.909556 -0.089225
C318  C     C_R   0.920175 0.386213 0.651356 0.135051
C319  C     C_R   0.843807 0.376207 0.649758 -0.094355
C320  C     C_R   0.811590 0.312514 0.660035 -0.121672
C321  C     C_R   0.854711 0.260037 0.672887 -0.120082
C322  C     C_R   0.930077 0.271398 0.675700 -0.157194
C323  C     C_R   0.979445 0.564669 0.108720 -0.029438
C324  C     C_R   0.962918 0.333849 0.664783 -0.166228
C325  C     C_R   0.884304 0.577376 0.350259 0.158591
C326  C     C_R   0.810018 0.556597 0.350988 -0.090106
C327  C     C_R   0.756054 0.605252 0.341986 -0.132220
C328  C     C_R   0.776061 0.673568 0.331519 -0.129358
C329  C     C_R   0.849979 0.692973 0.329585 -0.132508
C330  C     C_R   0.904050 0.645291 0.339039 -0.153052
C331  C     C_R   0.540088 0.864402 0.649111 0.184393
C332  C     C_R   0.486428 0.812793 0.656511 -0.088243
C333  C     C_R   0.507370 0.745303 0.667577 -0.139186
C334  C     C_R   0.500006 0.000030 0.179351 0.815756
C335  C     C_R   0.987538 0.567277 0.891488 -0.025730
C336  C     C_R   0.581752 0.728480 0.670827 -0.111194
C337  C     C_R   0.635316 0.779245 0.663196 -0.131782
C338  C     C_R   0.614664 0.847246 0.652501 -0.151747
C339  C     C_R   0.502272 0.859106 0.351162 0.178603
C340  C     C_R   0.565916 0.816443 0.347322 -0.115205
C341  C     C_R   0.561150 0.747552 0.335032 -0.144397
C342  C     C_R   0.493300 0.721288 0.326429 -0.115249
C343  C     C_R   0.430039 0.763652 0.330276 -0.107365
C344  C     C_R   0.434165 0.831928 0.342810 -0.124417
C345  C     C_R   0.079953 0.613289 0.651159 0.135190
C346  C     C_R   0.957069 0.447406 0.637121 -0.097574
C347  C     C_R   0.156337 0.622988 0.649436 -0.094627
C348  C     C_R   0.188950 0.686545 0.659660 -0.121942
C349  C     C_R   0.146204 0.739218 0.672567 -0.119867
C350  C     C_R   0.070817 0.728196 0.675485 -0.157129
C351  C     C_R   0.037585 0.665861 0.664632 -0.165972
C352  C     C_R   0.115898 0.422920 0.350278 0.158570
C353  C     C_R   0.190052 0.444117 0.351148 -0.090360
C354  C     C_R   0.244347 0.396116 0.341977 -0.133105
C355  C     C_R   0.224810 0.328073 0.331191 -0.130899
C356  C     C_R   0.151027 0.308226 0.329167 -0.130940
C357  C     C_R   0.941052 0.532836 0.363805 -0.099368
C358  C     C_R   0.096624 0.355215 0.338803 -0.151874
C359  C     C_R   0.461465 0.135536 0.648924 0.184239
C360  C     C_R   0.513474 0.188354 0.656738 -0.085972
C361  C     C_R   0.490350 0.255097 0.667824 -0.139879
C362  C     C_R   0.415428 0.269970 0.670682 -0.110495
C363  C     C_R   0.363514 0.217998 0.662628 -0.132257
C364  C     C_R   0.386349 0.150734 0.651913 -0.153561
C365  C     C_R   0.500665 0.141385 0.351273 0.175546
C366  C     C_R   0.436025 0.183888 0.350460 -0.123368
C367  C     C_R   0.436206 0.253453 0.338555 -0.147732
C368  C     C_R   0.518679 0.934306 0.636014 -0.106920
C369  C     C_R   0.500198 0.280258 0.326997 -0.123404
C370  C     C_R   0.564408 0.237968 0.327680 -0.103451
C371  C     C_R   0.565282 0.169495 0.340213 -0.111304
C372  C     C_R   0.420185 0.886663 0.151141 0.135125
C373  C     C_R   0.343820 0.876862 0.149382 -0.094723
C374  C     C_R   0.311243 0.813302 0.159618 -0.122050
C375  C     C_R   0.353998 0.760735 0.172578 -0.119801
C376  C     C_R   0.429362 0.771853 0.175526 -0.157064
C377  C     C_R   0.462564 0.834182 0.164657 -0.165931
C378  C     C_R   0.383935 0.076838 0.850282 0.158636
C379  C     C_R   0.506001 0.932068 0.364261 -0.104406
C380  C     C_R   0.309835 0.055462 0.851188 -0.090599
C381  C     C_R   0.255396 0.103270 0.841995 -0.133140
C382  C     C_R   0.274733 0.171289 0.831145 -0.131148
C383  C     C_R   0.348461 0.191318 0.829092 -0.130570
C384  C     C_R   0.403007 0.144533 0.838755 -0.151450
C385  C     C_R   0.038076 0.364419 0.148893 0.184647
C386  C     C_R   0.986234 0.311389 0.156665 -0.085736
C387  C     C_R   0.009562 0.244712 0.167749 -0.139981
C388  C     C_R   0.084527 0.230119 0.170645 -0.110403
C389  C     C_R   0.136279 0.282311 0.162635 -0.132124
C390  C     C_R   0.042676 0.552155 0.637021 -0.097948
C391  C     C_R   0.113235 0.349515 0.151927 -0.153991
C392  C     C_R   0.998629 0.358523 0.851292 0.175090
C393  C     C_R   0.063378 0.316137 0.850951 -0.124440
C394  C     C_R   0.063997 0.246513 0.839096 -0.148140
C395  C     C_R   0.000741 0.219566 0.827080 -0.124472
C396  C     C_R   0.936430 0.261744 0.827277 -0.103065
C397  C     C_R   0.934680 0.330214 0.839808 -0.109429
C398  C     C_R   0.579702 0.113926 0.151385 0.134975
C399  C     C_R   0.656059 0.124039 0.149808 -0.094292
C400  C     C_R   0.688169 0.187773 0.160095 -0.121657
C401  C     C_R   0.058780 0.466936 0.363833 -0.099933
C402  C     C_R   0.644956 0.240180 0.172940 -0.120142
C403  C     C_R   0.569601 0.228711 0.175733 -0.157246
C404  C     C_R   0.536865 0.166223 0.164804 -0.166351
C405  C     C_R   0.615875 0.922838 0.850263 0.158693
C406  C     C_R   0.690130 0.943738 0.851000 -0.090401
C407  C     C_R   0.744186 0.895147 0.842024 -0.131815
C408  C     C_R   0.724305 0.826774 0.831575 -0.129017
C409  C     C_R   0.650419 0.807249 0.829629 -0.132604
C410  C     C_R   0.596256 0.854867 0.839057 -0.152912
C411  C     C_R   0.959799 0.635630 0.149123 0.184909
C412  C     C_R   0.485181 0.066202 0.635951 -0.106360
C413  C     C_R   0.013875 0.687050 0.156299 -0.089043
C414  C     C_R   0.993517 0.754762 0.167326 -0.139096
C415  C     C_R   0.919297 0.771980 0.170768 -0.111420
C416  C     C_R   0.865313 0.721382 0.163377 -0.131430
C417  C     C_R   0.885385 0.653164 0.152718 -0.151290
C418  C     C_R   0.997524 0.640770 0.851157 0.179136
C419  C     C_R   0.934144 0.683346 0.846703 -0.113215
C420  C     C_R   0.939733 0.752055 0.834327 -0.143452
C421  C     C_R   0.008176 0.778294 0.826316 -0.113497
C422  C     C_R   0.071177 0.736041 0.830809 -0.108552
C423  C     C_R   0.501581 0.068168 0.364347 -0.104240
C424  C     C_R   0.066171 0.667843 0.843347 -0.127227
C425  C     C_R   0.457437 0.947832 0.137010 -0.097995
C426  C     C_R   0.500335 0.000033 0.321030 0.794054
C427  C     C_R   0.441202 0.032999 0.863836 -0.100014
C428  C     C_R   0.014132 0.433700 0.135939 -0.106114
C429  C     C_R   0.996928 0.431763 0.864350 -0.104212
C430  C     C_R   0.542914 0.052691 0.137137 -0.097536
C431  C     C_R   0.559047 0.967291 0.863805 -0.099333
C432  C     C_R   0.980592 0.565572 0.136015 -0.106947
C433  C     C_R   0.992948 0.567868 0.864246 -0.104446
C434  C     C_R   0.999939 0.499837 0.650721 -0.109434
C435  C     C_R   0.999961 0.499933 0.349862 -0.124061
C436  C     C_R   0.501123 0.000100 0.650066 -0.132431
C437  C     C_R   0.500100 0.000007 0.679046 0.801178
C438  C     C_R   0.502471 0.000122 0.350157 -0.133379
C439  C     C_R   0.500076 0.000204 0.150723 -0.109369
C440  C     C_R   0.500064 0.000085 0.849863 -0.124055
C441  C     C_R   0.998468 0.499853 0.150061 -0.132594
C442  C     C_R   0.996700 0.499817 0.850155 -0.133246
C443  C     C_R   0.999576 0.499685 0.596008 0.205132
C444  C     C_R   0.999721 0.499663 0.404885 0.208191
C445  C     C_R   0.504517 0.000785 0.595284 0.231034
C446  C     C_R   0.507154 0.999915 0.405025 0.227041
C447  C     C_R   0.500569 0.000365 0.096010 0.205118
C448  C     C_R   0.999999 0.500000 0.320867 0.799139
C449  C     C_R   0.500371 0.000411 0.904886 0.208269
C450  C     C_R   0.993806 0.498891 0.095284 0.231231
C451  C     C_R   0.990425 0.500062 0.905010 0.227101
C452  C     C_R   0.141025 0.357834 0.750074 0.784821
C453  C     C_R   0.858725 0.642023 0.249795 0.791059
C454  C     C_R   0.641392 0.141801 0.750392 0.779947
C455  C     C_R   0.358128 0.858410 0.249782 0.785696
C456  C     C_R   0.858970 0.642164 0.750077 0.783791
C457  C     C_R   0.141332 0.358033 0.249765 0.791217
C458  C     C_R   0.358598 0.858213 0.750375 0.780260
C459  C     C_R   0.999993 0.499981 0.679350 0.815727
C460  C     C_R   0.641908 0.141551 0.249800 0.785070
C461  C     C_R   0.641021 0.857828 0.250073 0.783895
C462  C     C_R   0.358657 0.141956 0.749758 0.791177
C463  C     C_R   0.141398 0.641793 0.250379 0.780231
C464  C     C_R   0.858088 0.358454 0.749802 0.784999
C465  C     C_R   0.358978 0.142170 0.250071 0.784683
C466  C     C_R   0.641272 0.857975 0.749798 0.791100
C467  C     C_R   0.858605 0.358205 0.250389 0.779952
C468  C     C_R   0.141862 0.641599 0.749776 0.785797
C469  C     C_3   0.190172 0.775795 0.738350 -0.243355
C470  C     C_R   0.478807 0.133121 0.986954 -0.167663
C471  C     C_3   0.811553 0.223700 0.262104 -0.253204
C472  C     C_3   0.255447 0.219440 0.725881 -0.238448
C473  C     C_3   0.743800 0.780240 0.273566 -0.245071
C474  C     C_3   0.809920 0.224186 0.738563 -0.243267
C475  C     C_3   0.188632 0.776192 0.262170 -0.255190
C476  C     C_3   0.744410 0.780563 0.725972 -0.238839
C477  C     C_3   0.256277 0.219939 0.273534 -0.245036
C478  C     C_3   0.690046 0.275850 0.238574 -0.243191
C479  C     C_3   0.311310 0.723859 0.762193 -0.255577
C480  C     C_3   0.755512 0.719364 0.225969 -0.238956
H1    H     H_    0.281900 0.787019 0.705739 0.123786
H2    H     H_    0.220493 0.713572 0.794992 0.128683
H3    H     H_    0.599093 0.546800 0.692535 0.116407
H4    H     H_    0.650414 0.555170 0.736952 0.147389
H5    H     H_    0.709022 0.447289 0.757294 0.106739
H6    H     H_    0.353923 0.355279 0.198529 0.121149
H7    H     H_    0.468255 0.423949 0.190696 0.128009
H8    H     H_    0.564947 0.428044 0.224213 0.130249
H9    H     H_    0.547645 0.361067 0.266002 0.151025
H10   H     H_    0.433547 0.292658 0.274276 0.156022
H11   H     H_    0.650357 0.635577 0.799363 0.115088
H12   H     H_    0.535619 0.567378 0.806987 0.124037
H13   H     H_    0.779159 0.845751 0.217708 0.147921
H14   H     H_    0.436234 0.569701 0.774200 0.132934
H15   H     H_    0.452340 0.642238 0.733670 0.156763
H16   H     H_    0.565602 0.711561 0.725895 0.162095
H17   H     H_    0.471309 0.185216 0.976893 0.185278
H18   H     H_    0.541855 0.818010 0.023995 0.184499
H19   H     H_    0.812329 0.449547 0.976967 0.186815
H20   H     H_    0.170685 0.550727 0.023371 0.184524
H21   H     H_    0.530104 0.815760 0.976894 0.185175
H22   H     H_    0.459854 0.182996 0.024003 0.184617
H23   H     H_    0.169938 0.550551 0.976248 0.186716
H24   H     H_    0.218712 0.152017 0.780867 0.158972
H25   H     H_    0.813548 0.448006 0.024115 0.184283
H26   H     H_    0.970256 0.684354 0.476889 0.185178
H27   H     H_    0.040163 0.317045 0.524004 0.184603
H28   H     H_    0.328194 0.947942 0.476327 0.186729
H29   H     H_    0.683961 0.053270 0.524045 0.184300
H30   H     H_    0.028677 0.314839 0.476894 0.185257
H31   H     H_    0.958546 0.682118 0.523991 0.184517
H32   H     H_    0.684988 0.051840 0.476900 0.186802
H33   H     H_    0.327684 0.947546 0.523454 0.184484
H34   H     H_    0.836726 0.491735 0.580572 0.154723
H35   H     H_    0.218235 0.712875 0.205752 0.123829
H36   H     H_    0.752147 0.411195 0.556027 0.132267
H37   H     H_    0.769165 0.275040 0.556445 0.133635
H38   H     H_    0.871728 0.219259 0.581350 0.135561
H39   H     H_    0.957343 0.298909 0.605767 0.146901
H40   H     H_    0.844657 0.445511 0.419592 0.154881
H41   H     H_    0.735702 0.488013 0.443980 0.131149
H42   H     H_    0.701612 0.620930 0.444263 0.119110
H43   H     H_    0.777436 0.711871 0.420276 0.127025
H44   H     H_    0.887092 0.670612 0.396103 0.147069
H45   H     H_    0.424214 0.824062 0.597308 0.144194
H46   H     H_    0.778717 0.287170 0.795065 0.126282
H47   H     H_    0.450122 0.710200 0.572298 0.126377
H48   H     H_    0.574754 0.687604 0.554568 0.123136
H49   H     H_    0.673863 0.779106 0.561980 0.138637
H50   H     H_    0.648844 0.893018 0.587067 0.161354
H51   H     H_    0.634241 0.880964 0.414822 0.160303
H52   H     H_    0.649115 0.764228 0.439259 0.126409
H53   H     H_    0.543682 0.678987 0.444556 0.118152
H54   H     H_    0.422664 0.711015 0.425509 0.127443
H55   H     H_    0.406746 0.827869 0.401187 0.146032
H56   H     H_    0.162111 0.507653 0.580216 0.154679
H57   H     H_    0.220826 0.154207 0.217715 0.147786
H58   H     H_    0.246061 0.588148 0.555389 0.132414
H59   H     H_    0.228933 0.724291 0.555772 0.132986
H60   H     H_    0.126924 0.780105 0.580943 0.134885
H61   H     H_    0.041919 0.700496 0.605638 0.146594
H62   H     H_    0.154461 0.553670 0.419920 0.155016
H63   H     H_    0.263196 0.510981 0.444392 0.131457
H64   H     H_    0.297535 0.378114 0.444465 0.119859
H65   H     H_    0.222195 0.287429 0.420197 0.128570
H66   H     H_    0.112685 0.328865 0.395941 0.146538
H67   H     H_    0.585002 0.176083 0.598005 0.144665
H68   H     H_    0.781027 0.847579 0.781090 0.158173
H69   H     H_    0.561726 0.290437 0.572946 0.126301
H70   H     H_    0.438269 0.314696 0.554463 0.122636
H71   H     H_    0.337713 0.224351 0.561157 0.137734
H72   H     H_    0.360130 0.109908 0.586264 0.160688
H73   H     H_    0.382707 0.120303 0.417476 0.160158
H74   H     H_    0.372980 0.237406 0.442017 0.127205
H75   H     H_    0.480069 0.321446 0.445138 0.119006
H76   H     H_    0.597417 0.288063 0.423680 0.127206
H77   H     H_    0.608078 0.170981 0.399131 0.142223
H78   H     H_    0.338104 0.992147 0.080146 0.154628
H79   H     H_    0.139619 0.796029 0.728677 0.142412
H80   H     H_    0.254385 0.911517 0.055274 0.132401
H81   H     H_    0.271728 0.775402 0.055670 0.132761
H82   H     H_    0.373713 0.719749 0.080903 0.134725
H83   H     H_    0.458489 0.799496 0.105643 0.146501
H84   H     H_    0.345736 0.946261 0.919976 0.155013
H85   H     H_    0.237052 0.988898 0.944482 0.131481
H86   H     H_    0.202596 0.121736 0.944534 0.120047
H87   H     H_    0.277757 0.212438 0.920206 0.128864
H88   H     H_    0.387211 0.171054 0.895913 0.146439
H89   H     H_    0.912969 0.324835 0.097425 0.146091
H90   H     H_    0.862133 0.203575 0.271805 0.146241
H91   H     H_    0.936012 0.210438 0.072366 0.126456
H92   H     H_    0.059940 0.184969 0.054484 0.122592
H93   H     H_    0.161178 0.274164 0.061768 0.137580
H94   H     H_    0.138961 0.388691 0.086848 0.159917
H95   H     H_    0.113489 0.378634 0.918026 0.160102
H96   H     H_    0.121309 0.261494 0.942631 0.127345
H97   H     H_    0.013402 0.178381 0.945263 0.119166
H98   H     H_    0.897163 0.212715 0.923240 0.127215
H99   H     H_    0.888405 0.329850 0.898626 0.141311
H100  H     H_    0.663449 0.008490 0.080635 0.154703
H101  H     H_    0.262347 0.193599 0.706555 0.129449
H102  H     H_    0.748046 0.089118 0.056135 0.132187
H103  H     H_    0.730912 0.225258 0.056552 0.133559
H104  H     H_    0.628205 0.280935 0.081407 0.135641
H105  H     H_    0.542573 0.201195 0.105779 0.146938
H106  H     H_    0.655431 0.054736 0.919571 0.154829
H107  H     H_    0.764407 0.012315 0.943972 0.131065
H108  H     H_    0.798542 0.879410 0.944285 0.119038
H109  H     H_    0.722743 0.788404 0.920308 0.126826
H110  H     H_    0.613097 0.829587 0.896121 0.147077
H111  H     H_    0.074252 0.675135 0.096597 0.145048
H112  H     H_    0.721356 0.212783 0.295058 0.126494
H113  H     H_    0.736435 0.806293 0.292867 0.122958
H114  H     H_    0.047597 0.788845 0.071593 0.126525
H115  H     H_    0.922212 0.811786 0.054587 0.123263
H116  H     H_    0.823105 0.720779 0.062715 0.138818
H117  H     H_    0.848885 0.607009 0.087789 0.161091
H118  H     H_    0.863725 0.619577 0.914442 0.160287
H119  H     H_    0.848936 0.736193 0.938949 0.126267
H120  H     H_    0.954661 0.820881 0.944589 0.118090
H121  H     H_    0.075924 0.788360 0.925846 0.127526
H122  H     H_    0.091793 0.671564 0.901495 0.146477
H123  H     H_    0.809849 0.416006 0.639586 0.126511
H124  H     H_    0.860592 0.203896 0.728991 0.142787
H125  H     H_    0.753513 0.302993 0.657445 0.114775
H126  H     H_    0.829998 0.210077 0.680380 0.117238
H127  H     H_    0.963347 0.230878 0.685741 0.148334
H128  H     H_    0.021906 0.340369 0.666146 0.125912
H129  H     H_    0.793861 0.504454 0.359612 0.118614
H130  H     H_    0.698692 0.590808 0.343709 0.116274
H131  H     H_    0.734342 0.711739 0.325044 0.112543
H132  H     H_    0.865298 0.745772 0.321428 0.131295
H133  H     H_    0.961029 0.662295 0.338454 0.117535
H134  H     H_    0.428715 0.824896 0.653665 0.102939
H135  H     H_    0.138168 0.796277 0.271956 0.146334
H136  H     H_    0.466064 0.705743 0.673402 0.116066
H137  H     H_    0.597959 0.675999 0.679144 0.107260
H138  H     H_    0.692855 0.765572 0.665335 0.120793
H139  H     H_    0.656608 0.885981 0.646441 0.116387
H140  H     H_    0.618790 0.836478 0.353848 0.112129
H141  H     H_    0.609798 0.714339 0.332165 0.109767
H142  H     H_    0.489724 0.668140 0.316819 0.117988
H143  H     H_    0.377737 0.743884 0.323568 0.110517
H144  H     H_    0.384604 0.864103 0.345745 0.109114
H145  H     H_    0.190003 0.583031 0.639222 0.126290
H146  H     H_    0.737419 0.806528 0.706668 0.129246
H147  H     H_    0.247047 0.695792 0.656993 0.114627
H148  H     H_    0.171222 0.789069 0.680020 0.117046
H149  H     H_    0.037836 0.768882 0.685566 0.147608
H150  H     H_    0.978589 0.659580 0.666087 0.125721
H151  H     H_    0.205848 0.496107 0.359966 0.118317
H152  H     H_    0.301606 0.410888 0.343776 0.115105
H153  H     H_    0.266803 0.290499 0.324500 0.113745
H154  H     H_    0.136069 0.255651 0.320758 0.131018
H155  H     H_    0.039750 0.337892 0.338104 0.117011
H156  H     H_    0.571594 0.177723 0.654232 0.102093
H157  H     H_    0.263604 0.194014 0.292860 0.124434
H158  H     H_    0.530389 0.295557 0.673995 0.116363
H159  H     H_    0.397527 0.321865 0.679030 0.107468
H160  H     H_    0.305556 0.230129 0.664473 0.120460
H161  H     H_    0.345678 0.111026 0.645551 0.117255
H162  H     H_    0.385961 0.163384 0.359198 0.117144
H163  H     H_    0.386949 0.286744 0.338318 0.114974
H164  H     H_    0.500070 0.333764 0.317543 0.117215
H165  H     H_    0.613458 0.257985 0.318448 0.115028
H166  H     H_    0.615667 0.137578 0.340816 0.104653
H167  H     H_    0.310143 0.916746 0.139136 0.126297
H168  H     H_    0.639347 0.296161 0.229021 0.142797
H169  H     H_    0.253168 0.803975 0.156924 0.114599
H170  H     H_    0.329004 0.710892 0.180049 0.117027
H171  H     H_    0.462351 0.731247 0.185646 0.147609
H172  H     H_    0.521546 0.840537 0.166139 0.125682
H173  H     H_    0.294189 0.003479 0.860045 0.118295
H174  H     H_    0.198178 0.088363 0.843819 0.115031
H175  H     H_    0.232620 0.208691 0.824421 0.113927
H176  H     H_    0.363265 0.243871 0.820632 0.130911
H177  H     H_    0.459835 0.161997 0.838027 0.116850
H178  H     H_    0.928085 0.321806 0.154130 0.102092
H179  H     H_    0.361739 0.703795 0.772010 0.146337
H180  H     H_    0.969650 0.204088 0.173889 0.116431
H181  H     H_    0.102588 0.178273 0.178990 0.107445
H182  H     H_    0.194273 0.270396 0.164508 0.120309
H183  H     H_    0.153779 0.389398 0.145600 0.117019
H184  H     H_    0.112904 0.336763 0.860031 0.117838
H185  H     H_    0.113315 0.213304 0.839255 0.115757
H186  H     H_    0.001518 0.166040 0.817644 0.117026
H187  H     H_    0.888003 0.241647 0.817658 0.115793
H188  H     H_    0.884205 0.362024 0.840048 0.103953
H189  H     H_    0.690090 0.084293 0.139644 0.126552
H190  H     H_    0.762439 0.693329 0.206675 0.128999
H191  H     H_    0.746235 0.197382 0.157518 0.114794
H192  H     H_    0.669591 0.290168 0.180442 0.117273
H193  H     H_    0.536258 0.269177 0.185769 0.148401
H194  H     H_    0.477884 0.159619 0.166152 0.125959
H195  H     H_    0.706194 0.995922 0.859614 0.118680
H196  H     H_    0.801525 0.909682 0.843756 0.116600
H197  H     H_    0.766098 0.788647 0.825127 0.112280
H198  H     H_    0.635197 0.754405 0.821485 0.131245
H199  H     H_    0.539306 0.837765 0.838467 0.117504
H200  H     H_    0.071460 0.674653 0.153288 0.103216
H201  H     H_    0.236349 0.305799 0.792881 0.124709
H202  H     H_    0.035143 0.794201 0.172962 0.116071
H203  H     H_    0.903542 0.824640 0.179048 0.107168
H204  H     H_    0.807894 0.735369 0.165662 0.120743
H205  H     H_    0.843118 0.614568 0.146831 0.115791
H206  H     H_    0.880837 0.663328 0.852780 0.111008
H207  H     H_    0.891265 0.785133 0.830921 0.108704
H208  H     H_    0.012408 0.831332 0.816665 0.118131
H209  H     H_    0.123974 0.755817 0.824606 0.109839
H210  H     H_    0.115516 0.635704 0.846751 0.110001
H211  H     H_    0.360430 0.703938 0.228754 0.142459
H212  H     H_    0.279225 0.345875 0.717750 0.147829
H213  H     H_    0.637897 0.296403 0.771842 0.146189
H214  H     H_    0.237672 0.306514 0.206579 0.129333
H215  H     H_    0.763665 0.693851 0.792902 0.122753
H216  H     H_    0.188114 0.937758 0.739675 0.104323
H217  H     H_    0.135938 0.049120 0.759856 0.153830
H218  H     H_    0.117836 0.055567 0.807395 0.109002
H219  H     H_    0.156944 0.950013 0.835100 0.121186
H220  H     H_    0.211003 0.838376 0.815124 0.109353
H221  H     H_    0.836349 0.181050 0.188599 0.110435
H222  H     H_    0.892772 0.071665 0.168243 0.125923
H223  H     H_    0.719037 0.652478 0.281114 0.158266
H224  H     H_    0.900782 0.953349 0.192429 0.116339
H225  H     H_    0.849493 0.944846 0.236845 0.147354
H226  H     H_    0.790939 0.052691 0.257229 0.106804
H227  H     H_    0.146029 0.144875 0.698476 0.121186
H228  H     H_    0.031658 0.076270 0.690625 0.128044
H229  H     H_    0.934965 0.072146 0.724142 0.130236
H230  H     H_    0.952314 0.139026 0.765945 0.151033
H231  H     H_    0.066438 0.207372 0.774234 0.156058
H232  H     H_    0.849757 0.864533 0.299285 0.115132
H233  H     H_    0.964507 0.932755 0.306855 0.124001
H234  H     H_    0.718661 0.212479 0.705817 0.123634
H235  H     H_    0.063794 0.930389 0.274038 0.133001
H236  H     H_    0.047593 0.857773 0.233529 0.156778
H237  H     H_    0.934315 0.788398 0.225814 0.162241
H238  H     H_    0.810924 0.061962 0.740143 0.103973
H239  H     H_    0.862888 0.950692 0.760469 0.152454
H240  H     H_    0.881927 0.945116 0.807969 0.108974
H241  H     H_    0.844049 0.051414 0.835519 0.121964
H242  H     H_    0.790693 0.163249 0.815447 0.110847
H243  H     H_    0.164475 0.820175 0.188564 0.109773
H244  H     H_    0.108517 0.930079 0.168358 0.125531
H245  H     H_    0.279300 0.786608 0.295007 0.128226
H246  H     H_    0.100439 0.047992 0.192809 0.116382
H247  H     H_    0.151029 0.055403 0.237354 0.147678
H248  H     H_    0.208899 0.947027 0.257604 0.106675
H249  H     H_    0.853494 0.854802 0.698461 0.120966
H250  H     H_    0.967771 0.923309 0.690422 0.127882
H251  H     H_    0.064662 0.927827 0.723843 0.129988
H252  H     H_    0.047619 0.861424 0.765764 0.150995
H253  H     H_    0.933565 0.793180 0.774257 0.154429
H254  H     H_    0.150131 0.135988 0.299330 0.115469
H255  H     H_    0.035391 0.067746 0.306893 0.124048
H256  H     H_    0.720736 0.654160 0.717761 0.147908
H257  H     H_    0.936271 0.069765 0.274001 0.132936
H258  H     H_    0.952630 0.142073 0.233440 0.156866
H259  H     H_    0.065877 0.211474 0.225723 0.161500
H260  H     H_    0.688857 0.437997 0.240166 0.104008
H261  H     H_    0.636975 0.549255 0.260523 0.152562
H262  H     H_    0.618324 0.554874 0.308039 0.108908
H263  H     H_    0.656565 0.448660 0.335572 0.121892
H264  H     H_    0.709870 0.336854 0.315462 0.110642
H265  H     H_    0.335859 0.679755 0.688629 0.109830
H266  H     H_    0.391961 0.569836 0.668493 0.125582
H267  H     H_    0.281206 0.347849 0.280931 0.158855
H268  H     H_    0.399887 0.451954 0.692971 0.116403
H269  H     H_    0.348988 0.444590 0.737472 0.147747
H270  H     H_    0.290984 0.552980 0.757655 0.106727
H271  H     H_    0.646338 0.645080 0.198514 0.121004
H272  H     H_    0.532033 0.576565 0.190531 0.127872
H273  H     H_    0.435245 0.572115 0.223985 0.130043
H274  H     H_    0.452405 0.638606 0.265882 0.151010
H275  H     H_    0.566495 0.706870 0.274317 0.154778
H276  H     H_    0.349823 0.363849 0.799382 0.115525
H277  H     H_    0.464544 0.432100 0.806975 0.124086
H278  H     H_    0.781221 0.287611 0.205809 0.123657
H279  H     H_    0.563685 0.430176 0.774095 0.132904
H280  H     H_    0.547368 0.357948 0.733514 0.156844
H281  H     H_    0.434140 0.288546 0.725766 0.161488
H282  H     H_    0.311813 0.562220 0.239791 0.104259
H283  H     H_    0.363890 0.450879 0.260026 0.153660
H284  H     H_    0.381914 0.444561 0.307568 0.108965
H285  H     H_    0.342792 0.550194 0.335229 0.121287
H286  H     H_    0.288919 0.661862 0.315205 0.109511
H287  H     H_    0.663594 0.319117 0.688624 0.110359
H288  H     H_    0.607109 0.428545 0.668309 0.125861
N1    N     N_R   0.500492 0.000453 0.932941 -0.338756
N2    N     N_R   0.500798 0.000463 0.067955 -0.338786
N3    N     N_R   0.990375 0.500422 0.932838 -0.336049
N4    N     N_R   0.993077 0.498819 0.067486 -0.334954
N5    N     N_R   0.999629 0.499627 0.432940 -0.338762
N6    N     N_R   0.999397 0.499609 0.567953 -0.338792
N7    N     N_R   0.507183 0.999622 0.432849 -0.336074
N8    N     N_R   0.505071 0.000835 0.567488 -0.335060
O1    O     O_3   0.000000 0.500000 0.750000 -0.487731
O2    O     O_R   0.000220 0.561630 0.191620 -0.636688
O3    O     O_R   0.561630 0.999780 0.808380 -0.628845
O4    O     O_R   0.438370 0.000220 0.191620 -0.631839
O5    O     O_R   0.500220 0.061630 0.308380 -0.634166
O6    O     O_R   0.499780 0.938370 0.691620 -0.636751
O7    O     O_R   0.938370 0.500220 0.308380 -0.628826
O8    O     O_R   0.061630 0.499780 0.691620 -0.631862
O9    O     O_R   0.499780 0.938370 0.308380 -0.632461
O10   O     O_R   0.500220 0.061630 0.691620 -0.636601
O11   O     O_R   0.061630 0.499780 0.308380 -0.628781
O12   O     O_3   1.000000 0.500000 0.250000 -0.488606
O13   O     O_R   0.938370 0.500220 0.691620 -0.631852
O14   O     O_R   0.086770 0.352080 0.765560 -0.646619
O15   O     O_R   0.913230 0.647920 0.234440 -0.648773
O16   O     O_R   0.647920 0.086770 0.765560 -0.634977
O17   O     O_R   0.352080 0.913230 0.234440 -0.630857
O18   O     O_R   0.913230 0.647920 0.765560 -0.647477
O19   O     O_R   0.086770 0.352080 0.234440 -0.648617
O20   O     O_R   0.352080 0.913230 0.765560 -0.635037
O21   O     O_R   0.647920 0.086770 0.234440 -0.630672
O22   O     O_R   0.586770 0.852080 0.265560 -0.647274
O23   O     O_3   0.500000 0.000000 0.750000 -0.488582
O24   O     O_R   0.413230 0.147920 0.734440 -0.648599
O25   O     O_R   0.147920 0.586770 0.265560 -0.635064
O26   O     O_R   0.852080 0.413230 0.734440 -0.630564
O27   O     O_R   0.413230 0.147920 0.265560 -0.646687
O28   O     O_R   0.586770 0.852080 0.734440 -0.648718
O29   O     O_R   0.852080 0.413230 0.265560 -0.635010
O30   O     O_R   0.147920 0.586770 0.734440 -0.630948
O31   O     O_R   0.852120 0.586630 0.735130 -0.646798
O32   O     O_R   0.147880 0.413370 0.264870 -0.631381
O33   O     O_R   0.413370 0.852120 0.735130 -0.648217
O34   O     O_3   0.500000 0.000000 0.250000 -0.487740
O35   O     O_R   0.586630 0.147880 0.264870 -0.644594
O36   O     O_R   0.147880 0.413370 0.735130 -0.646691
O37   O     O_R   0.852120 0.586630 0.264870 -0.631594
O38   O     O_R   0.586630 0.147880 0.735130 -0.648328
O39   O     O_R   0.413370 0.852120 0.264870 -0.642078
O40   O     O_R   0.352120 0.086630 0.235130 -0.646699
O41   O     O_R   0.647880 0.913370 0.764870 -0.631644
O42   O     O_R   0.913370 0.352120 0.235130 -0.648285
O43   O     O_R   0.086630 0.647880 0.764870 -0.641650
O44   O     O_R   0.647880 0.913370 0.235130 -0.646843
O45   O     O_R   0.000220 0.561630 0.808380 -0.632129
O46   O     O_R   0.352120 0.086630 0.764870 -0.631339
O47   O     O_R   0.086630 0.647880 0.235130 -0.648067
O48   O     O_R   0.913370 0.352120 0.764870 -0.645067
O49   O     O_2   0.499352 0.869874 0.933008 -0.591001
O50   O     O_2   0.451655 0.121399 0.067908 -0.591680
O51   O     O_2   0.115338 0.533397 0.932099 -0.597245
O52   O     O_2   0.869262 0.461940 0.068353 -0.602686
O53   O     O_2   0.501507 0.131032 0.932970 -0.590421
O54   O     O_2   0.550034 0.879569 0.067905 -0.591886
O55   O     O_2   0.865445 0.467393 0.932512 -0.595245
O56   O     O_R   0.999780 0.438370 0.191620 -0.636495
O57   O     O_2   0.116976 0.535509 0.067775 -0.601589
O58   O     O_2   0.998483 0.369049 0.432974 -0.590481
O59   O     O_2   0.950314 0.620566 0.567901 -0.591816
O60   O     O_2   0.631877 0.033550 0.432482 -0.595572
O61   O     O_2   0.381508 0.963026 0.567841 -0.601591
O62   O     O_2   0.000879 0.630205 0.433001 -0.590933
O63   O     O_2   0.048414 0.378622 0.567909 -0.591667
O64   O     O_2   0.382467 0.965726 0.432148 -0.597039
O65   O     O_2   0.628572 0.038779 0.568295 -0.602231
O66   O     O_R   0.438370 0.000220 0.808380 -0.628745
O67   O     O_R   0.561630 0.999780 0.191620 -0.631885
O68   O     O_R   0.999780 0.438370 0.808380 -0.634442
Zn1   Zn    Zn3+2 0.088070 0.500110 0.728590 0.981520
Zn2   Zn    Zn3+2 0.411930 0.999890 0.771410 0.985297
Zn3   Zn    Zn3+2 0.999890 0.588070 0.228590 0.961677
Zn4   Zn    Zn3+2 0.000110 0.411930 0.771410 0.963878
Zn5   Zn    Zn3+2 0.411930 0.999890 0.228590 0.981469
Zn6   Zn    Zn3+2 0.588070 0.000110 0.771410 0.985131
Zn7   Zn    Zn3+2 0.000110 0.411930 0.228590 0.961533
Zn8   Zn    Zn3+2 0.999890 0.588070 0.771410 0.966135
Zn9   Zn    Zn3+2 0.911930 0.499890 0.271410 0.985124
Zn10  Zn    Zn3+2 0.499890 0.088070 0.728590 0.961480
Zn11  Zn    Zn3+2 0.500110 0.911930 0.271410 0.965887
Zn12  Zn    Zn3+2 0.911930 0.499890 0.728590 0.980791
Zn13  Zn    Zn3+2 0.088070 0.500110 0.271410 0.985287
Zn14  Zn    Zn3+2 0.500110 0.911930 0.728590 0.961541
Zn15  Zn    Zn3+2 0.499890 0.088070 0.271410 0.964189
Zn16  Zn    Zn3+2 0.588070 0.000110 0.228590 0.980791

loop_
_geom_bond_atom_site_label_1
_geom_bond_atom_site_label_2
_ccdc_geom_bond_type
C172  C177  A    
C353  H151  S    
C167  H266  S    
C322  C324  A    
C105  C110  A    
C126  C127  A    
C460  O35   A    
C8    C26   S    
C22   C48   S    
C201  C446  A    
C79   C87   A    
C114  C115  A    
C252  C258  A    
C15   C32   S    
C398  C430  S    
C263  H76   S    
C411  C417  A    
C307  H114  S    
C282  C283  A    
C382  C383  A    
C111  C118  A    
C193  H287  S    
O29   Zn9   S    
C420  C421  A    
C30   C454  S    
C172  C173  A    
C162  C163  A    
C379  C438  A    
O1    Zn12  S    
C79   H26   S    
C60   C205  S    
C411  C413  A    
C106  C107  A    
C10   C28   S    
C305  C310  A    
C268  C449  A    
C242  H59   S    
C389  H182  S    
C317  H122  S    
C274  C275  A    
C149  H251  S    
C5    H213  S    
C182  C183  A    
C425  C439  A    
C395  C396  A    
C36   C53   S    
C19   C37   S    
C210  H16   S    
C298  C312  S    
C334  C439  S    
C115  H222  S    
C37   C461  S    
C201  C232  S    
C451  N3    S    
C38   C55   S    
C235  C412  A    
C78   C96   A    
C272  C273  A    
C8    H1    S    
C326  C327  A    
C360  H156  S    
C12   H234  S    
O32   Zn13  S    
C323  C450  A    
C305  C323  S    
C90   H27   S    
C443  N6    S    
C223  O3    A    
C20   C45   S    
C72   C94   A    
C71   N6    A    
O33   Zn14  S    
C137  C138  A    
C199  C200  A    
O9    Zn11  S    
C4    C56   S    
O17   Zn5   S    
C222  H43   S    
C292  C297  A    
C9    C52   S    
C234  C236  A    
C459  O13   A    
C424  H210  S    
C50   C476  S    
C228  C229  A    
C370  H165  S    
O42   Zn7   S    
C337  C338  A    
C450  N4    S    
C180  H276  S    
C140  C141  A    
C461  O44   A    
C40   C58   S    
C202  C203  A    
C312  C431  A    
C398  C404  A    
C387  H180  S    
C257  C265  S    
C340  C341  A    
C407  H196  S    
C459  O8    A    
C26   C479  S    
C206  C207  A    
C336  C337  A    
C281  H91   S    
C16   H267  S    
C314  C315  A    
C181  C182  A    
C138  H242  S    
C109  H219  S    
C316  C317  A    
C328  H131  S    
O39   Zn11  S    
C113  C146  A    
C25   C42   S    
C405  C410  A    
C294  H102  S    
C229  C230  A    
C25   C50   S    
C369  H164  S    
C258  H72   S    
C386  H178  S    
C44   C471  S    
C215  H37   S    
C190  C368  A    
C480  H190  S    
C355  C356  A    
C37   C473  S    
O2    Zn3   S    
C377  H172  S    
C352  C353  A    
C31   C455  S    
C306  C307  A    
C454  O16   A    
C48   C474  S    
C1    C442  S    
C280  C281  A    
C421  H208  S    
C86   C99   A    
C246  C446  A    
C141  H244  S    
C321  H126  S    
C154  C155  A    
C324  H128  S    
C46   C84   A    
C257  C447  A    
C50   C145  S    
C296  C297  A    
C177  H275  S    
C76   N7    A    
C36   C468  S    
C51   C152  S    
C271  H83   S    
C232  C238  A    
C448  O11   A    
C58   C192  S    
C381  C382  A    
C55   C178  S    
C384  H177  S    
C17   C34   S    
C73   C95   A    
C319  H123  S    
C383  C384  A    
C131  H237  S    
C293  H100  S    
C382  H175  S    
C45   C472  S    
C130  H236  S    
C436  C437  S    
C47   C126  S    
C393  C394  A    
C333  C336  A    
C367  H163  S    
C264  H77   S    
C3    C28   S    
C160  H260  S    
C345  C390  S    
C18   H2    S    
C274  H85   S    
C89   C101  A    
C474  H124  S    
C227  H45   S    
C157  H33   S    
C196  C197  A    
C66   N2    A    
C23   C41   S    
C430  C439  A    
C88   C102  A    
C139  C140  A    
C326  H129  S    
C393  H184  S    
C309  C310  A    
C71   C93   A    
C200  H7    S    
C112  O56   A    
O12   Zn13  S    
C140  H243  S    
C163  H263  S    
O48   Zn4   S    
C6    C33   S    
C416  C417  A    
C156  C158  A    
C130  C131  A    
C230  H49   S    
C290  C429  A    
C106  H216  S    
C286  H95   S    
C224  C401  A    
C465  O27   A    
C17   H278  S    
C255  H70   S    
C318  C346  S    
C413  H200  S    
C348  C349  A    
C57   C85   A    
C207  H12   S    
C11   H223  S    
C128  H233  S    
C122  H229  S    
C265  C271  A    
C350  C351  A    
C380  H173  S    
C223  C440  S    
C212  C239  S    
C113  H29   S    
C394  C395  A    
C312  C449  A    
C129  H235  S    
C151  H253  S    
O47   Zn3   S    
C187  C188  A    
C245  C251  A    
C56   C185  S    
C124  H30   S    
C321  C322  A    
C403  H193  S    
C155  C156  A    
C261  H74   S    
C288  H97   S    
C395  H186  S    
O15   Zn3   S    
C409  C410  A    
C365  C366  A    
C444  N5    S    
C16   C59   S    
C143  C144  A    
C475  H135  S    
C380  C381  A    
O38   Zn10  S    
C334  O4    A    
C446  N7    S    
C72   O60   S    
C308  H115  S    
C421  C422  A    
C169  H268  S    
C352  C358  A    
C36   C469  S    
C29   C480  S    
C403  C404  A    
C412  C436  A    
C15   C60   S    
C54   C480  S    
C419  C420  A    
C61   N1    A    
C14   C31   S    
C128  C129  A    
C21   C49   S    
C370  C371  A    
C134  H239  S    
C149  C150  A    
C167  C169  A    
C422  H209  S    
C372  C373  A    
C400  H191  S    
C352  C401  S    
C467  O29   A    
C464  O26   A    
C249  C250  A    
C293  C294  A    
O23   Zn6   S    
C5    C58   S    
C29   C47   S    
C470  H17   S    
O11   Zn13  S    
C394  H185  S    
C30   C48   S    
C262  H75   S    
C159  C160  A    
C261  C262  A    
C456  O31   A    
C19   C47   S    
C14   C475  S    
C170  C171  A    
C325  C326  A    
C399  C400  A    
C43   C469  S    
C20   C38   S    
C236  C237  A    
C273  H84   S    
C202  H8    S    
O34   Zn15  S    
C154  H255  S    
C189  C191  A    
O16   Zn6   S    
C174  C175  A    
O6    Zn14  S    
C458  O33   A    
C246  C259  S    
C365  C423  S    
C366  C367  A    
C3    C55   S    
C27   C44   S    
C49   C139  S    
C268  C272  S    
C24   C57   A    
O41   Zn6   S    
C256  C258  A    
C372  C425  S    
C248  H63   S    
C107  C108  A    
C397  H188  S    
C354  H152  S    
C359  C364  A    
C89   C103  A    
C74   C87   A    
C420  H207  S    
C296  H104  S    
C233  C234  A    
C27   C478  S    
C76   C89   A    
C404  H194  S    
C235  C445  A    
C166  H265  S    
C61   O49   S    
C237  H54   S    
C216  H38   S    
C32   C456  S    
C114  H221  S    
C237  C238  A    
O12   Zn9   S    
C1    O68   A    
C168  C211  S    
C78   C470  A    
C270  H82   S    
C235  C252  S    
C457  O32   A    
C391  H183  S    
C33   C457  S    
C360  C361  A    
C340  H140  S    
C273  C274  A    
C471  H90   S    
C383  H176  S    
C464  O48   A    
O3    Zn6   S    
C226  C231  A    
C429  C442  A    
C120  H227  S    
C372  C377  A    
C279  C428  A    
C396  H187  S    
C453  O15   A    
C54   C172  S    
C332  C333  A    
C136  H240  S    
C251  H66   S    
C295  H103  S    
C3    H201  S    
C333  H136  S    
C146  H32   S    
C222  C225  A    
C135  H31   S    
C426  O9    A    
C74   O62   S    
C41   C477  S    
C433  C442  A    
C195  C196  A    
C322  H127  S    
C201  C379  A    
C77   O65   S    
C68   H25   S    
C65   N1    A    
C52   C478  S    
C221  C222  A    
C357  C435  A    
C174  H272  S    
C310  H117  S    
C359  C412  S    
C335  C451  A    
C65   O53   S    
C241  H58   S    
C216  C217  A    
O24   Zn10  S    
C457  O19   A    
C356  C358  A    
C209  C210  A    
C292  C301  S    
C39   C56   S    
C75   N6    A    
C10   C55   S    
C454  O38   A    
C11   C54   S    
C309  H116  S    
C361  H158  S    
C200  C202  A    
C170  H269  S    
C193  C194  A    
C42   C476  S    
C34   C471  S    
C69   N4    A    
C290  C451  A    
C53   C479  S    
C37   C54   S    
C4    H211  S    
C359  C360  A    
C120  C121  A    
O23   Zn2   S    
C5    C30   S    
O28   Zn14  S    
C62   C84   A    
C315  H120  S    
C72   N7    A    
C221  H42   S    
C121  H228  S    
O12   Zn3   S    
C95   C157  A    
C6    C59   S    
C48   C132  S    
C328  C329  A    
C46   C470  A    
C39   C463  S    
C8    C53   S    
C320  H125  S    
C449  N1    S    
C203  H9    S    
C262  C263  A    
O30   Zn1   S    
C145  C151  A    
C147  H249  S    
C392  C397  A    
C66   C80   A    
C285  C291  A    
C318  C324  A    
C164  H264  S    
C41   C465  S    
C22   H46   S    
C299  H106  S    
C311  C313  A    
C186  C187  A    
C153  H254  S    
C295  C296  A    
C117  C118  A    
C260  C261  A    
C466  O28   A    
C205  C210  A    
C463  O25   A    
C276  H87   S    
C220  H41   S    
C158  H259  S    
C279  C450  A    
C257  C425  A    
C240  C241  A    
C289  H98   S    
C108  H218  S    
C63   O51   S    
C351  H150  S    
C332  H134  S    
C118  H226  S    
O45   Zn8   S    
C460  O21   A    
C35   H21   S    
C117  H225  S    
C365  C371  A    
C465  O40   A    
C402  H192  S    
C276  C277  A    
C226  C227  A    
O66   Zn2   S    
C283  C284  A    
C142  C143  A    
C150  H252  S    
C159  C164  A    
C21   H35   S    
C189  H285  S    
C152  C153  A    
O43   Zn8   S    
O22   Zn11  S    
C434  C459  S    
O21   Zn16  S    
C63   C85   A    
C259  C260  A    
C469  H79   S    
O46   Zn2   S    
C13   C68   A    
O27   Zn15  S    
C2    C35   A    
C94   C146  A    
C478  H168  S    
C165  C171  A    
C413  C414  A    
C77   N8    A    
C13   H19   S    
C243  H60   S    
C468  O43   A    
C82   C99   A    
C267  H80   S    
C275  C276  A    
C291  H99   S    
C381  H174  S    
C343  C344  A    
C426  O5    A    
C161  C162  A    
C220  C221  A    
C263  C264  A    
C376  H171  S    
C353  C354  A    
C213  C214  A    
C313  H118  S    
C18   C479  S    
C110  H220  S    
C364  H161  S    
O10   Zn10  S    
C6    H214  S    
C269  H81   S    
C84   C97   A    
C275  H86   S    
O36   Zn1   S    
C67   C81   A    
C31   C49   S    
C87   C100  A    
C29   C453  S    
C92   C124  A    
C294  C295  A    
C80   C97   A    
C123  C125  A    
C101  H28   S    
C81   C98   A    
C303  H109  S    
C59   C198  S    
C132  C138  A    
C243  C244  A    
C98   C99   A    
C13   C81   A    
C462  O24   A    
C479  H179  S    
O40   Zn5   S    
C285  C286  A    
O8    Zn1   S    
C169  C170  A    
C15   H256  S    
C337  H138  S    
C38   C462  S    
C40   C474  S    
C385  C391  A    
C375  H170  S    
C476  H146  S    
C287  H96   S    
C301  C447  A    
C19   C480  S    
C147  C148  A    
C38   C472  S    
C208  C209  A    
C228  H47   S    
C256  H71   S    
C363  C364  A    
C335  C433  A    
C185  C191  A    
C7    C32   S    
C418  C419  A    
C345  C347  A    
C283  H93   S    
C253  C254  A    
C461  O22   A    
C70   O58   S    
C45   C119  S    
C69   O57   S    
C194  C195  A    
C402  C403  A    
O13   Zn12  S    
C101  C157  A    
C315  C316  A    
O23   Zn10  S    
C190  C226  S    
C269  C270  A    
C426  C438  S    
C46   H22   S    
C64   O52   S    
C453  O37   A    
C51   C477  S    
C64   C86   A    
C145  C147  A    
C455  O39   A    
C24   H20   S    
C356  H154  S    
C8    C469  S    
C349  C350  A    
C211  C217  A    
C375  C376  A    
C152  C158  A    
C191  H286  S    
C468  O30   A    
C385  C428  S    
C297  H105  S    
C207  C208  A    
C20   H24   S    
C452  O14   A    
C396  C397  A    
C259  C264  A    
C34   C467  S    
C347  C348  A    
C144  H248  S    
C35   C83   A    
C280  H89   S    
C473  H113  S    
C93   C135  A    
C15   C476  S    
C205  C206  A    
C419  H206  S    
C282  H92   S    
C307  C308  A    
C405  C431  S    
C9    H112  S    
C284  H94   S    
C329  H132  S    
C331  C332  A    
C40   C464  S    
C314  H119  S    
C95   C104  A    
C184  H281  S    
C63   N3    A    
C213  H34   S    
C339  C340  A    
C323  C432  A    
C57   H23   S    
C254  H69   S    
C218  C219  A    
C306  H111  S    
C242  C243  A    
C325  C330  A    
C367  C369  A    
C272  C277  A    
O26   Zn12  S    
C192  C197  A    
C9    C471  S    
C47   C473  S    
C121  C122  A    
C415  H203  S    
C418  C424  A    
C119  C125  A    
C53   C165  S    
C342  H142  S    
C88   C90   A    
C94   C103  A    
C341  H141  S    
C245  C247  A    
C61   C83   A    
C133  C134  A    
O44   Zn16  S    
C343  H143  S    
C260  H73   S    
C378  C380  A    
C127  C128  A    
C374  H169  S    
C112  O2    A    
C7    C60   S    
C219  C220  A    
C234  H52   S    
C248  C249  A    
C9    C27   S    
C176  H274  S    
C385  C386  A    
C76   O64   S    
C447  N2    S    
C156  H258  S    
C175  H273  S    
C224  C444  A    
C155  H257  S    
C212  C443  A    
C204  H10   S    
C65   C78   A    
C12   C30   S    
C342  C343  A    
C90   C124  A    
C70   C92   A    
C17   C478  S    
C392  C393  A    
C42   C466  S    
C93   C102  A    
C178  C180  A    
C119  C120  A    
C173  H271  S    
C376  C377  A    
C448  O7    A    
C325  C357  S    
C33   C51   S    
C79   C135  A    
C105  C106  A    
C107  H217  S    
C34   C52   S    
C7    C25   S    
C355  H153  S    
C252  C253  A    
O19   Zn7   S    
C386  C387  A    
C129  C130  A    
C17   C44   S    
O14   Zn4   S    
C327  C328  A    
C168  C443  A    
C3    C20   S    
C109  C110  A    
C288  C289  A    
C388  H181  S    
C267  C269  A    
C214  H36   S    
C313  C314  A    
C253  H67   S    
C311  C317  A    
C12   C474  S    
C437  O10   A    
C194  H288  S    
O4    Zn5   S    
C111  C114  A    
O34   Zn16  S    
C23   H57   S    
C215  C216  A    
C230  C231  A    
C410  H199  S    
C4    C31   S    
O1    Zn8   S    
C319  C320  A    
C44   C111  S    
C246  C423  A    
C244  H61   S    
C408  C409  A    
C125  H231  S    
C378  C427  S    
C362  C363  A    
O12   Zn7   S    
C103  C104  A    
C389  C391  A    
C270  C271  A    
C136  C137  A    
C179  C444  A    
C148  H250  S    
C141  C142  A    
C18   C36   S    
C362  H159  S    
C67   N3    A    
C180  C181  A    
C64   N4    A    
C445  N8    S    
C373  H167  S    
C411  C432  S    
C70   N5    A    
C14   C56   S    
C203  C204  A    
C346  C434  A    
C165  C166  A    
C75   O63   S    
C179  C357  A    
C417  H205  S    
C329  C330  A    
C123  H230  S    
C163  C164  A    
C91   C104  A    
C183  C184  A    
C127  H232  S    
C196  H4    S    
C416  H204  S    
C432  C441  A    
C173  C174  A    
C320  C321  A    
C2    H18   S    
C73   O61   S    
C331  C368  S    
C254  C255  A    
C305  C306  A    
C330  H133  S    
C292  C293  A    
C241  C242  A    
C190  C445  A    
C233  H51   S    
C286  C287  A    
C409  H198  S    
C477  H157  S    
C423  C438  A    
C83   C96   A    
C358  H155  S    
C232  C233  A    
C116  C117  A    
C437  O6    A    
C43   C105  S    
C188  H284  S    
C227  C228  A    
C24   C82   A    
C239  C244  A    
C85   C98   A    
C301  C430  A    
C168  C346  A    
C374  C375  A    
C338  H139  S    
C187  H283  S    
C5    C22   S    
C175  C176  A    
C132  C133  A    
C418  C433  S    
C277  H88   S    
C182  H279  S    
C407  C408  A    
C198  C199  A    
C69   C82   A    
C371  H166  S    
C108  C109  A    
C300  C302  A    
C265  C266  A    
C62   N2    A    
C218  C225  A    
C73   N8    A    
C195  H3    S    
O7    Zn9   S    
C12   C58   S    
C52   C159  S    
C77   C91   A    
C116  H224  S    
C142  H246  S    
C303  C304  A    
C278  C284  A    
O5    Zn15  S    
C422  C424  A    
C10   C472  S    
O34   Zn5   S    
O31   Zn12  S    
C344  H144  S    
C289  C291  A    
C28   C452  S    
C463  O47   A    
C26   C43   S    
C366  H162  S    
C268  C427  A    
C239  C240  A    
C348  H147  S    
C28   C45   S    
C186  H282  S    
C219  H40   S    
C192  C193  A    
C302  C303  A    
C209  H15   S    
C427  C440  A    
C435  C448  S    
C456  O18   A    
C148  C149  A    
C41   C59   S    
C400  C402  A    
C42   C60   S    
C299  C300  A    
C214  C215  A    
C388  C389  A    
C134  C136  A    
C281  C282  A    
C285  C290  S    
O35   Zn15  S    
C91   C113  A    
C14   H245  S    
C137  H241  S    
C188  C189  A    
C462  O46   A    
O1    Zn4   S    
C472  H101  S    
C345  C351  A    
C300  H107  S    
O37   Zn9   S    
C74   N5    A    
O56   Zn7   S    
C318  C319  A    
C406  H195  S    
O25   Zn13  S    
C16   C33   S    
C311  C335  S    
C139  C144  A    
C75   C88   A    
C23   C51   S    
C415  C416  A    
C21   C39   S    
C115  C116  A    
C428  C441  A    
C62   O50   S    
O23   Zn14  S    
C22   C40   S    
C96   C97   A    
C206  H11   S    
C100  C102  A    
C368  C436  A    
C458  O20   A    
C298  C304  A    
C316  H121  S    
C390  C434  A    
C223  O66   A    
C32   C50   S    
C162  H262  S    
C250  H65   S    
O67   Zn16  S    
C49   C475  S    
C161  H261  S    
C68   C86   A    
C39   C475  S    
C176  C177  A    
C211  C213  A    
C363  H160  S    
C354  C355  A    
C181  H277  S    
C197  H5    S    
C401  C435  A    
C19   H13   S    
C179  C218  S    
C166  C167  A    
C229  H48   S    
C278  C280  A    
C217  H39   S    
C408  H197  S    
C208  H14   S    
C255  C256  A    
C66   O54   S    
C339  C344  A    
O20   Zn2   S    
C308  C309  A    
C92   C100  A    
C143  H247  S    
C369  C370  A    
C304  H110  S    
C406  C407  A    
C1    O45   A    
C392  C429  S    
O18   Zn8   S    
C467  O42   A    
C26   C458  S    
C278  C279  S    
C199  H6    S    
C67   O55   S    
O68   Zn4   S    
C249  H64   S    
C266  H78   S    
C247  C248  A    
C240  H56   S    
C331  C338  A    
C171  H270  S    
C361  C362  A    
C11   C473  S    
C225  H44   S    
C71   O59   S    
C150  C151  A    
C7    H215  S    
C10   H212  S    
C160  C161  A    
C27   C460  S    
O1    Zn1   S    
C452  O36   A    
C373  C374  A    
C302  H108  S    
C198  C204  A    
C4    C21   S    
C212  C390  A    
C16   C477  S    
C414  C415  A    
C126  C131  A    
C247  H62   S    
C6    C23   S    
C466  O41   A    
C350  H149  S    
C399  H189  S    
C405  C406  A    
C183  H280  S    
C378  C384  A    
C327  H130  S    
C250  C251  A    
C2    C80   A    
C266  C267  A    
C25   H68   S    
C236  H53   S    
C287  C288  A    
C347  H145  S    
C224  C245  S    
C11   C29   S    
C238  H55   S    
C298  C299  A    
C18   C43   S    
C112  C441  S    
C122  C123  A    
C341  C342  A    
C398  C399  A    
C414  H202  S    
C185  C186  A    
O34   Zn11  S    
C133  H238  S    
C339  C379  S    
C153  C154  A    
C336  H137  S    
C178  C184  A    
C387  C388  A    
C231  H50   S    
C334  O67   A    
C431  C440  A    
C349  H148  S    
C455  O17   A    
