data_mof_unit_47351.cif
_audit_creation_date              2013-03-05T15:50:55-0500
_audit_creation_method            fapswitch 2.2
_symmetry_space_group_name_H-M    P1
_symmetry_Int_Tables_number       1
_space_group_crystal_system       triclinic
_cell_length_a                    12.054656
_cell_length_b                    12.793826
_cell_length_c                    15.736072
_cell_angle_alpha                 90.983967
_cell_angle_beta                  87.536641
_cell_angle_gamma                 94.407343
_cell_volume                      2417.25146242

loop_
_atom_site_label
_atom_site_type_symbol
_atom_site_description
_atom_site_fract_x
_atom_site_fract_y
_atom_site_fract_z
_atom_type_partial_charge
O1    O     O_R   0.421690 0.658830 0.504140 -0.610576
O2    O     O_R   0.609320 0.646410 0.494190 -0.652544
C1    C     C_R   0.522938 0.700144 0.496605 0.871807
O3    O     O_R   0.406150 0.506210 0.627840 -0.619335
O4    O     O_R   0.593770 0.493790 0.617880 -0.614128
C2    C     C_R   0.501112 0.499528 0.661370 0.865892
Zn1   Zn    Zn3+2 0.374720 0.508290 0.506640 1.011574
Zn2   Zn    Zn3+2 0.625280 0.491710 0.493360 0.950408
O5    O     O_R   0.390680 0.353590 0.505810 -0.582172
O6    O     O_R   0.578310 0.341170 0.495860 -0.610168
O7    O     O_R   0.406230 0.506210 0.382120 -0.562244
O8    O     O_R   0.593850 0.493790 0.372160 -0.637048
C3    C     C_R   0.477153 0.299961 0.503464 0.912808
C4    C     C_R   0.498773 0.499844 0.338619 0.902640
C5    C     C_3   0.424444 0.574159 0.951601 -0.417157
C6    C     C_3   0.629253 0.526819 0.947999 0.374205
C7    C     C_3   0.620108 0.523920 0.049028 -0.113032
H1    H     H_    0.473415 0.663590 0.064269 0.152238
H2    H     H_    0.444749 0.652237 0.922291 0.171114
H3    H     H_    0.638270 0.606187 0.071546 0.148977
C8    C     C_1   0.495945 0.499171 0.250074 -0.114926
C9    C     C_3   0.506822 0.493332 0.916701 -0.043766
C10   C     C_3   0.428068 0.586540 0.049604 -0.000061
C11   C     C_3   0.496263 0.497002 0.083253 0.000263
C12   C     C_3   0.448015 0.387299 0.049614 0.074575
C13   C     C_3   0.466102 0.381328 0.951054 0.063135
C14   C     C_1   0.494961 0.498290 0.174910 -0.004147
C15   C     C_1   0.505524 0.494337 0.824932 0.083217
C16   C     C_1   0.503580 0.496676 0.749847 -0.125359
H4    H     H_    0.534718 0.329767 0.938018 0.136316
H5    H     H_    0.338507 0.548961 0.933226 0.272879
H6    H     H_    0.495538 0.325702 0.075700 0.112926
C17   C     C_R   0.462218 0.188571 0.510555 -0.142966
C18   C     C_R   0.538184 0.811749 0.489881 -0.167954
C19   C     C_R   0.612111 0.969369 0.418723 0.324110
C20   C     C_R   0.612211 0.860999 0.428545 0.089004
C21   C     C_R   0.468375 0.868399 0.542172 -0.216661
C22   C     C_R   0.463754 0.974743 0.531351 -0.028493
C23   C     C_R   0.536200 0.025588 0.468923 -0.033916
C24   C     C_R   0.530731 0.131701 0.457464 -0.196593
C25   C     C_R   0.390463 0.139982 0.573424 0.086400
C26   C     C_R   0.389102 0.031389 0.582455 0.323294
H7    H     H_    0.582007 0.172396 0.408328 0.203553
H8    H     H_    0.415948 0.827512 0.590555 0.202585
N1    N     N_R   0.207800 0.519340 0.515510 -0.164221
N2    N     N_R   0.792190 0.480660 0.484490 -0.129753
C27   C     C_R   0.950353 0.408901 0.414307 -0.214076
C28   C     C_R   0.835415 0.417994 0.422882 -0.003138
C29   C     C_R   0.860471 0.535681 0.540506 0.302645
C30   C     C_R   0.977740 0.532188 0.531590 0.017998
C31   C     C_R   0.022989 0.466627 0.468517 -0.064831
C32   C     C_R   0.140089 0.461190 0.461675 0.382563
C33   C     C_R   0.165336 0.585327 0.574606 -0.013637
C34   C     C_R   0.050770 0.593720 0.583269 -0.259583
H9    H     H_    0.220842 0.631868 0.615096 0.175368
H10   H     H_    0.981566 0.357515 0.364994 0.222030
H11   H     H_    0.020683 0.648883 0.629946 0.197802
H12   H     H_    0.780290 0.374371 0.380300 0.169901
N3    N     N_2   0.316128 0.588963 0.088852 -0.229895
H13   H     H_    0.309105 0.570747 0.152474 0.273235
C35   C     C_3   0.258122 0.681013 0.071959 -0.669668
H14   H     H_    0.171921 0.671069 0.100031 0.252993
H15   H     H_    0.252872 0.692471 0.002546 0.248840
H16   H     H_    0.301488 0.751735 0.101020 0.228768
N4    N     N_2   0.324774 0.199599 0.630911 -0.267134
H17   H     H_    0.360671 0.270690 0.651711 0.240874
C36   C     C_3   0.207430 0.198964 0.614465 -0.494194
H18   H     H_    0.188877 0.276190 0.589641 0.220191
H19   H     H_    0.158052 0.184712 0.674843 0.255420
H20   H     H_    0.181212 0.136739 0.567653 0.242876
N5    N     N_R   0.687407 0.021208 0.356822 0.199151
O9    O     O_R   0.688785 0.989387 0.277835 -0.350953
O10   O     O_R   0.762635 0.092654 0.381043 -0.399461
N6    N     N_R   0.314513 0.979951 0.644975 0.197360
O11   O     O_R   0.316563 0.010012 0.724337 -0.323674
O12   O     O_R   0.236893 0.910603 0.621241 -0.408970
N7    N     N_2   0.682766 0.802642 0.373821 -0.269696
H21   H     H_    0.648518 0.730622 0.353704 0.230620
C37   C     C_3   0.795841 0.800561 0.400769 -0.612579
H22   H     H_    0.797092 0.760726 0.462829 0.221404
H23   H     H_    0.835478 0.881446 0.406857 0.269621
H24   H     H_    0.845321 0.757204 0.352718 0.227523
N8    N     N_R   0.188547 0.395991 0.397843 0.216219
O13   O     O_R   0.197521 0.427347 0.319478 -0.358798
O14   O     O_R   0.198275 0.297781 0.413661 -0.378892
N9    N     N_2   0.814273 0.597231 0.607513 -0.338288
H25   H     H_    0.743493 0.633475 0.596557 0.265351
C38   C     C_3   0.824193 0.562194 0.693949 -0.667638
H26   H     H_    0.740789 0.542189 0.724133 0.265128
H27   H     H_    0.865535 0.626592 0.731929 0.224985
H28   H     H_    0.873319 0.492263 0.696290 0.265850
N10   N     N_R   0.713781 0.457294 0.911967 0.208336
O15   O     O_R   0.816875 0.470824 0.933837 -0.367793
O16   O     O_R   0.691586 0.390463 0.850576 -0.418409
N11   N     N_2   0.660920 0.635012 0.920386 -0.345782
H29   H     H_    0.639814 0.652081 0.859645 0.217774
C39   C     C_3   0.769412 0.685151 0.939293 -0.668449
H30   H     H_    0.796262 0.664224 0.002842 0.242391
H31   H     H_    0.765527 0.771507 0.938094 0.240154
H32   H     H_    0.832663 0.663249 0.890164 0.261948
N12   N     N_2   0.705223 0.468199 0.089676 -0.294146
H33   H     H_    0.782938 0.507826 0.091597 0.263445
C40   C     C_3   0.704928 0.355074 0.091194 -0.585916
H34   H     H_    0.790275 0.332499 0.102140 0.255234
H35   H     H_    0.679145 0.318740 0.030146 0.244613
H36   H     H_    0.650674 0.324143 0.145179 0.222862
N13   N     N_R   0.369662 0.328363 0.908973 0.267094
O17   O     O_R   0.305207 0.378343 0.862258 -0.354557
O18   O     O_R   0.347972 0.227985 0.918848 -0.298631
N14   N     N_R   0.331707 0.361715 0.080037 0.263551
O19   O     O_R   0.311526 0.298214 0.143516 -0.309019
O20   O     O_R   0.247803 0.395641 0.042182 -0.281004

loop_
_geom_bond_atom_site_label_1
_geom_bond_atom_site_label_2
_geom_bond_distance
_ccdc_geom_bond_type
N12   H33   1.031738 S    
C32   N8    1.428848 S    
C18   C21   1.387178 A    
C25   C26   1.397760 A    
C19   C23   1.413594 A    
N11   H29   1.030839 S    
C11   C14   1.441553 S    
C39   H30   1.107617 S    
C10   N3    1.461993 S    
C33   C34   1.394112 A    
C5    H2    1.113114 S    
N2    C29   1.379139 A    
C30   C34   1.410366 A    
N6    O12   1.301238 A    
Zn1   N1    2.026615 S    
C4    C8    1.395093 S    
C15   C16   1.183723 T    
C5    C9    1.564774 S    
C22   C26   1.414128 A    
C20   N7    1.426502 S    
O4    C2    1.290933 A    
O7    C4    1.290786 A    
N9    C38   1.452036 S    
C7    H3    1.113422 S    
C35   H15   1.109720 S    
O5    C3    1.290138 A    
N14   O19   1.301399 A    
C7    N12   1.467851 S    
C24   H7    1.083623 S    
C27   C28   1.399864 A    
C6    C7    1.589759 S    
N4    C36   1.448304 S    
C10   C11   1.572070 S    
C12   H6    1.103828 S    
C5    C10   1.549733 S    
C8    C14   1.183218 T    
N1    C33   1.355753 A    
N3    H13   1.030282 S    
N12   C40   1.447644 S    
C9    C15   1.445115 S    
N13   O18   1.301335 A    
O3    Zn1   1.961408 S    
C39   H31   1.109919 S    
N14   O20   1.301683 A    
C33   H9    1.081937 S    
N2    C28   1.359502 A    
N3    C35   1.449063 S    
C17   C24   1.386222 A    
C26   N6    1.436903 S    
N6    O11   1.301090 A    
H1    C10   1.115358 S    
C7    C11   1.579761 S    
C11   C12   1.569656 S    
O3    C2    1.290204 A    
C23   C24   1.379535 A    
N5    O10   1.301349 A    
N9    H25   1.024180 S    
C25   N4    1.426432 S    
N1    C32   1.371805 A    
C12   C13   1.558285 S    
N7    H21   1.030731 S    
C36   H18   1.110639 S    
O1    C1    1.293692 A    
C19   C20   1.397788 A    
C35   H16   1.111193 S    
Zn1   O7    1.979959 S    
C3    C17   1.428327 S    
C21   C22   1.379713 A    
C37   H24   1.110342 S    
N8    O13   1.300834 A    
C38   H28   1.112182 S    
Zn2   O8    1.961410 S    
N10   O16   1.301761 A    
C30   C31   1.407600 A    
N7    C37   1.447114 S    
C40   H35   1.106197 S    
C28   H12   1.081886 S    
C12   N14   1.476216 S    
N8    O14   1.300139 A    
C38   H27   1.109027 S    
C13   H4    1.107255 S    
C6    N10   1.491079 S    
N13   O17   1.301754 A    
C39   H32   1.110081 S    
C37   H23   1.110364 S    
Zn1   O5    2.002962 S    
C6    N11   1.475039 S    
C6    C9    1.600726 S    
O1    Zn1   1.965868 S    
C29   N9    1.424946 S    
O2    Zn2   2.002962 S    
O8    C4    1.290426 A    
O6    C3    1.292307 A    
C13   N13   1.476108 S    
O4    Zn2   1.979959 S    
C27   C31   1.408189 A    
N11   C39   1.452029 S    
C5    H5    1.109913 S    
C1    C18   1.430709 S    
C36   H20   1.112433 S    
C17   C25   1.406529 A    
C21   H8    1.083614 S    
O2    C1    1.290001 A    
C31   C32   1.418040 A    
C22   C23   1.418360 A    
N10   O15   1.301732 A    
C40   H36   1.109046 S    
C18   C20   1.409029 A    
N4    H17   1.031046 S    
C35   H14   1.110518 S    
Zn2   N2    2.026494 S    
C19   N5    1.437425 S    
C37   H22   1.110505 S    
N5    O9    1.301085 A    
C2    C16   1.395043 S    
C38   H26   1.107043 S    
Zn2   O6    1.965868 S    
C29   C30   1.418624 A    
C9    C13   1.575520 S    
C40   H34   1.110932 S    
C36   H19   1.109477 S    
C27   H10   1.082288 S    
C34   H11   1.080627 S    
