data_mof_unit_5963.cif
_audit_creation_date              2012-12-10T18:13:51-0500
_audit_creation_method            fapswitch 2.2
_symmetry_space_group_name_H-M    P1
_symmetry_Int_Tables_number       1
_space_group_crystal_system       triclinic
_cell_length_a                    10.973396
_cell_length_b                    9.785644
_cell_length_c                    23.409485
_cell_angle_alpha                 91.279447
_cell_angle_beta                  89.232085
_cell_angle_gamma                 89.967632
_cell_volume                      2512.89801618

loop_
_atom_site_label
_atom_site_type_symbol
_atom_type_description
_atom_site_fract_x
_atom_site_fract_y
_atom_site_fract_z
_atom_type_partial_charge
C1    C     C_R   0.261782 0.500193 0.500826 0.764273
C2    C     C_R   0.349383 0.258498 0.965449 0.329821
C3    C     C_R   0.361635 0.238863 0.024962 0.325774
C4    C     C_R   0.439730 0.324690 0.057054 -0.106767
C5    C     C_R   0.512921 0.421889 0.029056 -0.144208
C6    C     C_R   0.600061 0.496172 0.060696 -0.015248
C7    C     C_R   0.678597 0.588602 0.032998 0.120004
C8    C     C_R   0.668425 0.608421 0.973719 0.119145
C9    C     C_R   0.448924 0.315561 0.117068 0.663458
C10   C     C_R   0.604088 0.476291 0.120024 0.628090
C11   C     C_R   0.529789 0.575115 0.233131 0.139966
C12   C     C_R   0.496970 0.498641 0.391417 0.756444
C13   C     C_R   0.542532 0.587318 0.292473 0.279629
C14   C     C_R   0.482501 0.493553 0.328436 -0.273837
C15   C     C_R   0.398133 0.401268 0.303152 0.307969
C16   C     C_R   0.394652 0.384407 0.243211 0.118530
C17   C     C_R   0.480083 0.454177 0.208062 0.150701
C18   C     C_R   0.384396 0.518411 0.762000 0.223238
C19   C     C_R   0.385379 0.523590 0.701924 0.010778
C20   C     C_R   0.495114 0.498614 0.670979 -0.078906
C21   C     C_R   0.598419 0.452708 0.699918 0.082135
C22   C     C_R   0.594954 0.442732 0.759260 -0.213360
C23   C     C_R   0.740475 0.499742 0.499891 0.755986
C24   C     C_R   0.489816 0.477723 0.790573 0.273868
C25   C     C_3   0.074601 0.593055 0.550274 -0.474057
C26   C     C_3   0.078818 0.355534 0.511928 -0.490390
C27   C     C_3   0.933709 0.611761 0.545334 0.305371
C28   C     C_3   0.937934 0.352191 0.516595 0.337842
C29   C     C_3   0.078768 0.547203 0.442573 -0.380487
C30   C     C_3   0.125406 0.500190 0.501242 0.031180
C31   C     C_3   0.882229 0.499847 0.499728 0.139965
C32   C     C_3   0.936617 0.537375 0.437968 0.241121
C33   C     C_3   0.628094 0.082133 0.499448 0.362017
C34   C     C_3   0.627807 0.916260 0.506997 0.393153
C35   C     C_3   0.430340 0.090059 0.553592 0.323373
C36   C     C_3   0.418275 0.921077 0.550427 0.267020
C37   C     C_3   0.434270 0.078242 0.450458 0.232129
C38   C     C_3   0.444536 0.914739 0.447816 0.217260
C39   C     C_R   0.497845 0.500567 0.608312 0.823477
C40   C     C_R   0.568355 0.549290 0.882283 0.575714
C41   C     C_R   0.421456 0.369862 0.877536 0.636757
C42   C     C_R   0.424639 0.354289 0.937317 -0.093547
C43   C     C_R   0.506175 0.436558 0.969339 -0.135550
C44   C     C_R   0.581572 0.532888 0.941651 -0.010314
Cu1   Cu    Cu3+1 0.499860 0.642410 0.500030 0.960876
Cu2   Cu    Cu3+1 0.499860 0.357590 0.500030 0.979198
H1    H     H_    0.674643 0.406852 0.781313 0.161079
H2    H     H_    0.121486 0.693259 0.550854 0.187328
H3    H     H_    0.113759 0.286355 0.477015 0.177798
H4    H     H_    0.097287 0.547495 0.591796 0.171938
H5    H     H_    0.119432 0.317478 0.551813 0.174355
H6    H     H_    0.110409 0.653868 0.436024 0.164281
H7    H     H_    0.122898 0.484557 0.407931 0.158855
H8    H     H_    0.336487 0.103010 0.452471 0.066650
H9    H     H_    0.352129 0.870711 0.442709 0.099495
N1    N     N_R   0.490896 0.467342 0.851797 -0.467294
N2    N     N_R   0.507700 0.416439 0.147738 -0.445023
N3    N     N_3   0.500250 0.143650 0.501250 -0.194973
N4    N     N_3   0.500250 0.856350 0.501250 -0.184118
O1    O     O_R   0.317570 0.620260 0.500030 -0.566880
O2    O     O_R   0.317570 0.379740 0.500030 -0.568458
O3    O     O_R   0.499840 0.620290 0.417900 -0.527845
O4    O     O_R   0.499840 0.379710 0.417900 -0.521527
O5    O     O_R   0.682190 0.620260 0.500010 -0.552070
O6    O     O_R   0.682190 0.379740 0.500010 -0.557561
O7    O     O_R   0.499920 0.620230 0.582140 -0.604250
O8    O     O_R   0.499920 0.379770 0.582140 -0.534421
O9    O     O_2   0.632075 0.646178 0.854704 -0.495235
O10   O     O_2   0.351783 0.286611 0.844900 -0.466141
O11   O     O_2   0.412740 0.200510 0.142615 -0.457177
O12   O     O_2   0.705569 0.508821 0.149192 -0.497233
O13   O     O_3   0.262222 0.187971 0.934570 -0.671195
H10   H     H_    0.191378 0.169512 0.959908 0.331851
N5    N     N_3   0.271996 0.540654 0.673230 -0.620507
H11   H     H_    0.277346 0.625313 0.647224 0.207997
H12   H     H_    0.257795 0.453979 0.647238 0.215636
N6    N     N_3   0.705714 0.410452 0.668931 -0.582249
H13   H     H_    0.718119 0.306051 0.675490 0.225606
H14   H     H_    0.779998 0.461257 0.687077 0.240182
N7    N     N_3   0.876626 0.593689 0.601902 -0.611654
H15   H     H_    0.917316 0.658771 0.632168 0.215132
H16   H     H_    0.784675 0.620008 0.600939 0.242122
N8    N     N_3   0.902942 0.318538 0.575966 -0.557045
H17   H     H_    0.929728 0.218537 0.584282 0.183084
H18   H     H_    0.954985 0.372990 0.605587 0.235131
N9    N     N_3   0.910125 0.753254 0.528361 -0.537695
H19   H     H_    0.976192 0.787224 0.499414 0.224629
H20   H     H_    0.919567 0.819699 0.563670 0.206370
N10   N     N_3   0.896088 0.239751 0.478629 -0.519251
H21   H     H_    0.941128 0.235846 0.439250 0.241212
H22   H     H_    0.924159 0.146681 0.495186 0.195401
N11   N     N_3   0.890154 0.668716 0.418618 -0.593408
H23   H     H_    0.800254 0.654718 0.406618 0.220641
H24   H     H_    0.936897 0.697188 0.381478 0.218457
N12   N     N_3   0.905293 0.433631 0.394094 -0.616673
H25   H     H_    0.810585 0.425325 0.390831 0.206476
H26   H     H_    0.938646 0.463089 0.354127 0.236145
N13   N     N_3   0.704763 0.143795 0.543896 -0.543964
H27   H     H_    0.672883 0.219552 0.571988 0.308760
H28   H     H_    0.780401 0.087968 0.556255 0.210806
N14   N     N_3   0.680609 0.874497 0.561804 -0.584348
H29   H     H_    0.653233 0.778165 0.573432 0.302799
H30   H     H_    0.670228 0.936348 0.597540 0.192887
O14   O     O_3   0.296084 0.138744 0.052501 -0.672898
H31   H     H_    0.284057 0.060558 0.025548 0.333949
N15   N     N_3   0.689433 0.116825 0.444650 -0.544330
H32   H     H_    0.667051 0.054369 0.409911 0.262371
H33   H     H_    0.669145 0.214934 0.431814 0.315471
N16   N     N_3   0.713908 0.854988 0.465002 -0.477803
H34   H     H_    0.690002 0.844634 0.422744 0.274418
H35   H     H_    0.797080 0.907008 0.466144 0.231587
N17   N     N_3   0.490609 0.138758 0.606807 -0.547725
H36   H     H_    0.557447 0.079843 0.624271 0.192722
H37   H     H_    0.430050 0.162348 0.640554 0.225469
N18   N     N_3   0.449948 0.868023 0.607226 -0.561492
H38   H     H_    0.416084 0.931875 0.639956 0.177585
H39   H     H_    0.392891 0.787450 0.617230 0.252534
O15   O     O_3   0.472024 0.133246 0.398227 -0.677337
H40   H     H_    0.411003 0.107357 0.368947 0.346675
O16   O     O_3   0.504743 0.872224 0.397300 -0.692798
H41   H     H_    0.446105 0.874593 0.365314 0.338610
N19   N     N_3   0.308211 0.155160 0.558111 -0.541093
H42   H     H_    0.263011 0.126514 0.595604 0.177148
H43   H     H_    0.246902 0.134930 0.525875 0.174433
N20   N     N_3   0.288957 0.879142 0.541942 -0.589240
H44   H     H_    0.236861 0.898457 0.579024 0.183960
H45   H     H_    0.242716 0.927456 0.509645 0.152984
N21   N     N_3   0.764642 0.667463 0.065629 -0.518420
H46   H     H_    0.852456 0.647841 0.049679 0.227250
H47   H     H_    0.744994 0.771316 0.061756 0.221464
N22   N     N_3   0.747787 0.703907 0.946054 -0.511782
H48   H     H_    0.838228 0.674391 0.951878 0.219746
H49   H     H_    0.734035 0.801212 0.964303 0.225435
N23   N     N_3   0.558696 0.690626 0.198607 -0.524347
H50   H     H_    0.648279 0.721302 0.206560 0.296359
H51   H     H_    0.501335 0.771302 0.211431 0.238954
O17   O     O_3   0.613581 0.693048 0.312883 -0.702640
H52   H     H_    0.652231 0.663339 0.348138 0.333205
O18   O     O_3   0.312059 0.331544 0.334873 -0.744879
H53   H     H_    0.300469 0.377408 0.372578 0.326915
N24   N     N_3   0.290089 0.318519 0.219053 -0.489823
H54   H     H_    0.212309 0.373243 0.232112 0.231220
H55   H     H_    0.283249 0.220187 0.235450 0.284815
N25   N     N_3   0.276241 0.552160 0.794320 -0.545566
H56   H     H_    0.206687 0.485892 0.781356 0.258725
H57   H     H_    0.250530 0.651699 0.784461 0.233675

loop_
_geom_bond_atom_site_label_1
_geom_bond_atom_site_label_2
_ccdc_geom_bond_type
C3    O14   S    
Cu1   O1    S    
C33   N3    S    
C41   C42   A    
N12   H25   S    
C36   N4    S    
N21   H46   S    
N17   H37   S    
C7    C8    A    
C32   N11   S    
N6    H13   S    
N14   H29   S    
N5    H12   S    
C35   N3    S    
C18   C24   A    
C1    C30   S    
C37   C38   S    
C18   C19   A    
C29   C32   S    
N24   H55   S    
C5    C6    A    
N7    H15   S    
N9    H20   S    
N15   H32   S    
N18   H38   S    
Cu1   O3    S    
C33   N13   S    
C25   H4    S    
N17   H36   S    
O15   H40   S    
N24   H54   S    
C11   C17   A    
C37   O15   S    
C35   C36   S    
C16   C17   A    
C40   N1    A    
C28   N10   S    
C7    N21   S    
N10   H22   S    
C37   N3    S    
C38   O16   S    
C10   O12   S    
N15   H33   S    
C22   H1    S    
C5    C43   A    
N14   H30   S    
C13   C14   A    
Cu2   N3    S    
C28   N8    S    
C2    O13   S    
O14   H31   S    
C15   O18   S    
N6    H14   S    
C34   N14   S    
N5    H11   S    
C38   H9    S    
Cu2   O2    S    
C27   C31   S    
C10   N2    A    
C9    O11   S    
Cu2   O6    S    
N7    H16   S    
C27   N7    S    
N16   H34   S    
C11   N23   S    
C12   O4    A    
N9    H19   S    
N25   H56   S    
N23   H51   S    
N18   H39   S    
Cu1   Cu2   S    
C15   C16   A    
C1    O2    A    
C13   O17   S    
C27   N9    S    
C43   C44   A    
C41   N1    A    
C29   C30   S    
C12   O3    A    
C31   C32   S    
C32   N12   S    
C8    N22   S    
N11   H24   S    
C33   C34   S    
C25   H2    S    
N23   H50   S    
C37   H8    S    
N25   H57   S    
C23   O5    A    
N8    H18   S    
C12   C14   S    
C26   C30   S    
N13   H28   S    
C28   C31   S    
N20   H44   S    
C39   O7    A    
C22   C24   A    
C1    O1    A    
C24   N1    S    
C42   C43   A    
N19   H43   S    
C3    C4    A    
O16   H41   S    
C41   O10   S    
C25   C30   S    
C20   C39   S    
Cu1   N4    S    
N8    H17   S    
C39   O8    A    
C35   N19   S    
C33   N15   S    
C8    C44   A    
O13   H10   S    
N22   H49   S    
N21   H47   S    
C6    C10   A    
O18   H53   S    
N12   H26   S    
N19   H42   S    
C6    C7    A    
C25   C27   S    
O17   H52   S    
Cu1   O5    S    
C26   C28   S    
Cu2   O4    S    
C23   O6    A    
C19   C20   A    
N16   H35   S    
C16   N24   S    
N10   H21   S    
Cu2   O8    S    
C26   H5    S    
C11   C13   A    
C34   N4    S    
C29   H7    S    
C2    C42   A    
C4    C5    A    
C18   N25   S    
N11   H23   S    
C2    C3    A    
C9    N2    A    
C19   N5    S    
N22   H48   S    
C38   N4    S    
C40   C44   A    
C36   N20   S    
C20   C21   A    
N13   H27   S    
C40   O9    S    
C21   N6    S    
Cu1   O7    S    
N20   H45   S    
C34   N16   S    
C14   C15   A    
C4    C9    A    
C21   C22   A    
C36   N18   S    
C29   H6    S    
C35   N17   S    
C26   H3    S    
C17   N2    S    
C23   C31   S    
