data_mof_unit_9132.cif
_audit_creation_date              2012-12-10T17:22:11-0500
_audit_creation_method            fapswitch 2.2
_symmetry_space_group_name_H-M    P1
_symmetry_Int_Tables_number       1
_space_group_crystal_system       triclinic
_cell_length_a                    10.226427
_cell_length_b                    10.550102
_cell_length_c                    15.736568
_cell_angle_alpha                 90.78976
_cell_angle_beta                  81.113428
_cell_angle_gamma                 94.778779
_cell_volume                      1671.60366111

loop_
_atom_site_label
_atom_site_type_symbol
_atom_type_description
_atom_site_fract_x
_atom_site_fract_y
_atom_site_fract_z
_atom_type_partial_charge
C1    C     C_R   0.554820 0.733598 0.489951 0.944962
C2    C     C_2   0.497923 0.930947 0.434655 0.586277
C3    C     C_2   0.416700 0.131762 0.484623 -0.347113
C4    C     C_R   0.500026 0.500591 0.661486 0.882757
C5    C     C_2   0.513407 0.068369 0.440578 -0.306540
C6    C     C_2   0.925803 0.499957 0.513805 0.601443
C7    C     C_2   0.073257 0.483134 0.495641 -0.097939
C8    C     C_R   0.445103 0.265969 0.501097 0.912227
C9    C     C_R   0.500130 0.499951 0.338512 0.886637
C10   C     C_3   0.404578 0.615711 0.962310 0.417247
C11   C     C_3   0.656281 0.542444 0.937607 0.868824
C12   C     C_3   0.394377 0.599262 0.062852 -0.354684
C13   C     C_3   0.642389 0.563668 0.037319 -0.205152
C14   C     C_1   0.500865 0.502859 0.249776 -0.166060
C15   C     C_3   0.505697 0.517056 0.916637 -0.122214
C16   C     C_1   0.272767 0.591856 0.931398 0.306939
C17   C     C_1   0.259152 0.555931 0.106958 0.157958
C18   C     C_3   0.518855 0.194238 0.120043 -0.322222
C19   C     C_3   0.364140 0.918675 0.329352 -0.309461
C20   C     C_1   0.122916 0.384141 0.438075 0.348474
C21   C     C_3   0.875471 0.686368 0.583975 -0.286295
C22   C     C_3   0.367640 0.837415 0.964116 -0.387027
C23   C     C_3   0.500836 0.510678 0.082839 -0.061880
C24   C     C_3   0.842685 0.300591 0.364427 -0.148682
C25   C     C_3   0.794147 0.412560 0.841425 -0.167809
C26   C     C_3   0.705858 0.745808 0.857020 -0.223940
C27   C     C_1   0.674787 0.697561 0.061509 0.230158
C28   C     C_3   0.295905 0.215965 0.925349 -0.321324
C29   C     C_3   0.465760 0.373379 0.049994 0.310840
C30   C     C_3   0.453873 0.379016 0.952622 0.217858
C31   C     C_1   0.501050 0.506207 0.174597 0.011525
C32   C     C_1   0.504175 0.511732 0.825024 -0.020039
C33   C     C_1   0.501514 0.506032 0.750057 -0.179064
C34   C     C_2   0.583704 0.867648 0.470957 -0.478112
H1    H     H_    0.416813 0.693273 0.092439 0.189874
H2    H     H_    0.478336 0.232031 0.184185 0.157072
H3    H     H_    0.602274 0.137251 0.128575 0.205414
H4    H     H_    0.323396 0.013115 0.339072 0.176014
H5    H     H_    0.289267 0.853961 0.302810 0.193453
H6    H     H_    0.456205 0.925147 0.280879 0.147151
H7    H     H_    0.897921 0.723319 0.516691 0.151241
H8    H     H_    0.948027 0.733998 0.622081 0.147367
H9    H     H_    0.776631 0.715470 0.613065 0.190244
H10   H     H_    0.292966 0.812998 0.021907 0.160829
H11   H     H_    0.315214 0.857151 0.909590 0.189442
H12   H     H_    0.611582 0.114247 0.418579 0.143729
H13   H     H_    0.426295 0.926196 0.978465 0.192115
H14   H     H_    0.739996 0.301998 0.350820 0.187891
H15   H     H_    0.846671 0.231279 0.416571 0.109084
H16   H     H_    0.903544 0.266545 0.305335 0.158416
H17   H     H_    0.895596 0.459954 0.840077 0.215689
H18   H     H_    0.747791 0.450774 0.789077 0.176713
H19   H     H_    0.804030 0.309950 0.828380 0.152894
H20   H     H_    0.680168 0.819310 0.906291 0.224375
H21   H     H_    0.628609 0.722596 0.816432 0.186310
H22   H     H_    0.791380 0.790548 0.812482 0.156154
H23   H     H_    0.319011 0.085043 0.507374 0.175491
H24   H     H_    0.322787 0.157843 0.977396 0.147721
H25   H     H_    0.350549 0.188968 0.861899 0.163692
H26   H     H_    0.188303 0.194519 0.923680 0.208028
H27   H     H_    0.672810 0.916342 0.489813 0.102812
H28   H     H_    0.122084 0.618580 0.577723 0.189209
H29   H     H_    0.717889 0.510124 0.062360 0.206891
H30   H     H_    0.518925 0.309391 0.916991 0.178961
H31   H     H_    0.366460 0.337521 0.085524 0.127392
H32   H     H_    0.442246 0.129784 0.094769 0.141554
N1    N     N_2   0.842720 0.448890 0.465540 0.044790
N2    N     N_2   0.157250 0.551040 0.534500 -0.217842
N3    N     N_1   0.171276 0.574033 0.907471 -0.183459
N4    N     N_1   0.153955 0.522216 0.141446 -0.155546
N5    N     N_1   0.162015 0.304787 0.391759 -0.236314
N6    N     N_1   0.699994 0.801943 0.080870 -0.216328
O1    O     O_R   0.431050 0.692470 0.506940 -0.547257
O2    O     O_3   0.385922 0.867963 0.408028 -0.570538
O3    O     O_3   0.875051 0.552885 0.591789 -0.630078
O4    O     O_3   0.456410 0.742043 0.939597 -0.647637
O5    O     O_3   0.895557 0.422989 0.383925 -0.568733
O6    O     O_3   0.719007 0.425581 0.924099 -0.630292
O7    O     O_3   0.749911 0.639759 0.893980 -0.630369
O8    O     O_3   0.319933 0.347369 0.940662 -0.615749
O9    O     O_R   0.651130 0.659650 0.484820 -0.619976
O10   O     O_R   0.389910 0.516410 0.633920 -0.606853
O11   O     O_R   0.609990 0.483590 0.611800 -0.574586
O12   O     O_R   0.348870 0.340350 0.515180 -0.614062
O13   O     O_R   0.568950 0.307530 0.493060 -0.625227
O14   O     O_R   0.390010 0.516410 0.388200 -0.592198
O15   O     O_R   0.610090 0.483590 0.366080 -0.597528
O16   O     O_3   0.567408 0.293650 0.061559 -0.573595
Zn1   Zn    Zn3+2 0.353060 0.521920 0.514770 0.981853
Zn2   Zn    Zn3+2 0.646940 0.478080 0.485230 0.995737

loop_
_geom_bond_atom_site_label_1
_geom_bond_atom_site_label_2
_ccdc_geom_bond_type
C30   H30   S    
N1    O5    S    
C22   O4    S    
C14   C31   T    
C26   H21   S    
C6    O3    S    
C12   C23   S    
O10   Zn1   S    
C23   C29   S    
C11   O6    S    
C18   H3    S    
C25   H19   S    
C10   C15   S    
C1    O9    A    
C26   H20   S    
C13   C23   S    
C8    O13   A    
C29   O16   S    
C7    N2    D    
C21   H9    S    
C11   C15   S    
C22   H10   S    
C12   C17   S    
C20   N5    T    
C2    O2    S    
C30   O8    S    
C2    C34   D    
C22   H13   S    
C17   N4    T    
C10   O4    S    
C10   C12   S    
C1    C34   S    
C28   H26   S    
C24   H16   S    
C25   O6    S    
C24   H14   S    
C15   C32   S    
C3    C8    S    
N1    Zn2   S    
C18   O16   S    
C23   C31   S    
C9    C14   S    
C25   H17   S    
C29   C30   S    
C19   H4    S    
C9    O14   A    
C13   H29   S    
N2    Zn1   S    
C12   H1    S    
C11   O7    S    
C29   H31   S    
O9    Zn2   S    
C3    H23   S    
C6    N1    D    
C21   H7    S    
C2    C5    S    
O12   Zn1   S    
C15   C30   S    
C28   H25   S    
C24   H15   S    
O11   Zn2   S    
C4    C33   S    
C8    O12   A    
C19   O2    S    
C16   N3    T    
C3    C5    D    
O14   Zn1   S    
C26   H22   S    
O13   Zn2   S    
C6    C7    S    
C28   H24   S    
C18   H32   S    
C5    H12   S    
C21   O3    S    
C26   O7    S    
H28   N2    S    
C1    O1    A    
C32   C33   T    
C25   H18   S    
O1    Zn1   S    
C10   C16   S    
C9    O15   A    
C11   C13   S    
C4    O11   A    
C34   H27   S    
C28   O8    S    
C19   H6    S    
C21   H8    S    
C24   O5    S    
C22   H11   S    
C4    O10   A    
C19   H5    S    
C7    C20   S    
O15   Zn2   S    
C13   C27   S    
C18   H2    S    
C27   N6    T    
