data_mof_unit_9878.cif
_audit_creation_date              2012-12-10T18:53:27-0500
_audit_creation_method            fapswitch 2.2
_symmetry_space_group_name_H-M    P1
_symmetry_Int_Tables_number       1
_space_group_crystal_system       triclinic
_cell_length_a                    30.128801
_cell_length_b                    30.120282
_cell_length_c                    21.978957
_cell_angle_alpha                 89.640368
_cell_angle_beta                  89.933655
_cell_angle_gamma                 90.116833
_cell_volume                      19945.1913032

loop_
_atom_site_label
_atom_site_type_symbol
_atom_type_description
_atom_site_fract_x
_atom_site_fract_y
_atom_site_fract_z
_atom_type_partial_charge
C1    C     C_R   0.500012 0.086351 0.001240 1.021233
C2    C     C_R   0.226340 0.501215 0.002602 -0.057248
C3    C     C_R   0.094744 0.580836 0.221529 0.299092
C4    C     C_R   0.443847 0.888838 0.784844 0.283965
C5    C     C_R   0.100547 0.426188 0.778473 0.291571
C6    C     C_R   0.548128 0.112792 0.782581 0.281491
C7    C     C_R   0.885227 0.543078 0.785208 0.268875
C8    C     C_R   0.087445 0.410592 0.723576 0.297891
C9    C     C_R   0.430944 0.894093 0.725792 0.257821
C10   C     C_R   0.889515 0.558983 0.726951 0.208964
C11   C     C_R   0.564943 0.106729 0.725333 0.202729
C12   C     C_R   0.947270 0.387892 0.286300 0.272199
C13   C     C_R   0.501879 0.774056 0.003873 -0.062606
C14   C     C_R   0.612639 0.948620 0.283542 0.291987
C15   C     C_R   0.079444 0.596006 0.275556 0.301854
C16   C     C_R   0.385503 0.043337 0.284257 0.279995
C17   C     C_R   0.536771 0.978983 0.283337 -0.183859
C18   C     C_R   0.979322 0.463253 0.283973 -0.177464
C19   C     C_R   0.463137 0.018572 0.283427 -0.182121
C20   C     C_R   0.029142 0.531019 0.281870 -0.156549
C21   C     C_R   0.475901 0.963978 0.718660 -0.139361
C22   C     C_R   0.030297 0.469671 0.717875 -0.144883
C23   C     C_R   0.522492 0.035582 0.718341 -0.142041
C24   C     C_R   0.773819 0.499183 0.009333 -0.060390
C25   C     C_R   0.962417 0.520168 0.718977 -0.140723
C26   C     C_R   0.032829 0.472355 0.782691 -0.158626
C27   C     C_R   0.477701 0.963561 0.783486 -0.176688
C28   C     C_R   0.962694 0.517919 0.783728 -0.180246
C29   C     C_R   0.519957 0.036103 0.783027 -0.181936
C30   C     C_R   0.977547 0.462950 0.219134 -0.146831
C31   C     C_R   0.535979 0.976472 0.218614 -0.136361
C32   C     C_R   0.031692 0.528103 0.217074 -0.149319
C33   C     C_R   0.463401 0.021058 0.218766 -0.139798
C34   C     C_R   0.500426 0.999663 0.314262 -0.067174
C35   C     C_R   0.999292 0.725916 0.507198 -0.063455
C36   C     C_R   0.001698 0.499264 0.313972 -0.064722
C37   C     C_R   0.499597 0.999645 0.686702 -0.068366
C38   C     C_R   0.998032 0.497407 0.686669 -0.070088
C39   C     C_R   0.999909 0.498187 0.814124 -0.065139
C40   C     C_R   0.499461 0.999506 0.814183 -0.067054
C41   C     C_R   0.002186 0.497443 0.186501 -0.066201
C42   C     C_R   0.499874 0.999257 0.186791 -0.068941
C43   C     C_R   0.537481 0.204282 0.988923 0.402630
C44   C     C_R   0.203940 0.460531 0.996279 0.428966
C45   C     C_R   0.465400 0.795917 0.977691 0.441693
C46   C     C_R   0.726232 0.000550 0.507653 -0.059756
C47   C     C_R   0.795961 0.539173 0.996112 0.414030
C48   C     C_R   0.461138 0.202641 0.027923 0.467133
C49   C     C_R   0.796777 0.459653 0.022209 0.461807
C50   C     C_R   0.537038 0.797412 0.030855 0.463260
C51   C     C_R   0.203291 0.541464 0.007897 0.423808
C52   C     C_R   0.037158 0.704206 0.484983 0.448729
C53   C     C_R   0.703894 0.960819 0.494546 0.404559
C54   C     C_R   0.962300 0.296425 0.478766 0.452121
C55   C     C_R   0.295563 0.036258 0.488878 0.402639
C56   C     C_R   0.962183 0.702438 0.529072 0.464762
C57   C     C_R   0.000977 0.273998 0.496742 -0.074954
C58   C     C_R   0.297425 0.960591 0.530795 0.465907
C59   C     C_R   0.039454 0.296623 0.514975 0.449544
C60   C     C_R   0.703150 0.039832 0.520309 0.431593
C61   C     C_R   0.537271 0.158271 0.985551 -0.267293
C62   C     C_R   0.157754 0.460649 0.993928 -0.334737
C63   C     C_R   0.465714 0.842159 0.975608 -0.311282
C64   C     C_R   0.842131 0.538472 0.991179 -0.284798
C65   C     C_R   0.462620 0.156256 0.027501 -0.328840
C66   C     C_R   0.843196 0.460845 0.021663 -0.327402
C67   C     C_R   0.535062 0.843654 0.031780 -0.333864
C68   C     C_R   0.273847 0.997847 0.509837 -0.065501
C69   C     C_R   0.157110 0.540461 0.008993 -0.331876
C70   C     C_R   0.036247 0.658061 0.480887 -0.336046
C71   C     C_R   0.657798 0.961224 0.491128 -0.275433
C72   C     C_R   0.962908 0.342747 0.478226 -0.286118
C73   C     C_R   0.341598 0.036358 0.485242 -0.264319
C74   C     C_R   0.963746 0.656135 0.529280 -0.323546
C75   C     C_R   0.343813 0.962412 0.529890 -0.335968
C76   C     C_R   0.037851 0.342748 0.518793 -0.339980
C77   C     C_R   0.656944 0.039144 0.519293 -0.321988
C78   C     C_R   0.499912 0.134339 0.004431 -0.156060
C79   C     C_R   0.521194 0.297396 0.051907 -0.248343
C80   C     C_R   0.134442 0.500350 0.001087 -0.147144
C81   C     C_R   0.500193 0.865782 0.002804 -0.155445
C82   C     C_R   0.865563 0.499626 0.004098 -0.141398
C83   C     C_R   0.999969 0.634234 0.503490 -0.149058
C84   C     C_R   0.634395 0.000204 0.503481 -0.145526
C85   C     C_R   0.000121 0.365650 0.499370 -0.161320
C86   C     C_R   0.365635 0.999474 0.505158 -0.151656
C87   C     C_3   0.375593 0.133655 0.216343 0.116931
C88   C     C_3   0.343547 0.167205 0.188261 -0.337917
C89   C     C_3   0.359090 0.214762 0.198992 -0.971991
C90   C     C_R   0.297063 0.478168 0.047731 -0.221075
C91   C     C_3   0.163734 0.561168 0.189625 0.079283
C92   C     C_3   0.210541 0.578830 0.178132 -0.307583
C93   C     C_3   0.243412 0.540730 0.170944 -0.924662
C94   C     C_3   0.613519 0.859402 0.198308 0.145660
C95   C     C_3   0.634430 0.825456 0.241429 -0.349440
C96   C     C_3   0.612357 0.780028 0.235468 -0.958442
C97   C     C_3   0.860273 0.380087 0.212007 0.107962
C98   C     C_3   0.826794 0.348429 0.183232 -0.347503
C99   C     C_3   0.779518 0.365985 0.188982 -0.948681
C100  C     C_3   0.530725 0.186587 0.784581 0.104165
C101  C     C_R   0.482547 0.703023 0.050873 -0.227108
C102  C     C_3   0.527593 0.226383 0.827052 -0.290038
C103  C     C_3   0.503986 0.265316 0.796369 -1.000390
C104  C     C_3   0.814078 0.519219 0.796614 0.119969
C105  C     C_3   0.769387 0.529591 0.826011 -0.310751
C106  C     C_3   0.732892 0.499295 0.801656 -0.983966
C107  C     C_3   0.460116 0.815897 0.804839 0.167872
C108  C     C_3   0.433025 0.773814 0.793418 -0.301405
C109  C     C_3   0.462681 0.732903 0.789966 -0.944976
C110  C     C_3   0.167026 0.449190 0.815635 0.088144
C111  C     C_3   0.215029 0.434460 0.824431 -0.305760
C112  C     C_R   0.086387 0.500063 0.000233 1.020989
C113  C     C_R   0.702174 0.520917 0.052658 -0.207033
C114  C     C_3   0.245259 0.474502 0.833527 -0.936194
C115  C     C_3   0.872634 0.632083 0.716399 0.119295
C116  C     C_3   0.839843 0.664763 0.687982 -0.337808
C117  C     C_3   0.854277 0.712711 0.698395 -0.977339
C118  C     C_3   0.639310 0.116182 0.713398 0.109259
C119  C     C_3   0.674637 0.144204 0.681145 -0.340863
C120  C     C_3   0.720827 0.124384 0.689729 -0.922776
C121  C     C_3   0.073512 0.339326 0.696292 0.082605
C122  C     C_3   0.095252 0.294038 0.687812 -0.316809
C123  C     C_3   0.060441 0.257157 0.685213 -0.905188
C124  C     C_R   0.477656 0.295720 0.959231 -0.259344
C125  C     C_3   0.358410 0.884471 0.695910 0.140687
C126  C     C_3   0.326122 0.865648 0.743164 -0.351889
C127  C     C_3   0.279851 0.885401 0.735436 -0.960465
C128  C     C_3   0.060224 0.665694 0.304475 0.084902
C129  C     C_3   0.078604 0.712855 0.308699 -0.308102
C130  C     C_3   0.041320 0.746657 0.315928 -0.901170
C131  C     C_3   0.312290 0.023534 0.288947 0.100823
C132  C     C_3   0.271427 0.023296 0.330068 -0.288306
C133  C     C_3   0.232283 0.999889 0.299965 -0.994495
C134  C     C_3   0.963062 0.314236 0.303389 0.172082
C135  C     C_R   0.704366 0.478405 0.959307 -0.257480
C136  C     C_3   0.934285 0.273024 0.293715 -0.307661
C137  C     C_3   0.962492 0.232337 0.279674 -0.972965
C138  C     C_3   0.686827 0.964502 0.287973 0.101247
C139  C     C_3   0.726048 0.965724 0.331907 -0.292896
C140  C     C_3   0.766378 0.988322 0.303129 -0.993441
C141  C     C_3   0.611854 0.945606 0.097553 0.213666
C142  C     C_3   0.636177 0.989537 0.113524 -0.398262
C143  C     C_3   0.668912 0.002970 0.063589 -0.987624
C144  C     C_3   0.944135 0.388132 0.098123 0.228988
C145  C     C_3   0.987753 0.362964 0.112983 -0.401327
C146  C     C_R   0.522224 0.704180 0.954791 -0.295666
C147  C     C_3   0.000517 0.331451 0.061759 -0.993219
C148  C     C_3   0.388043 0.055868 0.097018 0.228989
C149  C     C_3   0.363155 0.011330 0.108455 -0.392480
C150  C     C_3   0.333558 0.999281 0.054697 -0.993641
C151  C     C_3   0.068203 0.604318 0.103087 0.201640
C152  C     C_3   0.026000 0.629828 0.122711 -0.389833
C153  C     C_3   0.030980 0.679480 0.110200 -1.005825
C154  C     C_3   0.399056 0.929337 0.885728 0.171497
C155  C     C_3   0.374757 0.965650 0.848524 -0.415790
C156  C     C_3   0.325644 0.967578 0.865333 -0.982908
C157  C     C_R   0.297043 0.524754 0.957279 -0.228818
C158  C     C_3   0.070314 0.397064 0.893641 0.194158
C159  C     C_3   0.028362 0.371700 0.872687 -0.394630
C160  C     C_3   0.034303 0.321661 0.880377 -1.011561
C161  C     C_3   0.596565 0.076642 0.883095 0.170962
C162  C     C_3   0.622878 0.039277 0.851480 -0.427102
C163  C     C_3   0.672472 0.043445 0.864417 -0.994466
C164  C     C_3   0.921883 0.594775 0.882141 0.170999
C165  C     C_3   0.957678 0.621458 0.847086 -0.426384
C166  C     C_3   0.953021 0.671126 0.858727 -0.988166
C167  C     C_3   0.105812 0.434480 0.601807 0.194976
C168  C     C_R   0.017844 0.797072 0.553585 -0.227685
C169  C     C_3   0.133468 0.474333 0.625129 -0.407059
C170  C     C_3   0.175241 0.481157 0.586794 -0.980964
C171  C     C_3   0.446385 0.888060 0.597745 0.218821
C172  C     C_3   0.489787 0.863776 0.616278 -0.399260
C173  C     C_3   0.505190 0.832123 0.566606 -0.986496
C174  C     C_3   0.887604 0.555659 0.596976 0.227386
C175  C     C_3   0.863061 0.510777 0.606765 -0.389487
C176  C     C_3   0.833029 0.499921 0.552934 -0.994028
C177  C     C_3   0.557727 0.111115 0.596514 0.233513
C178  C     C_3   0.514015 0.136740 0.609194 -0.404194
C179  C     C_R   0.797527 0.977315 0.550208 -0.203164
C180  C     C_3   0.503750 0.169715 0.558089 -0.990988
C181  C     C_3   0.899583 0.428404 0.384486 0.168883
C182  C     C_3   0.875626 0.465768 0.348943 -0.421999
C183  C     C_3   0.825754 0.464606 0.361049 -0.990536
C184  C     C_3   0.575674 0.902619 0.386172 0.180960
C185  C     C_3   0.539207 0.876171 0.352633 -0.424654
C186  C     C_3   0.539974 0.827239 0.371067 -0.983497
C187  C     C_3   0.103937 0.568840 0.393804 0.187422
C188  C     C_3   0.129582 0.526899 0.373692 -0.386794
C189  C     C_3   0.179025 0.531484 0.387321 -1.004913
C190  C     C_R   0.982586 0.203800 0.547178 -0.254207
C191  C     C_3   0.421946 0.094954 0.381483 0.163267
C192  C     C_3   0.458446 0.121438 0.347551 -0.426848
C193  C     C_3   0.454021 0.171112 0.359355 -0.987507
C194  C     C_3   0.609350 0.224182 0.007412 0.087451
C195  C     C_3   0.645379 0.257423 0.988935 -0.318829
C196  C     C_3   0.683798 0.257537 0.034092 -1.002284
C197  C     C_3   0.217726 0.389280 0.029562 0.076751
C198  C     C_3   0.252614 0.352625 0.026238 -0.325492
C199  C     C_3   0.245221 0.317162 0.075075 -0.984515
C200  C     C_3   0.389904 0.780592 0.970645 0.097508
C201  C     C_R   0.202406 0.020886 0.551960 -0.205340
C202  C     C_3   0.381569 0.756720 0.031397 -0.378030
C203  C     C_3   0.333007 0.759737 0.050573 -0.968056
C204  C     C_3   0.789813 0.615425 0.009805 0.083857
C205  C     C_3   0.753101 0.649207 0.021539 -0.331794
C206  C     C_3   0.771655 0.691606 0.049498 -0.978969
C207  C     C_3   0.384540 0.214641 0.028753 0.085072
C208  C     C_3   0.378212 0.236465 0.966194 -0.378697
C209  C     C_3   0.330937 0.230233 0.942959 -0.961625
C210  C     C_3   0.786357 0.382548 0.014709 0.093118
C211  C     C_3   0.773872 0.380769 0.947092 -0.386204
C212  C     C_R   0.979776 0.795713 0.456473 -0.255443
C213  C     C_3   0.787375 0.336641 0.918957 -0.957642
C214  C     C_3   0.612698 0.784287 0.038525 0.080092
C215  C     C_3   0.621760 0.758543 0.979908 -0.371386
C216  C     C_3   0.669370 0.765126 0.958010 -0.966773
C217  C     C_3   0.215550 0.612574 0.972713 0.075773
C218  C     C_3   0.250866 0.649026 0.972514 -0.329689
C219  C     C_3   0.242277 0.683507 0.922805 -0.983382
C220  C     C_3   0.113205 0.717960 0.486621 0.081837
C221  C     C_3   0.118887 0.739808 0.548891 -0.362702
C222  C     C_3   0.165759 0.733340 0.573496 -0.964724
C223  C     C_R   0.499999 0.913699 0.000879 1.014371
C224  C     C_R   0.204289 0.975258 0.461513 -0.266117
C225  C     C_3   0.719831 0.888911 0.520948 0.085636
C226  C     C_3   0.754650 0.852704 0.512035 -0.322197
C227  C     C_3   0.750016 0.815852 0.559582 -0.987033
C228  C     C_3   0.885604 0.284196 0.482264 0.092106
C229  C     C_3   0.882559 0.270431 0.549505 -0.383580
C230  C     C_3   0.836831 0.280530 0.575797 -0.958034
C231  C     C_3   0.277105 0.108990 0.503544 0.089398
C232  C     C_3   0.243081 0.144266 0.485718 -0.320807
C233  C     C_3   0.246765 0.185197 0.525962 -0.987020
C234  C     C_3   0.885808 0.714302 0.529529 0.084961
C235  C     C_R   0.018606 0.203410 0.448389 -0.236766
C236  C     C_3   0.880623 0.734194 0.465512 -0.378514
C237  C     C_3   0.834096 0.726277 0.440501 -0.961357
C238  C     C_3   0.284942 0.884138 0.536216 0.073026
C239  C     C_3   0.258475 0.874979 0.478160 -0.361011
C240  C     C_3   0.262639 0.826656 0.458659 -0.967837
C241  C     C_3   0.115549 0.285261 0.504880 0.084753
C242  C     C_3   0.117143 0.266870 0.440022 -0.368798
C243  C     C_3   0.161177 0.277766 0.408988 -0.962093
C244  C     C_3   0.720086 0.112237 0.497117 0.084911
C245  C     C_3   0.754669 0.148233 0.509598 -0.319987
C246  C     C_R   0.796029 0.024508 0.460343 -0.278795
C247  C     C_3   0.754031 0.184455 0.460782 -1.001908
C248  C     C_3   0.594362 0.357871 0.080899 0.062208
C249  C     C_3   0.622096 0.395063 0.108761 -0.323204
C250  C     C_3   0.671409 0.389114 0.095079 -0.926842
C251  C     C_3   0.376390 0.410570 0.069731 0.080022
C252  C     C_3   0.372112 0.376217 0.120799 -0.336769
C253  C     C_3   0.384546 0.329903 0.098735 -0.925684
C254  C     C_3   0.413261 0.625364 0.073911 0.075000
C255  C     C_3   0.380145 0.633352 0.125282 -0.321649
C256  C     C_3   0.332573 0.626100 0.103653 -0.966624
C257  C     C_R   0.523842 0.343453 0.048139 0.411643
C258  C     C_3   0.625134 0.589448 0.073072 0.089250
C259  C     C_3   0.605346 0.616587 0.124931 -0.319847
C260  C     C_3   0.599995 0.665313 0.106867 -0.917494
C261  C     C_3   0.412631 0.373738 0.926722 0.080668
C262  C     C_3   0.382331 0.374770 0.871146 -0.314304
C263  C     C_3   0.334676 0.385839 0.889133 -0.955520
C264  C     C_3   0.627908 0.415080 0.920903 0.089040
C265  C     C_3   0.604203 0.393845 0.866990 -0.300000
C266  C     C_3   0.595528 0.344526 0.878147 -0.947799
C267  C     C_3   0.590969 0.643107 0.912775 0.050299
C268  C     C_R   0.342959 0.476692 0.046785 0.413016
C269  C     C_3   0.615774 0.604597 0.883298 -0.308855
C270  C     C_3   0.665718 0.607949 0.894024 -0.949224
C271  C     C_3   0.375721 0.590247 0.930699 0.082265
C272  C     C_3   0.371984 0.623322 0.878053 -0.328584
C273  C     C_3   0.382639 0.670420 0.898723 -0.951886
C274  C     C_3   0.085457 0.876396 0.578103 0.083623
C275  C     C_3   0.115790 0.880041 0.633465 -0.326683
C276  C     C_3   0.163122 0.892319 0.614767 -0.923604
C277  C     C_3   0.877245 0.909129 0.567968 0.078896
C278  C     C_3   0.869700 0.873588 0.616733 -0.335141
C279  C     C_R   0.479764 0.657169 0.048719 0.407299
C280  C     C_3   0.882180 0.827644 0.593407 -0.923064
C281  C     C_3   0.916465 0.127116 0.581289 0.091164
C282  C     C_3   0.894296 0.102477 0.634180 -0.304673
C283  C     C_3   0.845089 0.094324 0.621767 -0.934679
C284  C     C_3   0.123737 0.091336 0.562643 0.090998
C285  C     C_3   0.137403 0.128858 0.605103 -0.345466
C286  C     C_3   0.125371 0.174077 0.578041 -0.936699
C287  C     C_3   0.915642 0.874333 0.421165 0.090653
C288  C     C_3   0.889081 0.884287 0.363588 -0.307813
C289  C     C_3   0.841483 0.897605 0.378884 -0.952983
C290  C     C_R   0.656296 0.523212 0.049103 0.400638
C291  C     C_3   0.126357 0.909376 0.434344 0.083550
C292  C     C_3   0.134560 0.875260 0.384528 -0.332536
C293  C     C_3   0.123430 0.828396 0.406776 -0.949409
C294  C     C_3   0.081991 0.124254 0.412762 0.095884
C295  C     C_3   0.104741 0.108213 0.354833 -0.301264
C296  C     C_3   0.152950 0.095333 0.366949 -0.952272
C297  C     C_3   0.856721 0.095071 0.422881 0.063548
C298  C     C_3   0.894740 0.121706 0.394470 -0.317868
C299  C     C_3   0.890636 0.171108 0.408389 -0.942208
C300  C     C_R   0.477627 0.341712 0.956486 0.394929
C301  C     C_R   0.658400 0.479027 0.955859 0.407195
C302  C     C_R   0.522764 0.657938 0.953983 0.416796
C303  C     C_R   0.913617 0.499908 0.001126 1.025743
C304  C     C_R   0.342941 0.524224 0.955844 0.405404
C305  C     C_R   0.020427 0.842968 0.550775 0.411125
C306  C     C_R   0.843372 0.975492 0.547429 0.401665
C307  C     C_R   0.980918 0.157792 0.547493 0.418587
C308  C     C_R   0.156621 0.023778 0.547864 0.416521
C309  C     C_R   0.979356 0.841747 0.454421 0.414827
C310  C     C_R   0.158316 0.975863 0.458218 0.405140
C311  C     C_R   0.019684 0.157434 0.449184 0.404034
C312  C     C_R   0.842229 0.024774 0.458220 0.400721
C313  C     C_R   0.500669 0.365828 0.001383 -0.274477
C314  C     C_R   0.000017 0.586315 0.500780 1.002636
C315  C     C_R   0.366160 0.499947 0.000623 -0.289889
C316  C     C_R   0.500315 0.634291 0.000306 -0.279745
C317  C     C_R   0.634117 0.501381 0.001113 -0.271930
C318  C     C_R   0.000341 0.865749 0.501441 -0.297647
C319  C     C_R   0.865947 0.999378 0.501215 -0.276688
C320  C     C_R   0.000404 0.134257 0.498892 -0.288487
C321  C     C_R   0.134164 0.000475 0.501366 -0.297134
C322  C     C_R   0.498400 0.273957 0.007411 0.108834
C323  C     C_R   0.274310 0.501635 0.002773 0.082844
C324  C     C_R   0.502793 0.726218 0.003525 0.105175
C325  C     C_R   0.586375 0.000059 0.500898 1.018697
C326  C     C_R   0.725891 0.498684 0.007871 0.103327
C327  C     C_R   0.998344 0.773774 0.506204 0.093963
C328  C     C_R   0.774126 0.001158 0.506411 0.099799
C329  C     C_R   0.000873 0.226189 0.497522 0.111504
C330  C     C_R   0.225957 0.996927 0.508783 0.094127
C331  C     C_R   0.586037 0.500590 0.000082 0.874014
C332  C     C_R   0.500519 0.413937 0.000214 0.885516
C333  C     C_R   0.414048 0.499806 0.000100 0.851529
C334  C     C_R   0.500097 0.586107 0.999934 0.879630
C335  C     C_R   0.086064 0.000372 0.500115 0.861827
C336  C     C_R   0.999988 0.413650 0.500175 1.031851
C337  C     C_R   0.000300 0.913910 0.500257 0.839267
C338  C     C_R   0.913976 0.999806 0.500175 0.895445
C339  C     C_R   0.000056 0.086086 0.499734 0.853677
C340  C     C_R   0.499965 0.999800 0.120437 0.989910
C341  C     C_R   0.999807 0.499477 0.120365 1.014727
C342  C     C_R   0.499922 0.999408 0.879988 1.055257
C343  C     C_R   0.001263 0.499793 0.879931 1.053187
C344  C     C_R   0.999633 0.499870 0.620412 1.007823
C345  C     C_R   0.499881 0.999869 0.620409 0.992729
C346  C     C_R   0.000272 0.500799 0.379854 1.045535
C347  C     C_R   0.413638 0.999899 0.501487 1.024901
C348  C     C_R   0.500572 0.000015 0.380013 1.061222
C349  C     C_R   0.571351 0.949815 0.190076 0.312622
C350  C     C_R   0.950458 0.427760 0.191035 0.314889
C351  C     C_R   0.426973 0.046592 0.190487 0.331150
C352  C     C_R   0.065597 0.555326 0.186551 0.262344
C353  C     C_R   0.457196 0.926499 0.815679 0.308749
C354  C     C_R   0.068837 0.448488 0.813141 0.256698
C355  C     C_R   0.537865 0.074402 0.814542 0.333691
C356  C     C_R   0.924452 0.534989 0.816015 0.330304
C357  C     C_R   0.059499 0.437389 0.688144 0.275556
C358  C     C_R   0.499009 0.226094 0.008602 -0.066597
C359  C     C_R   0.449147 0.928666 0.689976 0.299195
C360  C     C_R   0.926058 0.545838 0.690859 0.326285
C361  C     C_R   0.549249 0.071178 0.689614 0.325997
C362  C     C_R   0.958875 0.426339 0.316555 0.323236
C363  C     C_R   0.574709 0.960397 0.315199 0.324286
C364  C     C_R   0.054532 0.566480 0.311280 0.263721
C365  C     C_R   0.424535 0.035112 0.315424 0.334045
C366  C     C_R   0.606337 0.932779 0.225946 0.223251
C367  C     C_R   0.933719 0.392637 0.227273 0.232591
C368  C     C_R   0.390483 0.060029 0.226452 0.198635
H1    H     H_    0.566054 0.141479 0.967539 0.177417
H2    H     H_    0.640465 0.931335 0.477897 0.170143
H3    H     H_    0.729148 0.122196 0.738883 0.253440
H4    H     H_    0.745850 0.145826 0.666819 0.260044
H5    H     H_    0.722381 0.090699 0.669537 0.293808
H6    H     H_    0.052189 0.346492 0.656125 0.170497
H7    H     H_    0.052280 0.337534 0.737880 0.130034
H8    H     H_    0.114980 0.294203 0.645078 0.236391
H9    H     H_    0.118082 0.287338 0.726474 0.226990
H10   H     H_    0.041392 0.255689 0.728487 0.251621
H11   H     H_    0.076985 0.224684 0.678512 0.272987
H12   H     H_    0.037100 0.263025 0.646958 0.282548
H13   H     H_    0.935077 0.361091 0.460378 0.186409
H14   H     H_    0.345784 0.876272 0.649864 0.145005
H15   H     H_    0.358891 0.921504 0.698808 0.136144
H16   H     H_    0.324130 0.828982 0.738344 0.224783
H17   H     H_    0.338509 0.873166 0.789509 0.233522
H18   H     H_    0.281005 0.922027 0.740908 0.277045
H19   H     H_    0.257236 0.871259 0.770485 0.262009
H20   H     H_    0.266456 0.877407 0.689725 0.276789
H21   H     H_    0.041660 0.657610 0.346900 0.170710
H22   H     H_    0.036874 0.664679 0.265092 0.121260
H23   H     H_    0.101548 0.715119 0.348054 0.244112
H24   H     H_    0.358351 0.064961 0.466152 0.175239
H25   H     H_    0.097667 0.720835 0.266684 0.222118
H26   H     H_    0.019527 0.746482 0.275201 0.250098
H27   H     H_    0.055594 0.780419 0.321071 0.275638
H28   H     H_    0.021111 0.738715 0.356805 0.277285
H29   H     H_    0.323141 0.988496 0.282198 0.108121
H30   H     H_    0.302612 0.038154 0.244355 0.183914
H31   H     H_    0.279628 0.005731 0.373080 0.231667
H32   H     H_    0.261797 0.058004 0.340704 0.262930
H33   H     H_    0.223622 0.016594 0.256385 0.266346
H34   H     H_    0.202915 0.001137 0.330426 0.299968
H35   H     H_    0.937285 0.637087 0.550174 0.174942
H36   H     H_    0.240530 0.964579 0.291158 0.264714
H37   H     H_    0.986218 0.307987 0.341833 0.144885
H38   H     H_    0.983665 0.319850 0.261736 0.094023
H39   H     H_    0.914190 0.266388 0.335192 0.250996
H40   H     H_    0.911154 0.279071 0.255220 0.241978
H41   H     H_    0.982209 0.237975 0.237583 0.265857
H42   H     H_    0.940578 0.203119 0.272776 0.272175
H43   H     H_    0.985293 0.225067 0.318063 0.275241
H44   H     H_    0.676933 0.999452 0.277607 0.103283
H45   H     H_    0.697701 0.948094 0.245321 0.186289
H46   H     H_    0.363023 0.935771 0.549874 0.173732
H47   H     H_    0.716289 0.984369 0.373175 0.232958
H48   H     H_    0.735100 0.931316 0.345544 0.257255
H49   H     H_    0.776883 0.970313 0.261612 0.267280
H50   H     H_    0.794377 0.988186 0.335886 0.293785
H51   H     H_    0.758482 0.023279 0.291023 0.263388
H52   H     H_    0.604325 0.947059 0.048535 0.177026
H53   H     H_    0.634977 0.917191 0.100740 0.128445
H54   H     H_    0.612429 0.017150 0.120039 0.239985
H55   H     H_    0.655176 0.985431 0.156366 0.199579
H56   H     H_    0.693474 0.976092 0.056095 0.264989
H57   H     H_    0.065547 0.360797 0.537740 0.171387
H58   H     H_    0.686902 0.033532 0.077240 0.265955
H59   H     H_    0.650960 0.009862 0.020427 0.252517
H60   H     H_    0.945144 0.396123 0.049211 0.171151
H61   H     H_    0.915050 0.365703 0.101357 0.137063
H62   H     H_    0.015669 0.386353 0.120303 0.237268
H63   H     H_    0.983557 0.342891 0.155047 0.214992
H64   H     H_    0.973287 0.307355 0.053310 0.267051
H65   H     H_    0.030911 0.312836 0.074576 0.266100
H66   H     H_    0.007415 0.350551 0.019391 0.254478
H67   H     H_    0.396328 0.057061 0.048324 0.172120
H68   H     H_    0.638785 0.068767 0.531496 0.168636
H69   H     H_    0.365308 0.084499 0.101438 0.134388
H70   H     H_    0.386615 0.983611 0.116365 0.238220
H71   H     H_    0.341680 0.013943 0.149263 0.207482
H72   H     H_    0.309435 0.026330 0.045456 0.263726
H73   H     H_    0.314951 0.968300 0.065181 0.266437
H74   H     H_    0.354167 0.993669 0.013543 0.252240
H75   H     H_    0.068480 0.604790 0.052816 0.144154
H76   H     H_    0.098491 0.623254 0.114657 0.171174
H77   H     H_    0.996819 0.617737 0.096873 0.235368
H78   H     H_    0.018887 0.625358 0.171853 0.200861
H79   H     H_    0.537615 0.279878 0.088687 0.140012
H80   H     H_    0.058728 0.693319 0.137467 0.280170
H81   H     H_    0.999923 0.696847 0.123126 0.270408
H82   H     H_    0.037489 0.685571 0.061088 0.259626
H83   H     H_    0.393181 0.936267 0.934595 0.161828
H84   H     H_    0.383397 0.896548 0.877764 0.149832
H85   H     H_    0.389821 0.998665 0.856895 0.249475
H86   H     H_    0.377102 0.958642 0.799117 0.203358
H87   H     H_    0.309517 0.934955 0.857346 0.271191
H88   H     H_    0.308827 0.993017 0.836818 0.274484
H89   H     H_    0.321580 0.976657 0.913867 0.263910
H90   H     H_    0.279176 0.460513 0.083197 0.155392
H91   H     H_    0.070836 0.395060 0.943920 0.144442
H92   H     H_    0.100713 0.379030 0.880237 0.175798
H93   H     H_    0.999320 0.381902 0.900321 0.235204
H94   H     H_    0.020666 0.378509 0.824200 0.206674
H95   H     H_    0.061724 0.309763 0.850871 0.278017
H96   H     H_    0.003265 0.304335 0.867063 0.273152
H97   H     H_    0.041922 0.313244 0.928498 0.267609
H98   H     H_    0.603680 0.074157 0.932486 0.158240
H99   H     H_    0.609724 0.109558 0.868884 0.161111
H100  H     H_    0.611644 0.006272 0.867905 0.254112
H101  H     H_    0.467447 0.720630 0.088404 0.153472
H102  H     H_    0.618008 0.040704 0.801466 0.198002
H103  H     H_    0.685276 0.075952 0.847885 0.261980
H104  H     H_    0.690643 0.016597 0.840651 0.275998
H105  H     H_    0.678859 0.040386 0.914026 0.265402
H106  H     H_    0.925557 0.602915 0.931005 0.157323
H107  H     H_    0.888270 0.606650 0.869513 0.155662
H108  H     H_    0.991330 0.610956 0.861454 0.252750
H109  H     H_    0.954647 0.615962 0.797373 0.199647
H110  H     H_    0.919853 0.682972 0.843827 0.261693
H111  H     H_    0.978829 0.689533 0.832681 0.277392
H112  H     H_    0.140175 0.429958 0.985562 0.166615
H113  H     H_    0.719369 0.537213 0.089645 0.155933
H114  H     H_    0.957375 0.678244 0.907893 0.262017
H115  H     H_    0.103640 0.438420 0.551974 0.169227
H116  H     H_    0.124533 0.403129 0.607539 0.153199
H117  H     H_    0.113833 0.505383 0.623808 0.244120
H118  H     H_    0.144018 0.468437 0.672755 0.205934
H119  H     H_    0.195980 0.450708 0.587689 0.270733
H120  H     H_    0.194949 0.509122 0.605452 0.269068
H121  H     H_    0.166242 0.489237 0.538988 0.252894
H122  H     H_    0.449138 0.895773 0.548803 0.177532
H123  H     H_    0.417796 0.864935 0.599402 0.126888
H124  H     H_    0.461239 0.276993 0.923896 0.154634
H125  H     H_    0.516966 0.887683 0.625426 0.237334
H126  H     H_    0.484149 0.843941 0.658251 0.211011
H127  H     H_    0.478688 0.807641 0.556186 0.264977
H128  H     H_    0.535169 0.813955 0.582194 0.266643
H129  H     H_    0.513763 0.851061 0.524671 0.250775
H130  H     H_    0.896172 0.557700 0.548414 0.171885
H131  H     H_    0.864641 0.584038 0.601923 0.134707
H132  H     H_    0.886677 0.482994 0.613055 0.238095
H133  H     H_    0.841958 0.512309 0.647985 0.209260
H134  H     H_    0.808598 0.526987 0.545537 0.265242
H135  H     H_    0.723301 0.462380 0.923895 0.154422
H136  H     H_    0.814758 0.468545 0.562226 0.264811
H137  H     H_    0.853190 0.495568 0.511044 0.253460
H138  H     H_    0.557903 0.103663 0.547619 0.169268
H139  H     H_    0.586923 0.133222 0.600861 0.139111
H140  H     H_    0.485422 0.113798 0.614002 0.240072
H141  H     H_    0.516835 0.155788 0.651996 0.203948
H142  H     H_    0.531696 0.193478 0.552210 0.265192
H143  H     H_    0.473275 0.188618 0.569470 0.266825
H144  H     H_    0.498060 0.151871 0.514682 0.253594
H145  H     H_    0.892560 0.433394 0.433547 0.156718
H146  H     H_    0.537361 0.722825 0.917933 0.137167
H147  H     H_    0.884498 0.395813 0.373440 0.156305
H148  H     H_    0.888560 0.498721 0.362548 0.251124
H149  H     H_    0.880800 0.461990 0.299223 0.199888
H150  H     H_    0.811503 0.432402 0.346210 0.262184
H151  H     H_    0.809346 0.491749 0.335160 0.276314
H152  H     H_    0.818902 0.469242 0.410252 0.266392
H153  H     H_    0.571208 0.896308 0.435541 0.159469
H154  H     H_    0.608836 0.888872 0.375193 0.160262
H155  H     H_    0.505893 0.889622 0.363140 0.252963
H156  H     H_    0.544272 0.878363 0.302738 0.202763
H157  H     H_    0.279256 0.543434 0.922896 0.160103
H158  H     H_    0.573048 0.812588 0.361768 0.271837
H159  H     H_    0.514642 0.808774 0.344627 0.274647
H160  H     H_    0.532306 0.823478 0.420242 0.261840
H161  H     H_    0.104478 0.568834 0.444104 0.149689
H162  H     H_    0.122663 0.599284 0.381775 0.169413
H163  H     H_    0.117053 0.497262 0.398535 0.236345
H164  H     H_    0.125854 0.520798 0.324286 0.201501
H165  H     H_    0.193388 0.559673 0.361001 0.280465
H166  H     H_    0.196495 0.500590 0.374043 0.270761
H167  H     H_    0.184344 0.537101 0.436686 0.259648
H168  H     H_    0.032238 0.779534 0.591933 0.153813
H169  H     H_    0.424901 0.103041 0.430470 0.160666
H170  H     H_    0.388607 0.107010 0.367805 0.156817
H171  H     H_    0.491813 0.110718 0.362782 0.253949
H172  H     H_    0.456113 0.116047 0.297748 0.199597
H173  H     H_    0.421142 0.183286 0.343787 0.262065
H174  H     H_    0.480290 0.189391 0.334019 0.276563
H175  H     H_    0.457828 0.178056 0.408655 0.264635
H176  H     H_    0.623440 0.190094 0.005167 0.133772
H177  H     H_    0.599006 0.231277 0.055119 0.123880
H178  H     H_    0.658125 0.249013 0.942955 0.224982
H179  H     H_    0.780135 0.959522 0.586024 0.150100
H180  H     H_    0.630899 0.291207 0.986837 0.217191
H181  H     H_    0.671820 0.266806 0.080107 0.260033
H182  H     H_    0.709093 0.282223 0.019332 0.264058
H183  H     H_    0.699505 0.224237 0.036253 0.269157
H184  H     H_    0.184708 0.374266 0.020179 0.137234
H185  H     H_    0.217938 0.403394 0.076393 0.127431
H186  H     H_    0.251411 0.336880 0.980661 0.223255
H187  H     H_    0.286016 0.367353 0.032521 0.224875
H188  H     H_    0.247430 0.332056 0.121085 0.265547
H189  H     H_    0.271161 0.291187 0.071104 0.262381
H190  H     H_    0.968905 0.222078 0.585118 0.147016
H191  H     H_    0.212139 0.301400 0.069367 0.266577
H192  H     H_    0.365774 0.767895 0.936743 0.164081
H193  H     H_    0.382846 0.816621 0.974946 0.119434
H194  H     H_    0.390576 0.721262 0.026939 0.232396
H195  H     H_    0.402604 0.771744 0.067320 0.210528
H196  H     H_    0.323021 0.795010 0.055509 0.267186
H197  H     H_    0.328354 0.742518 0.094953 0.271005
H198  H     H_    0.311415 0.743489 0.016328 0.262443
H199  H     H_    0.814392 0.630347 0.977843 0.145536
H200  H     H_    0.806238 0.607969 0.054238 0.128573
H201  H     H_    0.219703 0.038492 0.587688 0.148504
H202  H     H_    0.736090 0.657570 0.978123 0.231181
H203  H     H_    0.728460 0.634477 0.053387 0.213624
H204  H     H_    0.789439 0.683920 0.092528 0.265056
H205  H     H_    0.744039 0.714657 0.059947 0.260465
H206  H     H_    0.794829 0.708220 0.017230 0.266422
H207  H     H_    0.358638 0.227758 0.059779 0.175957
H208  H     H_    0.378443 0.178358 0.026233 0.113861
H209  H     H_    0.385117 0.272529 0.969611 0.228582
H210  H     H_    0.401681 0.221653 0.933031 0.210583
H211  H     H_    0.323067 0.194336 0.938795 0.265290
H212  H     H_    0.965049 0.777109 0.419611 0.147805
H213  H     H_    0.327627 0.246162 0.897493 0.268397
H214  H     H_    0.306859 0.245948 0.974475 0.262627
H215  H     H_    0.768424 0.355199 0.038438 0.170208
H216  H     H_    0.822037 0.375267 0.021637 0.117385
H217  H     H_    0.737431 0.384702 0.942444 0.216545
H218  H     H_    0.790581 0.408116 0.921714 0.214457
H219  H     H_    0.823880 0.332107 0.922196 0.263357
H220  H     H_    0.777727 0.336296 0.870219 0.266350
H221  H     H_    0.770416 0.308657 0.942600 0.262101
H222  H     H_    0.637263 0.773654 0.073309 0.161194
H223  H     H_    0.439806 0.859665 0.951623 0.199853
H224  H     H_    0.223007 0.957689 0.427269 0.154546
H225  H     H_    0.618503 0.820376 0.031073 0.114394
H226  H     H_    0.615926 0.722652 0.988347 0.222599
H227  H     H_    0.598882 0.770121 0.943584 0.206075
H228  H     H_    0.675734 0.800759 0.947931 0.266052
H229  H     H_    0.674813 0.745696 0.915889 0.262748
H230  H     H_    0.693098 0.753448 0.993158 0.266342
H231  H     H_    0.182987 0.627987 0.983459 0.137288
H232  H     H_    0.214243 0.597585 0.926409 0.127140
H233  H     H_    0.251168 0.665722 0.017467 0.226024
H234  H     H_    0.283897 0.633933 0.964720 0.225116
H235  H     H_    0.032108 0.221365 0.409736 0.138500
H236  H     H_    0.242774 0.667625 0.877330 0.265691
H237  H     H_    0.268619 0.709324 0.924003 0.262093
H238  H     H_    0.209608 0.699676 0.930024 0.267089
H239  H     H_    0.139426 0.730985 0.455707 0.166506
H240  H     H_    0.119105 0.681650 0.490161 0.120416
H241  H     H_    0.112295 0.775865 0.544586 0.227547
H242  H     H_    0.094785 0.725201 0.581698 0.210919
H243  H     H_    0.173126 0.697410 0.578871 0.265556
H244  H     H_    0.168665 0.749512 0.618586 0.267302
H245  H     H_    0.190437 0.748653 0.542141 0.259261
H246  H     H_    0.777254 0.042375 0.426130 0.147142
H247  H     H_    0.686398 0.874172 0.513538 0.135111
H248  H     H_    0.722225 0.901204 0.568642 0.126630
H249  H     H_    0.751118 0.838297 0.465847 0.222785
H250  H     H_    0.788250 0.867524 0.515700 0.223462
H251  H     H_    0.754349 0.829493 0.606044 0.265310
H252  H     H_    0.775929 0.790330 0.551978 0.261856
H253  H     H_    0.716870 0.799863 0.556122 0.266793
H254  H     H_    0.859282 0.266130 0.457082 0.165443
H255  H     H_    0.877805 0.319909 0.476121 0.122880
H256  H     H_    0.888864 0.234304 0.553665 0.218306
H257  H     H_    0.408976 0.138676 0.195356 0.158723
H258  H     H_    0.907965 0.288446 0.576457 0.212551
H259  H     H_    0.829892 0.316683 0.572737 0.263810
H260  H     H_    0.835749 0.270237 0.624377 0.266719
H261  H     H_    0.810775 0.262003 0.550784 0.261936
H262  H     H_    0.310960 0.123115 0.497106 0.133802
H263  H     H_    0.272092 0.100264 0.552502 0.125825
H264  H     H_    0.248322 0.154224 0.437451 0.224515
H265  H     H_    0.209178 0.130141 0.490164 0.222208
H266  H     H_    0.240950 0.176075 0.574365 0.267044
H267  H     H_    0.221427 0.209950 0.512081 0.262673
H268  H     H_    0.377560 0.139842 0.266106 0.150806
H269  H     H_    0.280172 0.200504 0.521229 0.266234
H270  H     H_    0.859627 0.728660 0.559032 0.175195
H271  H     H_    0.879364 0.678002 0.529113 0.116196
H272  H     H_    0.886877 0.770452 0.467215 0.224785
H273  H     H_    0.905121 0.718943 0.434173 0.210288
H274  H     H_    0.827155 0.690113 0.437711 0.264804
H275  H     H_    0.831529 0.740965 0.394177 0.267734
H276  H     H_    0.808906 0.742154 0.470124 0.262131
H277  H     H_    0.275215 0.859152 0.571187 0.165234
H278  H     H_    0.320904 0.878919 0.527884 0.111892
H279  H     H_    0.341046 0.161377 0.138504 0.204588
H280  H     H_    0.222917 0.882421 0.486258 0.231991
H281  H     H_    0.270984 0.896652 0.440816 0.206132
H282  H     H_    0.297938 0.818327 0.449718 0.266262
H283  H     H_    0.243265 0.821356 0.416358 0.268084
H284  H     H_    0.249364 0.804218 0.494646 0.259513
H285  H     H_    0.143690 0.270811 0.530861 0.162637
H286  H     H_    0.121324 0.321674 0.504559 0.120229
H287  H     H_    0.112941 0.230298 0.441740 0.221907
H288  H     H_    0.089770 0.281358 0.412547 0.207692
H289  H     H_    0.165861 0.314300 0.405844 0.264167
H290  H     H_    0.310061 0.162664 0.208688 0.231656
H291  H     H_    0.161265 0.263896 0.362299 0.266457
H292  H     H_    0.189197 0.262977 0.434812 0.262124
H293  H     H_    0.686477 0.126938 0.502502 0.128160
H294  H     H_    0.724269 0.100615 0.449344 0.124436
H295  H     H_    0.748056 0.163353 0.554678 0.221424
H296  H     H_    0.788185 0.133089 0.510866 0.219649
H297  H     H_    0.761530 0.170138 0.415468 0.260679
H298  H     H_    0.779653 0.209821 0.471206 0.262923
H299  H     H_    0.721020 0.200780 0.459418 0.268714
H300  H     H_    0.602854 0.355877 0.031647 0.112045
H301  H     H_    0.361018 0.221598 0.248527 0.264233
H302  H     H_    0.603236 0.325907 0.103375 0.145285
H303  H     H_    0.611134 0.427487 0.089874 0.242335
H304  H     H_    0.616966 0.395415 0.158837 0.230717
H305  H     H_    0.683219 0.356742 0.113198 0.258042
H306  H     H_    0.690663 0.416187 0.116802 0.293274
H307  H     H_    0.677435 0.390481 0.045240 0.263811
H308  H     H_    0.411529 0.411694 0.054730 0.148670
H309  H     H_    0.355593 0.399378 0.030721 0.102677
H310  H     H_    0.394277 0.385578 0.159045 0.240279
H311  H     H_    0.337313 0.375650 0.137677 0.222850
H312  H     H_    0.335163 0.238275 0.177991 0.261556
H313  H     H_    0.361455 0.319126 0.062318 0.254470
H314  H     H_    0.382234 0.305922 0.137140 0.279213
H315  H     H_    0.419073 0.329679 0.080957 0.278514
H316  H     H_    0.411827 0.589808 0.061045 0.154572
H317  H     H_    0.402634 0.645540 0.033750 0.102211
H318  H     H_    0.387311 0.610343 0.163749 0.234921
H319  H     H_    0.383621 0.668041 0.141629 0.223575
H320  H     H_    0.324407 0.650291 0.067060 0.261731
H321  H     H_    0.309239 0.631167 0.142101 0.271073
H322  H     H_    0.328337 0.591848 0.086048 0.277574
H323  H     H_    0.392256 0.220245 0.178098 0.293500
H324  H     H_    0.600953 0.588893 0.034885 0.126216
H325  H     H_    0.656314 0.605913 0.057578 0.118821
H326  H     H_    0.572377 0.602645 0.137543 0.247658
H327  H     H_    0.627453 0.614455 0.165297 0.225507
H328  H     H_    0.632825 0.680324 0.096172 0.253746
H329  H     H_    0.584811 0.683917 0.145026 0.284238
H330  H     H_    0.578147 0.668438 0.066544 0.266582
H331  H     H_    0.413188 0.407382 0.946975 0.140952
H332  H     H_    0.398182 0.349861 0.960398 0.110168
H333  H     H_    0.394620 0.400114 0.838193 0.236720
H334  H     H_    0.859731 0.568128 0.977262 0.158644
H335  H     H_    0.153055 0.541825 0.149191 0.173724
H336  H     H_    0.382860 0.341780 0.848754 0.221252
H337  H     H_    0.321440 0.360131 0.920751 0.260265
H338  H     H_    0.313465 0.386668 0.847882 0.269781
H339  H     H_    0.333260 0.418763 0.911578 0.274865
H340  H     H_    0.605521 0.413091 0.961137 0.124881
H341  H     H_    0.658929 0.396248 0.930368 0.120568
H342  H     H_    0.572053 0.411000 0.859184 0.246259
H343  H     H_    0.624952 0.397744 0.825434 0.222471
H344  H     H_    0.627414 0.326523 0.883597 0.255693
H345  H     H_    0.577650 0.330422 0.838603 0.277961
H346  H     H_    0.164900 0.538705 0.230164 0.126319
H347  H     H_    0.574920 0.339578 0.919542 0.270750
H348  H     H_    0.602127 0.645501 0.961007 0.111798
H349  H     H_    0.599866 0.674457 0.888635 0.147467
H350  H     H_    0.603658 0.572748 0.902881 0.249082
H351  H     H_    0.609081 0.604534 0.833583 0.226684
H352  H     H_    0.678794 0.639871 0.875776 0.259699
H353  H     H_    0.682751 0.580223 0.870702 0.281900
H354  H     H_    0.673126 0.605559 0.943413 0.264649
H355  H     H_    0.410563 0.589894 0.946988 0.146194
H356  H     H_    0.354070 0.602063 0.968501 0.106930
H357  H     H_    0.210693 0.599636 0.136208 0.255671
H358  H     H_    0.395312 0.613807 0.841173 0.237818
H359  H     H_    0.337615 0.622514 0.859719 0.222629
H360  H     H_    0.359294 0.680659 0.935149 0.257673
H361  H     H_    0.378984 0.693698 0.859757 0.269800
H362  H     H_    0.417236 0.672436 0.915972 0.288112
H363  H     H_    0.084531 0.909198 0.554946 0.143269
H364  H     H_    0.100147 0.851628 0.546430 0.105640
H365  H     H_    0.102714 0.905833 0.664645 0.240309
H366  H     H_    0.116279 0.847720 0.658152 0.220777
H367  H     H_    0.177350 0.866199 0.585126 0.257456
H368  H     H_    0.221045 0.599828 0.216977 0.225475
H369  H     H_    0.184179 0.895341 0.655948 0.275753
H370  H     H_    0.163531 0.924572 0.590008 0.274154
H371  H     H_    0.913023 0.909688 0.556154 0.155473
H372  H     H_    0.858163 0.899504 0.526556 0.097712
H373  H     H_    0.890120 0.881348 0.657406 0.240395
H374  H     H_    0.834146 0.873448 0.630318 0.220928
H375  H     H_    0.860928 0.818625 0.554119 0.253210
H376  H     H_    0.877156 0.802644 0.630080 0.278232
H377  H     H_    0.917557 0.826984 0.579168 0.282103
H378  H     H_    0.914485 0.105710 0.540286 0.124777
H379  H     H_    0.245650 0.521252 0.213908 0.255384
H380  H     H_    0.898044 0.158504 0.572702 0.118102
H381  H     H_    0.911141 0.070073 0.641426 0.246796
H382  H     H_    0.897651 0.122387 0.676343 0.222243
H383  H     H_    0.827341 0.126406 0.616548 0.254556
H384  H     H_    0.830131 0.075695 0.660441 0.277572
H385  H     H_    0.840757 0.074548 0.579770 0.266150
H386  H     H_    0.087272 0.092692 0.556036 0.159548
H387  H     H_    0.139935 0.097424 0.517602 0.091738
H388  H     H_    0.120422 0.124693 0.649703 0.238008
H389  H     H_    0.173846 0.127439 0.612648 0.219188
H390  H     H_    0.276807 0.554035 0.159856 0.279340
H391  H     H_    0.141454 0.178706 0.532959 0.257680
H392  H     H_    0.137136 0.200775 0.608673 0.270626
H393  H     H_    0.088823 0.176970 0.572645 0.287804
H394  H     H_    0.916289 0.904831 0.449156 0.129308
H395  H     H_    0.898306 0.847324 0.446822 0.109782
H396  H     H_    0.905322 0.911767 0.337867 0.238284
H397  H     H_    0.888459 0.854310 0.334356 0.218800
H398  H     H_    0.824412 0.870360 0.403963 0.259338
H399  H     H_    0.822969 0.904368 0.336200 0.273875
H400  H     H_    0.841217 0.928052 0.407136 0.273840
H401  H     H_    0.232646 0.518442 0.133778 0.261844
H402  H     H_    0.090531 0.908991 0.446129 0.152183
H403  H     H_    0.145570 0.898854 0.475390 0.103752
H404  H     H_    0.113762 0.883354 0.344238 0.237756
H405  H     H_    0.170050 0.876524 0.370695 0.221111
H406  H     H_    0.144627 0.819357 0.446270 0.260742
H407  H     H_    0.129670 0.804293 0.369754 0.267956
H408  H     H_    0.087958 0.826154 0.420409 0.287468
H409  H     H_    0.082569 0.096669 0.446389 0.124585
H410  H     H_    0.101052 0.153025 0.430874 0.111860
H411  H     H_    0.086602 0.078911 0.336892 0.239180
H412  H     H_    0.618375 0.847930 0.150844 0.144559
H413  H     H_    0.103878 0.135037 0.319891 0.217521
H414  H     H_    0.171976 0.124483 0.383426 0.256014
H415  H     H_    0.168454 0.083495 0.324191 0.273869
H416  H     H_    0.154686 0.068307 0.401460 0.275452
H417  H     H_    0.854877 0.103731 0.472047 0.113804
H418  H     H_    0.825079 0.104756 0.400454 0.148260
H419  H     H_    0.926762 0.109467 0.412877 0.247169
H420  H     H_    0.894856 0.116903 0.344376 0.228019
H421  H     H_    0.859496 0.184669 0.388752 0.259140
H422  H     H_    0.919299 0.189189 0.388360 0.300069
H423  H     H_    0.576917 0.860374 0.206332 0.132972
H424  H     H_    0.890759 0.176621 0.458295 0.261460
H425  H     H_    0.670383 0.822332 0.230934 0.227381
H426  H     H_    0.435527 0.137086 0.046516 0.173399
H427  H     H_    0.631018 0.837150 0.289009 0.231043
H428  H     H_    0.576432 0.782277 0.246424 0.275566
H429  H     H_    0.628071 0.756243 0.267617 0.263986
H430  H     H_    0.616368 0.767283 0.188477 0.279240
H431  H     H_    0.857464 0.413036 0.188876 0.158535
H432  H     H_    0.852055 0.383720 0.261162 0.151627
H433  H     H_    0.834883 0.344196 0.134264 0.209445
H434  H     H_    0.828933 0.315450 0.206022 0.223443
H435  H     H_    0.770352 0.369634 0.237660 0.259473
H436  H     H_    0.756137 0.342280 0.167491 0.261232
H437  H     H_    0.862210 0.432369 0.036274 0.167903
H438  H     H_    0.776448 0.398669 0.165705 0.295205
H439  H     H_    0.496266 0.175784 0.773121 0.105902
H440  H     H_    0.548081 0.197346 0.742315 0.184786
H441  H     H_    0.508792 0.216565 0.868475 0.232251
H442  H     H_    0.561497 0.236992 0.840654 0.261688
H443  H     H_    0.522106 0.275741 0.754610 0.267416
H444  H     H_    0.502760 0.293918 0.827876 0.297131
H445  H     H_    0.469470 0.255875 0.784239 0.265571
H446  H     H_    0.824009 0.484780 0.809394 0.116602
H447  H     H_    0.809716 0.521301 0.746380 0.156732
H448  H     H_    0.560205 0.862378 0.055708 0.176620
H449  H     H_    0.771984 0.525022 0.875941 0.243110
H450  H     H_    0.760403 0.564725 0.816458 0.240652
H451  H     H_    0.728860 0.504295 0.751857 0.268975
H452  H     H_    0.700926 0.507153 0.824252 0.294901
H453  H     H_    0.741110 0.463956 0.810924 0.261307
H454  H     H_    0.481426 0.810927 0.845528 0.161227
H455  H     H_    0.482636 0.821429 0.765057 0.083548
H456  H     H_    0.408451 0.769081 0.830588 0.243887
H457  H     H_    0.414548 0.777515 0.749953 0.232660
H458  H     H_    0.487777 0.737033 0.753294 0.257855
H459  H     H_    0.139027 0.570912 0.016439 0.165119
H460  H     H_    0.442149 0.703199 0.779906 0.268874
H461  H     H_    0.479805 0.727445 0.834066 0.286724
H462  H     H_    0.155217 0.464996 0.858301 0.174449
H463  H     H_    0.166277 0.474268 0.778013 0.112680
H464  H     H_    0.217187 0.412129 0.864733 0.258326
H465  H     H_    0.226357 0.415815 0.783800 0.228402
H466  H     H_    0.247144 0.494574 0.791034 0.257436
H467  H     H_    0.279173 0.463376 0.845763 0.283090
H468  H     H_    0.232034 0.495547 0.870510 0.256255
H469  H     H_    0.905915 0.637853 0.695446 0.155697
H470  H     H_    0.063181 0.640783 0.458894 0.173270
H471  H     H_    0.874441 0.638523 0.766140 0.152366
H472  H     H_    0.837563 0.658729 0.638250 0.204024
H473  H     H_    0.806439 0.659523 0.708354 0.233190
H474  H     H_    0.855840 0.719821 0.747880 0.265522
H475  H     H_    0.829936 0.735593 0.676983 0.261824
H476  H     H_    0.887406 0.718832 0.677714 0.292035
H477  H     H_    0.640610 0.081915 0.694449 0.157497
H478  H     H_    0.647103 0.114976 0.762834 0.150208
H479  H     H_    0.667114 0.146011 0.631685 0.219471
H480  H     H_    0.674255 0.178445 0.699713 0.226139
O1    O     O_R   0.463050 0.065470 0.999990 -0.650030
O2    O     O_R   0.565470 0.036950 0.499990 -0.652467
O3    O     O_3   0.633498 0.545812 0.093937 -0.614377
O4    O     O_3   0.456131 0.362335 0.908473 -0.614102
O5    O     O_3   0.637711 0.459755 0.906458 -0.622067
O6    O     O_3   0.544709 0.635562 0.907996 -0.606730
O7    O     O_3   0.364492 0.547325 0.909887 -0.609243
O8    O     O_3   0.042101 0.864814 0.597401 -0.606376
O9    O     O_3   0.865525 0.951148 0.591475 -0.611460
O10   O     O_3   0.961143 0.136232 0.596299 -0.610816
O11   O     O_3   0.134457 0.049876 0.589611 -0.610510
O12   O     O_3   0.959492 0.862503 0.405147 -0.608570
O13   O     O_R   0.036950 0.434530 0.499990 -0.645852
O14   O     O_3   0.137638 0.952263 0.412452 -0.613493
O15   O     O_3   0.037627 0.135858 0.399488 -0.614980
O16   O     O_3   0.864575 0.049244 0.414124 -0.612379
O17   O     O_R   0.434530 0.963050 0.499990 -0.647865
O18   O     O_R   0.036950 0.565470 0.500010 -0.634243
O19   O     O_R   0.434530 0.036950 0.500010 -0.631032
O20   O     O_R   0.963050 0.434530 0.500010 -0.627517
O21   O     O_R   0.565470 0.963050 0.500010 -0.632808
O22   O     O_R   0.463050 0.999990 0.091600 -0.609564
O23   O     O_R   0.999990 0.536950 0.091600 -0.609372
O24   O     O_R   0.536950 0.000010 0.091600 -0.608483
O25   O     O_R   0.065470 0.536950 0.999990 -0.639925
O26   O     O_R   0.000010 0.463050 0.091600 -0.611803
O27   O     O_R   0.536950 0.999990 0.908400 -0.615703
O28   O     O_R   0.000010 0.536950 0.908400 -0.615982
O29   O     O_R   0.463050 0.000010 0.908400 -0.610076
O30   O     O_R   0.999990 0.463050 0.908400 -0.609383
O31   O     O_R   0.963050 0.499990 0.591600 -0.610983
O32   O     O_R   0.499990 0.036950 0.591600 -0.611191
O33   O     O_R   0.036950 0.500010 0.591600 -0.607034
O34   O     O_R   0.500010 0.963050 0.591600 -0.608206
O35   O     O_R   0.036950 0.499990 0.408400 -0.612391
O36   O     O_R   0.536950 0.934530 0.999990 -0.650418
O37   O     O_R   0.500010 0.036950 0.408400 -0.614627
O38   O     O_R   0.963050 0.500010 0.408400 -0.611201
O39   O     O_R   0.499990 0.963050 0.408400 -0.614769
O40   O     O_R   0.565470 0.500020 0.051710 -0.587155
O41   O     O_R   0.500020 0.434530 0.051710 -0.582776
O42   O     O_R   0.434530 0.499980 0.051710 -0.592989
O43   O     O_R   0.499980 0.565470 0.051710 -0.592560
O44   O     O_R   0.434530 0.500020 0.948290 -0.588213
O45   O     O_R   0.499980 0.434530 0.948290 -0.596325
O46   O     O_R   0.565470 0.499980 0.948290 -0.595734
O47   O     O_R   0.934530 0.463050 0.999990 -0.653431
O48   O     O_R   0.500020 0.565470 0.948290 -0.582422
O49   O     O_R   0.065470 0.000020 0.551710 -0.590279
O50   O     O_R   0.000020 0.934530 0.551710 -0.587261
O51   O     O_R   0.934530 0.999980 0.551710 -0.597553
O52   O     O_R   0.999980 0.065470 0.551710 -0.583130
O53   O     O_R   0.934530 0.000020 0.448290 -0.584545
O54   O     O_R   0.999980 0.934530 0.448290 -0.585970
O55   O     O_R   0.065470 0.999980 0.448290 -0.590494
O56   O     O_R   0.000020 0.065470 0.448290 -0.590925
O57   O     O_3   0.359487 0.090347 0.205702 -0.648792
O58   O     O_R   0.536950 0.065470 0.000010 -0.630324
O59   O     O_3   0.134670 0.597192 0.199470 -0.611662
O60   O     O_3   0.635478 0.900810 0.204862 -0.649606
O61   O     O_3   0.903327 0.362310 0.205246 -0.639510
O62   O     O_3   0.554806 0.152206 0.813631 -0.608271
O63   O     O_3   0.846244 0.549802 0.817317 -0.607770
O64   O     O_3   0.430698 0.851352 0.816824 -0.630085
O65   O     O_3   0.140601 0.411772 0.802100 -0.611319
O66   O     O_3   0.857643 0.588312 0.706038 -0.637571
O67   O     O_3   0.597246 0.135861 0.704632 -0.644298
O68   O     O_3   0.106828 0.372192 0.701868 -0.611116
O69   O     O_R   0.934530 0.536950 0.000010 -0.634533
O70   O     O_3   0.400463 0.864023 0.702981 -0.642298
O71   O     O_3   0.095879 0.635792 0.297222 -0.614718
O72   O     O_3   0.346242 0.049061 0.316308 -0.606939
O73   O     O_3   0.935369 0.350300 0.319137 -0.624475
O74   O     O_3   0.651639 0.940254 0.315025 -0.610695
O75   O     O_3   0.570875 0.936674 0.129473 -0.633389
O76   O     O_3   0.936676 0.428891 0.130551 -0.630294
O77   O     O_3   0.428448 0.062659 0.130864 -0.630115
O78   O     O_3   0.070557 0.558902 0.123838 -0.622375
O79   O     O_3   0.446164 0.927534 0.876661 -0.616255
O80   O     O_R   0.463050 0.934530 0.000010 -0.627301
O81   O     O_3   0.071865 0.443076 0.875816 -0.628128
O82   O     O_3   0.549396 0.074051 0.875417 -0.606447
O83   O     O_3   0.925479 0.547589 0.876321 -0.603696
O84   O     O_3   0.061371 0.430677 0.625738 -0.630275
O85   O     O_3   0.436750 0.928927 0.628993 -0.632934
O86   O     O_3   0.927765 0.562173 0.631368 -0.631893
O87   O     O_3   0.563965 0.070004 0.629460 -0.624879
O88   O     O_3   0.946863 0.427722 0.377142 -0.607000
O89   O     O_3   0.574276 0.949723 0.376499 -0.609305
O90   O     O_3   0.058469 0.571087 0.373913 -0.629519
O91   O     O_R   0.065470 0.463050 0.000010 -0.635733
O92   O     O_3   0.425344 0.047752 0.375751 -0.607809
O93   O     O_3   0.573228 0.228532 0.966930 -0.642494
O94   O     O_3   0.227953 0.422091 0.985428 -0.644132
O95   O     O_3   0.432976 0.771307 0.948071 -0.646745
O96   O     O_3   0.771076 0.577031 0.983223 -0.645145
O97   O     O_3   0.426238 0.225846 0.054330 -0.644527
O98   O     O_3   0.772652 0.422758 0.042113 -0.653336
O99   O     O_3   0.569934 0.774286 0.061905 -0.645479
O100  O     O_3   0.226619 0.580593 0.017552 -0.643010
O101  O     O_3   0.071726 0.729166 0.460360 -0.649562
O102  O     O_R   0.963050 0.565470 0.499990 -0.652203
O103  O     O_3   0.727800 0.923400 0.478417 -0.642827
O104  O     O_3   0.926787 0.271976 0.456024 -0.651695
O105  O     O_3   0.271108 0.071534 0.466084 -0.643124
O106  O     O_3   0.927335 0.725615 0.555581 -0.644994
O107  O     O_3   0.274486 0.926468 0.560078 -0.644161
O108  O     O_3   0.075938 0.272504 0.535278 -0.648848
O109  O     O_3   0.726194 0.077154 0.539235 -0.638612
O110  O     O_3   0.548783 0.366944 0.090065 -0.608386
O111  O     O_3   0.364432 0.452874 0.092023 -0.609242
O112  O     O_3   0.456665 0.635343 0.094443 -0.609419
Zn1   Zn    Zn3+2 0.450650 0.000000 0.000000 0.925329
Zn2   Zn    Zn3+2 0.500000 0.500000 0.930940 1.005128
Zn3   Zn    Zn3+2 0.000000 0.000000 0.569060 1.014272
Zn4   Zn    Zn3+2 0.000000 0.000000 0.430940 1.007801
Zn5   Zn    Zn3+2 0.000000 0.549350 0.000000 0.919278
Zn6   Zn    Zn3+2 0.549350 0.000000 0.000000 0.922266
Zn7   Zn    Zn3+2 1.000000 0.450650 0.000000 0.916205
Zn8   Zn    Zn3+2 0.950650 0.500000 0.500000 0.923523
Zn9   Zn    Zn3+2 0.500000 0.049350 0.500000 0.923627
Zn10  Zn    Zn3+2 0.049350 0.500000 0.500000 0.918916
Zn11  Zn    Zn3+2 0.500000 0.950650 0.500000 0.923555
Zn12  Zn    Zn3+2 0.500000 0.500000 0.069060 1.019775

loop_
_geom_bond_atom_site_label_1
_geom_bond_atom_site_label_2
_ccdc_geom_bond_type
C164  O83   S    
C97   H432  S    
C83   C314  S    
C126  C127  S    
C332  O45   A    
C31   C42   A    
C240  H282  S    
C109  H458  S    
C142  H54   S    
C322  C358  S    
C342  O27   A    
C314  O18   A    
C74   C83   A    
C85   C336  S    
C121  O68   S    
C337  O54   A    
C63   H223  S    
C93   H401  S    
C272  H358  S    
C251  H308  S    
C278  H373  S    
C345  O32   A    
C282  C283  S    
C271  H356  S    
O43   Zn12  S    
C10   O66   S    
C91   O59   S    
C298  H419  S    
C353  O79   S    
C75   H46   S    
C284  C285  S    
O17   Zn11  S    
C139  H48   S    
C351  C368  A    
C307  O10   S    
C125  H14   S    
C183  H151  S    
C238  O107  S    
C57   C59   A    
C3    O59   S    
C40   C342  S    
C271  C272  S    
C22   C38   A    
C98   H433  S    
C273  H361  S    
C108  C109  S    
C185  H155  S    
C123  H10   S    
C249  H304  S    
C274  C275  S    
C162  H102  S    
C164  H106  S    
O28   Zn5   S    
C14   C366  A    
C186  H158  S    
C110  C111  S    
C218  H233  S    
C325  O2    A    
C205  H203  S    
O49   Zn3   S    
C58   O107  S    
C345  O34   A    
C115  H471  S    
C285  H388  S    
C220  H239  S    
C275  C276  S    
C143  H58   S    
C107  H455  S    
C272  C273  S    
C95   H425  S    
C157  H157  S    
C4    O64   S    
O52   Zn3   S    
C168  C327  A    
O45   Zn2   S    
C48   C65   A    
C183  H150  S    
C182  H148  S    
C244  C245  S    
C288  H396  S    
C292  H405  S    
C210  O98   S    
C244  H294  S    
C100  O62   S    
C290  O3    S    
C250  H305  S    
C234  C236  S    
C99   H435  S    
C97   H431  S    
C262  H333  S    
C104  C105  S    
C199  H191  S    
C161  C162  S    
C148  O77   S    
C279  C316  A    
C34   C348  S    
C247  H297  S    
C202  C203  S    
C299  H424  S    
C191  C192  S    
C221  H241  S    
C59   O108  S    
O39   Zn11  S    
C145  H62   S    
O41   Zn12  S    
C216  H228  S    
C6    C11   A    
C149  H71   S    
C150  H74   S    
C193  H174  S    
C277  O9    S    
C133  H34   S    
C267  H349  S    
C107  O64   S    
C23   C37   A    
C231  H263  S    
C265  H343  S    
C109  H461  S    
C263  H338  S    
C13   C324  S    
C196  H182  S    
C301  O5    S    
C215  C216  S    
C187  H162  S    
C190  C329  A    
C229  C230  S    
C270  H352  S    
C66   C82   A    
C355  O82   S    
C94   O60   S    
O46   Zn2   S    
C75   C86   A    
C64   H334  S    
C175  C176  S    
C202  H194  S    
C175  H133  S    
C12   O73   S    
C311  C320  A    
C80   C112  S    
C235  C311  A    
C180  H144  S    
C312  C319  A    
C283  H383  S    
C347  O17   A    
C151  H75   S    
C334  O43   A    
C115  O66   S    
C154  C155  S    
C22   C357  A    
C286  H392  S    
C222  H243  S    
C214  O99   S    
C359  O85   S    
C109  H460  S    
C158  C159  S    
C17   C34   A    
C154  H83   S    
C1    O1    A    
C341  O26   A    
C190  H190  S    
C91   C92   S    
C354  O81   S    
C335  O55   A    
C169  H118  S    
C43   C61   A    
C266  H347  S    
C291  O14   S    
C268  O111  S    
C293  H406  S    
C212  C309  A    
C104  H446  S    
C46   C60   A    
C167  O84   S    
C214  C215  S    
C368  O57   S    
O18   Zn10  S    
O51   Zn3   S    
C281  H380  S    
C241  H285  S    
C144  C145  S    
C127  H20   S    
C242  H288  S    
C288  H397  S    
C102  H442  S    
C5    C8    A    
C139  C140  S    
C224  C330  A    
C3    C352  A    
C246  C312  A    
C245  H296  S    
C261  H332  S    
C293  H408  S    
C217  H231  S    
C172  H125  S    
C28   C356  A    
C338  O53   A    
C198  H186  S    
C197  H184  S    
C124  C322  A    
C157  C323  A    
C13   C45   A    
C115  H469  S    
C138  O74   S    
C8    O68   S    
C254  H317  S    
C284  H386  S    
C87   O57   S    
O53   Zn4   S    
C33   C351  A    
C46   C53   A    
C301  C317  A    
C48   O97   S    
C138  H45   S    
C177  O87   S    
C284  O11   S    
C281  H378  S    
C277  H371  S    
C91   H346  S    
C146  H146  S    
C7    C356  A    
C117  H474  S    
C297  C298  S    
C291  H403  S    
C289  H399  S    
C88   C89   S    
C233  H267  S    
C200  C202  S    
C98   C99   S    
C205  H202  S    
C155  C156  S    
C88   H290  S    
O34   Zn11  S    
C141  O75   S    
C230  H259  S    
C51   C69   A    
C90   H90   S    
C140  H49   S    
C76   C85   A    
C199  H189  S    
C71   H2    S    
O80   Zn1   S    
C130  H26   S    
C260  H329  S    
C144  O76   S    
C352  O78   S    
C152  H77   S    
C158  H91   S    
C364  O90   S    
C160  H96   S    
C209  H211  S    
C167  H115  S    
C299  H421  S    
C73   H24   S    
C100  H440  S    
C47   O96   S    
C334  O48   A    
C128  C129  S    
C315  C333  S    
C194  H176  S    
C72   C85   A    
C185  C186  S    
C104  O63   S    
C297  H417  S    
C70   H470  S    
C310  C321  A    
C156  H88   S    
C317  C331  S    
C16   C368  A    
C249  C250  S    
C131  H30   S    
C174  H131  S    
C26   C354  A    
C33   C42   A    
C187  H161  S    
C313  C332  S    
C62   C80   A    
C98   H434  S    
O48   Zn2   S    
C49   O98   S    
C171  O85   S    
C159  C160  S    
C61   H1    S    
C261  C262  S    
C253  H315  S    
C207  O97   S    
C267  O6    S    
C115  C116  S    
C251  H309  S    
C283  H385  S    
C108  H457  S    
C237  H274  S    
C136  H39   S    
O36   Zn6   S    
C184  C185  S    
C168  H168  S    
C241  C242  S    
C296  H415  S    
O42   Zn12  S    
C344  O33   A    
C174  C175  S    
C92   C93   S    
C333  O42   A    
C213  H220  S    
C182  C183  S    
C344  O31   A    
C285  H389  S    
C343  O28   A    
C2    C44   A    
C264  C265  S    
C275  H365  S    
C294  O15   S    
C96   H430  S    
C32   C41   A    
C30   C41   A    
C123  H11   S    
C248  O110  S    
C219  H237  S    
C179  C306  A    
C208  H210  S    
C50   C67   A    
C144  H60   S    
C365  O92   S    
C37   C345  S    
C105  H450  S    
O54   Zn4   S    
C94   H423  S    
C127  H18   S    
C143  H59   S    
C128  H21   S    
C336  O20   A    
C254  O112  S    
C43   O93   S    
C147  H66   S    
C258  O3    S    
C151  H76   S    
C206  H205  S    
C212  H212  S    
C211  H218  S    
O37   Zn9   S    
C15   O71   S    
C220  C221  S    
C118  H478  S    
C276  H367  S    
C137  H42   S    
C161  O82   S    
C292  H404  S    
C103  H444  S    
C259  H326  S    
C119  H479  S    
C49   C66   A    
C146  C324  A    
C168  C305  A    
C79   C257  A    
C243  H291  S    
C110  H463  S    
C92   H368  S    
C5    O65   S    
C311  O15   S    
C19   C33   A    
C262  H336  S    
C190  C307  A    
C29   C355  A    
C199  H188  S    
C77   C84   A    
C217  C218  S    
C204  H200  S    
C203  H198  S    
C360  O86   S    
C295  H413  S    
C20   C36   A    
C132  H32   S    
C113  C326  A    
C89   H312  S    
C210  H216  S    
C221  C222  S    
C208  H209  S    
C25   C38   A    
C117  H476  S    
C309  C318  A    
C234  H270  S    
C233  H269  S    
C27   C40   A    
C280  H375  S    
C130  H28   S    
C173  H128  S    
C165  H109  S    
C92   H357  S    
C197  H185  S    
O33   Zn10  S    
C140  H51   S    
C248  H302  S    
C150  H73   S    
C161  H99   S    
C240  H283  S    
C339  O56   A    
C282  H382  S    
O20   Zn8   S    
C131  O72   S    
C106  H452  S    
C118  O67   S    
C318  C337  S    
C110  O65   S    
C2    C323  S    
C17   C363  A    
C209  H213  S    
O40   Zn12  S    
C307  C320  A    
C256  H320  S    
C225  H248  S    
C181  H145  S    
C28   C39   A    
C134  H38   S    
C176  H137  S    
C129  C130  S    
C20   C32   A    
C211  C213  S    
C271  H355  S    
C305  C318  A    
C165  H108  S    
C302  C316  A    
O30   Zn7   S    
C201  C308  A    
C186  H159  S    
C235  C329  A    
C357  O84   S    
C88   H279  S    
C101  H101  S    
C136  C137  S    
C300  O4    S    
O47   Zn7   S    
C144  H61   S    
C11   C361  A    
O27   Zn6   S    
C247  H299  S    
C244  O109  S    
C269  H351  S    
C106  H453  S    
C303  O47   A    
C262  C263  S    
C222  H244  S    
C184  O89   S    
C6    O62   S    
C252  H311  S    
C188  H164  S    
C192  H172  S    
C231  O105  S    
C223  O36   A    
C314  O102  A    
C331  O46   A    
C154  H84   S    
C45   O95   S    
C258  C259  S    
C336  O13   A    
C35   C327  S    
C333  O44   A    
C229  H256  S    
C227  H252  S    
C275  H366  S    
C18   C36   A    
C228  O104  S    
C274  H363  S    
C29   C40   A    
C10   C360  A    
C16   C365  A    
C219  H236  S    
C356  O83   S    
C295  H411  S    
C21   C27   A    
C102  C103  S    
C218  H234  S    
C77   H68   S    
C224  H224  S    
C93   H390  S    
C13   C50   A    
C55   C73   A    
C220  H240  S    
C204  C205  S    
C239  H281  S    
C350  O76   S    
C226  C227  S    
C217  O100  S    
C105  H449  S    
C147  H64   S    
C252  C253  S    
C308  O11   S    
C126  H17   S    
C4    C9    A    
C31   C349  A    
C182  H149  S    
C138  H44   S    
C216  H229  S    
C276  H369  S    
C255  C256  S    
C287  H394  S    
C297  H418  S    
C54   C57   A    
C177  H139  S    
C15   C364  A    
C7    C10   A    
C87   C88   S    
C321  C335  S    
C228  H254  S    
C187  O90   S    
C340  O22   A    
C163  H104  S    
C243  H289  S    
C128  O71   S    
C239  C240  S    
C250  H306  S    
C192  C193  S    
C9    C359  A    
C99   H438  S    
C246  C328  A    
C170  H119  S    
C293  H407  S    
C55   C68   A    
C3    C15   A    
C111  H464  S    
C181  C182  S    
C93   H379  S    
C25   C28   A    
C339  O52   A    
C203  H196  S    
C230  H261  S    
C97   O61   S    
C281  O10   S    
C155  H86   S    
C162  H100  S    
C332  O41   A    
C346  O38   A    
C164  C165  S    
C32   C352  A    
C67   C81   A    
C56   O106  S    
C225  O103  S    
C148  H67   S    
C207  H208  S    
O31   Zn8   S    
C149  H70   S    
C215  H226  S    
C54   O104  S    
C26   C39   A    
C173  H129  S    
C133  H33   S    
C57   C329  S    
C223  O80   A    
C335  O49   A    
O35   Zn10  S    
C79   C322  A    
C350  C367  A    
C121  H7    S    
C253  H313  S    
C265  H342  S    
C234  O106  S    
C159  H94   S    
C264  O5    S    
O23   Zn5   S    
C69   H459  S    
C27   C353  A    
C238  H277  S    
O91   Zn7   S    
C232  H265  S    
C270  H353  S    
C241  O108  S    
C202  H195  S    
C191  H170  S    
C208  C209  S    
C120  H3    S    
C278  H374  S    
C48   C358  A    
C142  H55   S    
C151  C152  S    
C65   H426  S    
C181  H147  S    
C89   H323  S    
C296  H414  S    
C41   C341  S    
C201  C330  A    
C181  O88   S    
C124  C300  A    
C286  H393  S    
C166  H114  S    
C349  C366  A    
C6    C355  A    
C135  C326  A    
C194  C195  S    
C35   C56   A    
O38   Zn8   S    
C269  C270  S    
C236  H272  S    
C160  H95   S    
C12   C362  A    
C1    C78   S    
C305  O8    S    
C214  H222  S    
C76   H57   S    
C114  H468  S    
C111  H465  S    
C195  H180  S    
C145  C147  S    
O1    Zn1   S    
C169  H117  S    
C97   C98   S    
C200  H192  S    
C212  C327  A    
C239  H280  S    
C127  H19   S    
C143  H56   S    
C56   C74   A    
C319  C338  S    
C213  H221  S    
C112  O25   A    
C21   C359  A    
C125  O70   S    
C349  O75   S    
C178  H140  S    
C5    C354  A    
C251  C252  S    
O50   Zn3   S    
C120  H5    S    
C295  C296  S    
C133  H36   S    
C60   O109  S    
C192  H171  S    
C195  C196  S    
C174  O86   S    
C66   H437  S    
C232  H264  S    
C113  C290  A    
C251  O111  S    
C12   C367  A    
C274  O8    S    
C1    O58   A    
C207  C208  S    
C185  H156  S    
C163  H103  S    
C153  H80   S    
C172  H126  S    
C237  H275  S    
C90   C268  A    
C348  O37   A    
C254  C255  S    
O2    Zn9   S    
C287  C288  S    
C39   C343  S    
C300  C313  A    
C309  O12   S    
C7    O63   S    
C242  C243  S    
C304  O7    S    
C153  H81   S    
C178  H141  S    
C346  O35   A    
C241  H286  S    
C179  H179  S    
C70   C83   A    
C55   O105  S    
C121  C122  S    
C216  H230  S    
O102  Zn8   S    
C235  H235  S    
C146  C302  A    
C193  H173  S    
C244  H293  S    
C233  H266  S    
C325  O21   A    
C53   O103  S    
C125  C126  S    
C340  O24   A    
C82   C303  S    
C112  O91   A    
C230  H260  S    
C157  C304  A    
C68   C330  S    
C131  C132  S    
O22   Zn1   S    
C23   C29   A    
C47   C64   A    
C248  C249  S    
C304  C315  A    
C125  H15   S    
C162  C163  S    
C363  O89   S    
C260  H330  S    
C312  O16   S    
C238  C239  S    
C292  C293  S    
C152  H78   S    
C65   C78   A    
C158  O81   S    
C351  O77   S    
C221  H242  S    
C101  C279  A    
C331  O40   A    
C145  H63   S    
C224  C310  A    
C148  H69   S    
C290  C317  A    
C178  C180  S    
C119  C120  S    
C273  H360  S    
C195  H178  S    
C105  C106  S    
C46   C328  S    
C131  H29   S    
C297  O16   S    
C196  H181  S    
C366  O60   S    
C116  H473  S    
C298  H420  S    
C187  C188  S    
C227  H251  S    
C79   H79   S    
C149  C150  S    
C14   O74   S    
C50   O99   S    
C253  H314  S    
C267  C269  S    
C337  O50   A    
C259  H327  S    
C200  H193  S    
C252  H310  S    
C156  H89   S    
C232  C233  S    
C136  H40   S    
C180  H143  S    
C283  H384  S    
C111  C114  S    
C19   C365  A    
C94   C95   S    
C87   H257  S    
C9    O70   S    
C256  H322  S    
C286  H391  S    
C367  O61   S    
C139  H47   S    
C227  H253  S    
C74   H35   S    
C210  H215  S    
C21   C37   A    
C52   O101  S    
C194  H177  S    
C122  H8    S    
C177  C178  S    
C22   C26   A    
C200  O95   S    
C35   C52   A    
C108  H456  S    
C142  C143  S    
O55   Zn4   S    
C176  H134  S    
C114  H466  S    
C338  O51   A    
C141  C142  S    
C189  H165  S    
C179  C328  A    
C171  H122  S    
C308  C321  A    
C38   C344  S    
O26   Zn7   S    
C203  H197  S    
C51   O100  S    
C272  H359  S    
C171  C172  S    
C18   C362  A    
C194  O93   S    
C165  C166  S    
C184  H153  S    
C128  H22   S    
C84   C325  S    
C169  C170  S    
C147  H65   S    
C113  H113  S    
C95   C96   S    
C206  H206  S    
C214  H225  S    
C198  H187  S    
C242  H287  S    
C102  H441  S    
C264  H341  S    
C137  H41   S    
C16   O72   S    
C343  O30   A    
C205  C206  S    
C236  C237  S    
C122  H9    S    
C103  H443  S    
C229  H258  S    
C226  H249  S    
C316  C334  S    
C96   H428  S    
C213  H219  S    
C63   C81   A    
C217  H232  S    
C163  H105  S    
C164  H107  S    
C14   C363  A    
C348  O39   A    
O56   Zn4   S    
C103  H445  S    
C282  H381  S    
C87   H268  S    
C302  O6    S    
C156  H87   S    
C254  H316  S    
C261  H331  S    
C107  H454  S    
C263  H339  S    
C249  H303  S    
C204  O96   S    
C158  H92   S    
C116  C117  S    
C36   C346  S    
C277  H372  S    
C118  C119  S    
C119  H480  S    
C126  H16   S    
C117  H475  S    
C268  C315  A    
C215  H227  S    
C234  H271  S    
C289  H400  S    
C303  O69   A    
C132  C133  S    
C280  H376  S    
C266  H344  S    
C173  H127  S    
C25   C360  A    
C198  C199  S    
C256  H321  S    
C294  C295  S    
C247  H298  S    
C265  C266  S    
C240  H284  S    
C141  H53   S    
C341  O23   A    
C72   H13   S    
C257  O110  S    
C291  C292  S    
C43   C358  A    
C211  H217  S    
C30   C350  A    
C306  C319  A    
C167  C169  S    
C11   O67   S    
C167  H116  S    
C225  H247  S    
C299  H422  S    
O32   Zn9   S    
C255  H318  S    
C100  H439  S    
C177  H138  S    
C135  C301  A    
C189  H166  S    
C279  O112  S    
C273  H362  S    
C58   C75   A    
C264  H340  S    
C267  H348  S    
C81   C223  S    
C266  H345  S    
C361  O87   S    
C60   C77   A    
C231  H262  S    
C238  H278  S    
C197  O94   S    
C174  H130  S    
C24   C326  S    
C124  H124  S    
C196  H183  S    
C186  H160  S    
C248  H300  S    
C342  O29   A    
C129  H25   S    
C148  C149  S    
C141  H52   S    
O21   Zn11  S    
C96   H429  S    
C261  O4    S    
C270  H354  S    
C269  H350  S    
C134  C136  S    
C44   C62   A    
C281  C282  S    
C91   H335  S    
C45   C63   A    
C188  C189  S    
C20   C364  A    
C362  O88   S    
C166  H111  S    
C151  O78   S    
C320  C339  S    
O13   Zn10  S    
C296  H416  S    
C257  C313  A    
C184  H154  S    
C306  O9    S    
C197  C198  S    
C226  H250  S    
C101  C324  A    
C61   C78   A    
C107  C108  S    
C274  H364  S    
C166  H110  S    
C100  C102  S    
C225  C226  S    
C191  O92   S    
C54   C72   A    
C123  H12   S    
C176  H136  S    
C171  H123  S    
C152  C153  S    
C219  H238  S    
O29   Zn1   S    
C160  H97   S    
C189  H167  S    
C64   C82   A    
C260  H328  S    
C18   C30   A    
O58   Zn6   S    
C188  H163  S    
C294  H409  S    
C44   O94   S    
C153  H82   S    
C104  H447  S    
C95   H427  S    
C86   C347  S    
C255  H319  S    
C278  C280  S    
C206  H204  S    
O44   Zn2   S    
C259  C260  S    
C23   C361  A    
C183  H152  S    
C209  H214  S    
C118  H477  S    
C276  H370  S    
C172  C173  S    
C137  H43   S    
C228  H255  S    
C271  O7    S    
C71   C84   A    
C161  H98   S    
C58   C68   A    
C24   C49   A    
C289  H398  S    
C280  H377  S    
C129  H23   S    
C24   C47   A    
O24   Zn6   S    
C243  H292  S    
C110  H462  S    
C250  H307  S    
C246  H246  S    
C19   C34   A    
C170  H120  S    
C285  C286  S    
C201  H201  S    
C89   H301  S    
C284  H387  S    
C62   H112  S    
C263  H337  S    
C204  H199  S    
C94   H412  S    
C8    C357  A    
C287  H395  S    
C2    C51   A    
C155  H85   S    
C67   H448  S    
C288  C289  S    
C132  H31   S    
C245  C247  S    
C193  H175  S    
C245  H295  S    
C207  H207  S    
C4    C353  A    
C291  H402  S    
C218  C219  S    
C258  H324  S    
C114  H467  S    
C17   C31   A    
C130  H27   S    
C59   C76   A    
O25   Zn5   S    
C121  H6    S    
C159  H93   S    
C220  O101  S    
C210  C211  S    
C294  H410  S    
C175  H132  S    
C116  H472  S    
C170  H121  S    
C73   C86   A    
C310  O14   S    
C52   C70   A    
C90   C323  A    
C228  C229  S    
C134  O73   S    
C237  H276  S    
C135  H135  S    
C106  H451  S    
C154  O79   S    
C42   C340  S    
C191  H169  S    
C287  O12   S    
C298  C299  S    
C120  H4    S    
C231  C232  S    
C180  H142  S    
C69   C80   A    
C150  H72   S    
C347  O19   A    
C122  C123  S    
C277  C278  S    
C134  H37   S    
C140  H50   S    
C236  H273  S    
O19   Zn9   S    
C138  C139  S    
C99   H436  S    
C222  H245  S    
O69   Zn5   S    
C258  H325  S    
C53   C71   A    
