data_mof_unit_45031.cif
_audit_creation_date              2013-03-05T16:06:36-0500
_audit_creation_method            fapswitch 2.2
_symmetry_space_group_name_H-M    P1
_symmetry_Int_Tables_number       1
_space_group_crystal_system       triclinic
_cell_length_a                    8.337458
_cell_length_b                    14.983104
_cell_length_c                    22.82958
_cell_angle_alpha                 98.498677
_cell_angle_beta                  89.538662
_cell_angle_gamma                 99.186305
_cell_volume                      2784.04985251

loop_
_atom_site_label
_atom_site_type_symbol
_atom_site_description
_atom_site_fract_x
_atom_site_fract_y
_atom_site_fract_z
_atom_type_partial_charge
P1    P     P_3+3 0.056010 0.422560 0.367570 0.476546
O1    O     O_2   0.889550 0.449620 0.359410 -0.381241
O2    O     O_3   0.130120 0.450560 0.430480 -0.402785
O3    O     O_3   0.674100 0.616440 0.398760 -0.383622
O4    O     O_2   0.781196 0.549334 0.293707 -0.383020
O5    O     O_3   0.041796 0.306291 0.338188 -0.586024
O6    O     O_3   0.734677 0.719351 0.304037 -0.493272
H1    H     H_    0.748199 0.788614 0.389780 0.143517
C1    C     C_3   0.716766 0.878277 0.327091 -0.877122
H2    H     H_    0.676437 0.930474 0.361241 0.234542
H3    H     H_    0.849104 0.897422 0.320362 0.283722
P2    P     P_3+3 0.670430 0.710550 0.550450 0.488217
P3    P     P_3+3 0.140362 0.780819 0.430269 0.449020
O7    O     O_2   0.848070 0.724010 0.533650 -0.368398
O8    O     O_3   0.092910 0.663610 0.428710 -0.355062
O9    O     O_2   0.021115 0.825236 0.473047 -0.391106
O10   O     O_3   0.672516 0.739489 0.627532 -0.539540
O11   O     O_3   0.087136 0.804014 0.360799 -0.498423
C2    C     C_3   0.214159 0.789398 0.321688 0.335900
H4    H     H_    0.237973 0.717788 0.318106 0.090139
H5    H     H_    0.326204 0.838117 0.336342 0.059478
C3    C     C_3   0.166992 0.807143 0.260822 -0.768644
H6    H     H_    0.064074 0.754467 0.241950 0.268666
H7    H     H_    0.130639 0.875868 0.264081 0.255713
C4    C     C_3   0.233664 0.735729 0.601255 0.439743
H8    H     H_    0.348965 0.711457 0.588378 0.095184
H9    H     H_    0.145969 0.718350 0.563397 0.117680
C5    C     C_3   0.266076 0.839217 0.618228 -0.895881
H10   H     H_    0.357561 0.858800 0.654850 0.292239
H11   H     H_    0.312874 0.872339 0.579867 0.213645
H12   H     H_    0.151752 0.864416 0.632756 0.259432
Ba1   Ba    Ba6+2 0.856840 0.543240 0.473380 1.586707
C6    C     C_3   0.928251 0.246799 0.364893 1.052903
H13   H     H_    0.835046 0.281632 0.389445 -0.067448
C7    C     C_3   0.020773 0.200679 0.405267 -0.981673
H14   H     H_    0.131920 0.181001 0.383291 0.292905
H15   H     H_    0.945539 0.137650 0.416299 0.211803
H16   H     H_    0.055787 0.249684 0.445832 0.235849
C8    C     C_3   0.730453 0.672165 0.653855 0.242192
H17   H     H_    0.852695 0.663435 0.637125 0.073548
H18   H     H_    0.646294 0.606157 0.644307 0.103277
C9    C     C_3   0.744240 0.703211 0.720778 -0.122417
H19   H     H_    0.806947 0.775181 0.730196 0.161790
H20   H     H_    0.819545 0.660890 0.741097 0.088578
P4    P     P_3+3 0.133710 0.577520 0.632440 0.498053
O12   O     O_2   0.300150 0.550410 0.640630 -0.332423
O13   O     O_3   0.059590 0.549510 0.569530 -0.416324
O14   O     O_3   0.515610 0.383640 0.601250 -0.369130
O15   O     O_3   0.170980 0.696829 0.650318 -0.529961
P5    P     P_3+3 0.056865 0.218031 0.569219 0.500368
O16   O     O_3   0.613300 0.389650 0.468010 -0.382103
O17   O     O_3   0.096810 0.336470 0.571300 -0.412297
O18   O     O_2   0.205714 0.177893 0.542254 -0.418290
O19   O     O_3   0.050341 0.197071 0.643138 -0.486194
Ba2   Ba    Ba6+2 0.332990 0.456840 0.526630 1.602304
P6    P     P_3+3 0.660397 0.610888 0.321941 0.471902
C10   C     C_3   0.681779 0.784886 0.347239 0.472977
H21   H     H_    0.548989 0.768524 0.354331 -0.023419
H22   H     H_    0.650410 0.877067 0.284922 0.259678
O20   O     O_3   0.576410 0.610420 0.531990 -0.396069
C11   C     C_3   0.466696 0.332179 0.345635 0.220052
H23   H     H_    0.340234 0.337684 0.358192 0.105833
H24   H     H_    0.547393 0.396693 0.363641 0.073300
C12   C     C_3   0.480738 0.320939 0.278180 0.100136
H25   H     H_    0.446970 0.381358 0.261743 0.034904
H26   H     H_    0.608741 0.318238 0.265953 0.136987
P7    P     P_3+3 0.522370 0.277094 0.444435 0.471984
O21   O     O_2   0.341630 0.276020 0.466390 -0.375661
O22   O     O_3   0.513819 0.256939 0.366909 -0.514058
H27   H     H_    0.272469 0.805059 0.231035 0.250111
C13   C     C_3   0.098510 0.280493 0.680987 0.535319
H28   H     H_    0.218581 0.312145 0.668454 0.116328
H29   H     H_    0.016169 0.329969 0.676892 0.117692
C14   C     C_3   0.101293 0.266877 0.746148 -0.910397
H30   H     H_    0.043128 0.319826 0.773209 0.253331
H31   H     H_    0.038034 0.198159 0.752575 0.317356
H32   H     H_    0.226355 0.274805 0.763904 0.261510
P8    P     P_3+3 0.533976 0.399751 0.679525 0.469419
C15   C     C_3   0.476432 0.217644 0.672177 0.944170
O23   O     O_2   0.397438 0.453208 0.702649 -0.394316
O24   O     O_3   0.476440 0.299192 0.712111 -0.621488
H33   H     H_    0.427807 0.221623 0.627682 0.038184
H34   H     H_    0.396845 0.070375 0.670432 0.257340
C16   C     C_3   0.378107 0.136173 0.696938 -0.921098
H35   H     H_    0.246990 0.136171 0.694775 0.249483
H36   H     H_    0.414006 0.136352 0.743730 0.279869
H37   H     H_    0.953740 0.290794 0.049156 0.187327
H38   H     H_    0.873263 0.285661 0.946681 0.183588
C17   C     C_R   0.338793 0.532493 0.335493 -0.527048
C18   C     C_R   0.110713 0.583701 0.943100 -0.075280
C19   C     C_R   0.066447 0.578792 0.882654 0.572419
O25   O     O_2   0.102896 0.646096 0.858006 -0.548966
N1    N     N_R   0.979384 0.499245 0.851701 -0.166137
C20   C     C_R   0.934054 0.423879 0.880722 0.513449
O26   O     O_2   0.853247 0.354542 0.854576 -0.603007
C21   C     C_R   0.980317 0.425920 0.940497 -0.041580
C22   C     C_R   0.068011 0.506529 0.971959 -0.016304
C23   C     C_R   0.195656 0.664361 0.975612 -0.083555
C24   C     C_R   0.236496 0.668365 0.035417 -0.107538
C25   C     C_R   0.195642 0.591506 0.064670 -0.049733
C26   C     C_R   0.112108 0.510132 0.032661 -0.011839
C27   C     C_R   0.940196 0.348919 0.969636 -0.099911
C28   C     C_R   0.986570 0.351856 0.028733 -0.088596
C29   C     C_R   0.072418 0.432345 0.061103 -0.075297
C30   C     C_R   0.120097 0.436426 0.121055 0.544203
N2    N     N_R   0.199259 0.517423 0.153139 -0.167725
C31   C     C_R   0.235963 0.594564 0.125199 0.527725
C32   C     C_2   0.773207 0.470036 0.771844 -0.156915
C33   C     C_3   0.723650 0.476599 0.709128 0.229280
C34   C     C_1   0.007620 0.519824 0.686960 0.228282
C35   C     C_2   0.053554 0.523834 0.743465 -0.192296
C36   C     C_2   0.931087 0.496184 0.789582 0.076281
C37   C     C_R   0.406287 0.560030 0.235464 -0.208215
C38   C     C_R   0.451425 0.565702 0.295156 0.174005
C39   C     C_R   0.183556 0.488970 0.316643 0.321511
C40   C     C_R   0.136556 0.484828 0.256844 -0.142266
C41   C     C_R   0.246686 0.521425 0.215394 0.114648
O27   O     O_2   0.093177 0.367233 0.144275 -0.524110
O28   O     O_2   0.302928 0.666508 0.153105 -0.609733
C42   C     C_2   0.864141 0.475450 0.667404 -0.463844
H39   H     H_    0.301039 0.732070 0.058673 0.178051
H40   H     H_    0.496154 0.584406 0.204599 0.177164
H41   H     H_    0.230180 0.725079 0.954978 0.183130
H42   H     H_    0.180118 0.545966 0.756479 0.219672
H43   H     H_    0.679765 0.453404 0.803636 0.182804
H44   H     H_    0.015400 0.451747 0.242545 0.184360
H45   H     H_    0.376021 0.534846 0.381055 0.179126
H46   H     H_    0.844881 0.444487 0.621401 0.199938
C43   C     C_R   0.352000 0.822250 0.457162 0.131013
H47   H     H_    0.378549 0.689093 0.476337 0.173584
H48   H     H_    0.227830 0.957051 0.415774 0.182054
C44   C     C_R   0.581581 0.789445 0.510131 0.311681
C45   C     C_R   0.771907 0.228192 0.507386 -0.415528
C46   C     C_R   0.864671 0.168931 0.527919 0.371452
C47   C     C_R   0.807253 0.074931 0.519493 -0.221898
C48   C     C_R   0.651785 0.039328 0.493198 0.062880
C49   C     C_R   0.562954 0.100824 0.470330 0.004708
C50   C     C_R   0.580442 0.945113 0.489298 0.045946
C51   C     C_R   0.425172 0.914598 0.461012 -0.007874
C52   C     C_R   0.345148 0.976868 0.437572 -0.207603
C53   C     C_R   0.413142 0.067423 0.441554 -0.027933
C54   C     C_R   0.653964 0.881049 0.515083 -0.266025
C55   C     C_R   0.434762 0.759884 0.479193 -0.518026
C56   C     C_R   0.624551 0.195008 0.477296 0.198666
H49   H     H_    0.765132 0.900458 0.540747 0.172951
H50   H     H_    0.817418 0.300799 0.513535 0.171264
H51   H     H_    0.884499 0.032284 0.535459 0.153015
H52   H     H_    0.343928 0.110741 0.422081 0.170707
S1    S     S_3+6 0.832121 0.160353 0.307629 0.010437
O29   O     O_2   0.679058 0.110407 0.330340 -0.314837
O30   O     O_2   0.792757 0.203529 0.255355 -0.277508
O31   O     O_3   0.958776 0.085282 0.286017 -0.483753
H53   H     H_    0.898750 0.040654 0.254169 0.377974
N3    N     N_R   0.583704 0.695804 0.747367 0.279987
O32   O     O_R   0.481178 0.747345 0.734662 -0.312329
O33   O     O_R   0.545307 0.641054 0.786291 -0.376420
S2    S     S_3+6 0.352790 0.221612 0.241005 0.089713
O34   O     O_2   0.342471 0.142681 0.275330 -0.202874
O35   O     O_2   0.185346 0.243342 0.233182 -0.150728
O36   O     O_3   0.428142 0.192044 0.173672 -0.471457
H54   H     H_    0.526713 0.166123 0.181267 0.377282
S3    S     S_3+6 0.676306 0.196501 0.667268 -0.036852
O37   O     O_2   0.684523 0.102373 0.635327 -0.292543
O38   O     O_2   0.765287 0.267567 0.634360 -0.404023
O39   O     O_3   0.751120 0.206325 0.736241 -0.484980
H55   H     H_    0.747887 0.270500 0.753534 0.378193

loop_
_geom_bond_atom_site_label_1
_geom_bond_atom_site_label_2
_geom_bond_distance
_ccdc_geom_bond_type
O14   Ba2   2.747802 S    
C17   C39   1.393608 A    
C18   C22   1.409890 A    
O39   H55   0.988465 S    
C21   C27   1.409082 A    
C37   C41   1.414536 A    
O4    P6    1.546226 D    
C35   C36   1.516324 S    
C15   H33   1.109953 S    
Ba2   O21   2.862859 S    
C10   H21   1.110967 S    
C47   C48   1.422037 A    
C8    H18   1.111387 S    
P4    O12   1.527162 D    
C40   C41   1.420511 A    
C4    C5    1.522419 S    
P5    O19   1.760441 S    
C14   H31   1.108964 S    
P3    O11   1.748277 S    
C5    H10   1.110504 S    
C9    N3    1.460029 S    
C16   H36   1.111204 S    
O11   C2    1.402799 S    
P1    O2    1.540752 S    
S1    O30   1.500888 D    
C15   C16   1.535792 S    
P8    O23   1.540322 D    
N2    C31   1.392218 Am   
C39   C40   1.413140 A    
C32   C33   1.514761 S    
O1    Ba1   2.800673 S    
P1    O1    1.526884 D    
O10   C8    1.396927 S    
O14   P8    1.772050 S    
C11   H24   1.111470 S    
C34   C35   1.338660 D    
H48   C52   1.078884 S    
C28   C29   1.407938 A    
C53   H52   1.077435 S    
O2    Ba2   2.763329 S    
S2    O34   1.503480 D    
O19   C13   1.412905 S    
C2    H4    1.113177 S    
C25   C31   1.417205 A    
C14   H32   1.103933 S    
O12   Ba2   2.801159 S    
P5    O17   1.746123 S    
C32   H43   1.085441 S    
C1    H2    1.109964 S    
Ba1   Ba2   4.593193 S    
N3    O33   1.300792 A    
C11   H23   1.102999 S    
O17   Ba2   2.747278 S    
C24   H39   1.083212 S    
C44   C55   1.393474 A    
S2    O35   1.501062 D    
C40   H44   1.081764 S    
Ba2   O20   2.803319 S    
O3    P6    1.747195 S    
C54   H49   1.076670 S    
C27   C28   1.398961 A    
C9    H20   1.109148 S    
O6    P6    1.750007 S    
P7    C56   1.849007 S    
C31   O28   1.220708 D    
C29   C30   1.418212 A    
C8    C9    1.529552 S    
S3    O38   1.491246 D    
P4    O13   1.540791 S    
C44   C54   1.396969 A    
C23   H41   1.083173 S    
P5    O18   1.548334 D    
C14   H30   1.104256 S    
C37   H40   1.082347 S    
P7    O21   1.582637 D    
O8    Ba1   2.746720 S    
C7    H16   1.103128 S    
C52   C53   1.374529 A    
C48   C50   1.431794 A    
C50   C54   1.415742 A    
S1    O31   1.682418 S    
C34   C42   1.318826 D    
C8    H17   1.106017 S    
C15   O24   1.412360 S    
P4    C34   1.846207 S    
O16   Ba2   2.927284 S    
C4    H8    1.103763 S    
P1    Ba1   3.386023 S    
C32   C36   1.359121 D    
C1    H22   1.110581 S    
C7    H14   1.110589 S    
C12   H26   1.106417 S    
C12   S2    1.790928 S    
C11   C12   1.529808 S    
Ba1   O16   2.804001 S    
H1    C10   1.111637 S    
C19   N1    1.389205 Am   
S3    O39   1.675762 S    
H34   C16   1.110778 S    
C43   C51   1.410605 A    
P4    O15   1.751508 S    
C22   C26   1.427671 A    
C21   C22   1.406866 A    
C2    C3    1.519060 S    
C6    H13   1.107451 S    
C20   O26   1.220324 D    
N1    C20   1.392038 Am   
O16   P7    1.743152 S    
C16   H35   1.094686 S    
C20   C21   1.415739 A    
H47   C55   1.081791 S    
C1    H3    1.110196 S    
N3    O32   1.300821 A    
O3    Ba1   2.748427 S    
H37   C28   1.083237 S    
C49   C56   1.408543 A    
P2    O7    1.516469 D    
C26   C29   1.409455 A    
C47   H51   1.077008 S    
P3    O8    1.732572 S    
N2    C41   1.468400 S    
P5    C46   1.854944 S    
C45   C46   1.398021 A    
Ba1   O13   2.762743 S    
C3    H7    1.111006 S    
C30   O27   1.221640 D    
C4    H9    1.110064 S    
C9    H19   1.111591 S    
Ba1   O20   2.927982 S    
C15   S3    1.744989 S    
C19   O25   1.221896 D    
C3    H27   1.108885 S    
O13   Ba2   2.942057 S    
C37   C38   1.403462 A    
C17   H45   1.081842 S    
C11   O22   1.402658 S    
C49   C53   1.399505 A    
C17   C38   1.396336 A    
C45   C56   1.395017 A    
P3    C43   1.852271 S    
P2    C44   1.845415 S    
C7    H15   1.107850 S    
C35   H42   1.084404 S    
C5    H12   1.110813 S    
O7    Ba1   2.862621 S    
C48   C49   1.427020 A    
C13   C14   1.531957 S    
H38   C27   1.083229 S    
C51   C52   1.397878 A    
C42   H46   1.085780 S    
C46   C47   1.398541 A    
C43   C55   1.397376 A    
S2    O36   1.681049 S    
S3    O37   1.500507 D    
C30   N2    1.390766 Am   
O5    C6    1.394394 S    
C12   H25   1.105921 S    
C5    H11   1.107511 S    
C13   H28   1.092174 S    
C6    S1    1.792761 S    
C24   C25   1.409460 A    
O36   H54   0.990154 S    
P2    O10   1.748607 S    
P8    O24   1.774384 S    
C18   C19   1.419643 A    
C25   C26   1.406893 A    
C6    C7    1.513950 S    
C18   C23   1.408217 A    
P8    C33   1.867929 S    
C1    C10   1.520666 S    
O2    Ba1   2.941290 S    
C4    O15   1.397749 S    
C50   C51   1.427981 A    
N1    C36   1.469502 S    
P2    O20   1.576644 S    
O31   H53   0.990728 S    
P4    Ba2   3.386545 S    
C23   C24   1.400150 A    
P3    O9    1.545514 D    
C13   H29   1.101634 S    
P1    O5    1.757487 S    
P6    C38   1.840120 S    
C3    H6    1.110869 S    
C45   H50   1.082171 S    
P1    C39   1.859253 S    
P7    O22   1.750980 S    
S1    O29   1.502166 D    
O6    C10   1.405863 S    
P2    Ba1   3.419307 S    
C33   C42   1.504419 S    
C2    H5    1.110205 S    
