data_mof_unit_39138.cif
_audit_creation_date              2012-12-10T16:57:10-0500
_audit_creation_method            fapswitch 2.2
_symmetry_space_group_name_H-M    P1
_symmetry_Int_Tables_number       1
_space_group_crystal_system       triclinic
_cell_length_a                    7.781188
_cell_length_b                    8.559376
_cell_length_c                    16.619023
_cell_angle_alpha                 92.257812
_cell_angle_beta                  80.036428
_cell_angle_gamma                 93.83784
_cell_volume                      1087.28779532

loop_
_atom_site_label
_atom_site_type_symbol
_atom_type_description
_atom_site_fract_x
_atom_site_fract_y
_atom_site_fract_z
_atom_type_partial_charge
C1    C     C_R   0.546237 0.794793 0.497841 0.962851
C2    C     C_R   0.444069 0.664623 0.240513 -0.294049
C3    C     C_R   0.561529 0.482897 0.867719 0.496637
C4    C     C_R   0.479944 0.729014 0.163434 0.459913
C5    C     C_R   0.462706 0.606163 0.905591 -0.023475
C6    C     C_R   0.615700 0.670992 0.104790 -0.006503
C7    C     C_R   0.356715 0.685289 0.862688 0.176412
C8    C     C_R   0.731313 0.568382 0.127919 0.186928
C9    C     C_R   0.356854 0.646431 0.780831 -0.216345
C10   C     C_R   0.698021 0.510118 0.206331 -0.256310
C11   C     C_2   0.463080 0.645372 0.991164 -0.095668
C12   C     C_R   0.453797 0.205191 0.501907 0.966850
C13   C     C_2   0.612150 0.687235 0.018049 -0.113640
C14   C     C_3   0.416745 0.984878 0.175515 0.084638
C15   C     C_3   0.299947 0.104880 0.151890 -0.758647
C16   C     C_3   0.570810 0.245852 0.923421 0.112426
C17   C     C_3   0.665223 0.152889 0.976576 -0.747027
C18   C     C_2   0.570624 0.958305 0.496413 -0.380924
C19   C     C_2   0.429467 0.041630 0.502872 -0.387522
C20   C     C_R   0.476838 0.505322 0.654375 0.906237
C21   C     C_R   0.524906 0.504331 0.345618 0.892376
C22   C     C_R   0.465193 0.532291 0.741421 -0.130247
C23   C     C_R   0.550723 0.553114 0.261569 -0.137275
C24   C     C_R   0.568282 0.451665 0.784366 -0.306254
H1    H     H_    0.651447 0.363116 0.753650 0.169779
H2    H     H_    0.977201 0.620529 0.560911 0.194885
H3    H     H_    0.555311 0.022034 0.151041 0.141704
H4    H     H_    0.398064 0.983971 0.243500 0.132932
H5    H     H_    0.161587 0.075243 0.179272 0.258817
H6    H     H_    0.339794 0.223390 0.174480 0.204125
H7    H     H_    0.311095 0.105969 0.084432 0.273671
H8    H     H_    0.573270 0.180323 0.864049 0.152516
H9    H     H_    0.432607 0.253607 0.954602 0.158238
H10   H     H_    0.602048 0.032907 0.984046 0.226741
H11   H     H_    0.804185 0.144280 0.947660 0.282885
H12   H     H_    0.334870 0.704690 0.284305 0.179904
H13   H     H_    0.658906 0.211285 0.037756 0.257766
H14   H     H_    0.785709 0.429411 0.223756 0.180760
H15   H     H_    0.278060 0.710074 0.747121 0.180410
H16   H     H_    0.733820 0.701875 0.974992 0.206600
H17   H     H_    0.341402 0.623342 0.033211 0.219561
H18   H     H_    0.703852 0.009556 0.490212 0.181380
H19   H     H_    0.296248 0.990370 0.509018 0.181714
H20   H     H_    0.022805 0.379489 0.439079 0.190710
I1    I     I_    0.202292 0.869862 0.916816 -0.410746
I2    I     I_    0.951147 0.487388 0.046885 -0.371706
N1    N     N_2   0.953500 0.457650 0.478520 -0.171451
N2    N     N_2   0.046500 0.542350 0.521480 -0.170240
O1    O     O_R   0.388470 0.738640 0.505270 -0.616692
O2    O     O_3   0.655290 0.396747 0.911939 -0.590567
O3    O     O_R   0.611530 0.261360 0.494730 -0.612860
O4    O     O_R   0.679650 0.711510 0.491500 -0.626511
O5    O     O_R   0.320350 0.288490 0.508500 -0.624960
O6    O     O_R   0.337210 0.515200 0.623500 -0.610163
O7    O     O_R   0.662790 0.484800 0.376500 -0.612440
O8    O     O_R   0.628380 0.488060 0.609730 -0.618487
O9    O     O_R   0.371620 0.511940 0.390270 -0.625537
O10   O     O_3   0.371065 0.836419 0.142549 -0.593544
Zn1   Zn    Zn3+2 0.305580 0.518120 0.509190 0.944010
Zn2   Zn    Zn3+2 0.694420 0.481880 0.490810 0.945415

loop_
_geom_bond_atom_site_label_1
_geom_bond_atom_site_label_2
_ccdc_geom_bond_type
C2    C4    A    
C15   H7    S    
C16   H9    S    
C16   H8    S    
O4    Zn2   S    
N1    N2    D    
O1    Zn1   S    
H20   N1    S    
H2    N2    S    
C10   H14   S    
C21   C23   S    
C3    C24   A    
C17   H13   S    
O7    Zn2   S    
C6    C13   S    
C21   O9    A    
C11   C13   D    
C1    C18   S    
N2    Zn1   S    
C14   O10   S    
C7    I1    S    
C12   C19   S    
C20   O6    A    
C3    O2    S    
C16   O2    S    
C15   H5    S    
C10   C23   A    
C8    I2    S    
C20   O8    A    
C18   H18   S    
C5    C11   S    
O5    Zn1   S    
C14   H3    S    
C1    O4    A    
C22   C24   A    
C9    C22   A    
O9    Zn1   S    
C4    C6    A    
C17   H10   S    
C2    H12   S    
C7    C9    A    
C9    H15   S    
C12   O3    A    
O8    Zn2   S    
C24   H1    S    
C15   H6    S    
C21   O7    A    
C18   C19   D    
C11   H17   S    
C4    O10   S    
C2    C23   A    
C5    C7    A    
C14   C15   S    
C13   H16   S    
C6    C8    A    
O3    Zn2   S    
C17   H11   S    
C14   H4    S    
N1    Zn2   S    
O6    Zn1   S    
C1    O1    A    
C8    C10   A    
C12   O5    A    
C20   C22   S    
C16   C17   S    
C3    C5    A    
C19   H19   S    
