data_mof_unit_29238.cif
_audit_creation_date              2012-10-26T20:34:22-0400
_audit_creation_method            fapswitch 2.2
_symmetry_space_group_name_H-M    P1
_symmetry_Int_Tables_number       1
_space_group_crystal_system       triclinic
_cell_length_a                    16.028198
_cell_length_b                    14.775318
_cell_length_c                    10.652125
_cell_angle_alpha                 89.837445
_cell_angle_beta                  90.828786
_cell_angle_gamma                 89.719309
_cell_volume                      2522.34974139

loop_
_atom_site_label
_atom_site_type_symbol
_atom_type_description
_atom_site_fract_x
_atom_site_fract_y
_atom_site_fract_z
_atom_type_partial_charge
C1    C     C_R   0.340952 0.500174 0.500376 0.573785
C2    C     C_R   0.087350 0.499713 0.506656 -0.005060
C3    C     C_R   0.500975 0.499965 0.258975 0.589406
C4    C     C_R   0.499861 0.499848 0.741171 0.590075
C5    C     C_1   0.252110 0.500457 0.502822 0.001780
C6    C     C_1   0.747778 0.498696 0.496945 0.001035
C7    C     C_R   0.543437 0.950968 0.594301 -0.028825
C8    C     C_R   0.457290 0.049916 0.404346 -0.029205
C9    C     C_R   0.456424 0.953178 0.403914 -0.028301
C10   C     C_R   0.542941 0.047837 0.596068 -0.028186
C11   C     C_R   0.499722 0.903060 0.498587 -0.039674
C12   C     C_R   0.659012 0.499705 0.499642 0.571259
C13   C     C_R   0.500222 0.097457 0.500595 -0.040593
C14   C     C_3   0.497385 0.585328 0.041837 -0.156166
C15   C     C_3   0.504556 0.413228 0.958755 -0.144414
C16   C     C_3   0.567139 0.545904 0.958314 -0.164704
C17   C     C_3   0.434656 0.452833 0.042242 -0.153820
C18   C     C_3   0.430788 0.538513 0.959591 0.066191
C19   C     C_3   0.571037 0.460357 0.041141 0.069747
C20   C     C_3   0.499683 0.499498 0.877532 0.009996
C21   C     C_3   0.502054 0.499373 0.122865 0.015133
C22   C     C_1   0.499617 0.802564 0.498396 0.138390
C23   C     C_1   0.822570 0.497833 0.494354 -0.043001
C24   C     C_1   0.500279 0.197620 0.500696 0.132149
C25   C     C_R   0.586289 0.097549 0.699528 0.029885
C26   C     C_R   0.650945 0.158337 0.672872 -0.095474
C27   C     C_R   0.692699 0.203481 0.770113 -0.096084
C28   C     C_R   0.671278 0.187235 0.894701 -0.093159
C29   C     C_R   0.606955 0.127365 0.922172 -0.124669
C30   C     C_R   0.564043 0.083160 0.825188 -0.091153
C31   C     C_R   0.408829 0.905378 0.303754 0.038744
C32   C     C_R   0.451080 0.859850 0.207889 -0.099061
C33   C     C_R   0.406557 0.825642 0.104679 -0.099675
C34   C     C_1   0.177271 0.500273 0.505032 -0.042535
C35   C     C_R   0.319914 0.834897 0.097618 -0.071033
C36   C     C_R   0.277451 0.879141 0.193240 -0.102090
C37   C     C_R   0.321571 0.914365 0.296049 -0.075387
C38   C     C_R   0.414346 0.102225 0.302029 0.035132
C39   C     C_R   0.349401 0.162843 0.329985 -0.086357
C40   C     C_R   0.311055 0.214140 0.234756 -0.104677
C41   C     C_R   0.336606 0.204731 0.110663 -0.109447
C42   C     C_R   0.400672 0.144203 0.081729 -0.111213
C43   C     C_R   0.439693 0.093361 0.176935 -0.080102
C44   C     C_R   0.591401 0.899568 0.692067 0.033965
C45   C     C_R   0.954848 0.581756 0.492464 -0.018621
C46   C     C_R   0.550229 0.840554 0.774029 -0.086860
C47   C     C_R   0.595195 0.793830 0.867218 -0.108532
C48   C     C_R   0.681035 0.806650 0.881093 -0.103891
C49   C     C_R   0.722327 0.865880 0.801059 -0.102641
C50   C     C_R   0.678036 0.911517 0.705951 -0.075404
C51   C     C_2   0.351274 0.583402 0.917147 0.553797
C52   C     C_2   0.651280 0.417410 0.084352 0.557106
C53   C     C_R   0.088679 0.669746 0.510542 0.038306
C54   C     C_R   0.132684 0.691669 0.621246 -0.099312
C55   C     C_R   0.171924 0.775548 0.633140 -0.107685
C56   C     C_R   0.044850 0.416309 0.504958 -0.019664
C57   C     C_R   0.166376 0.838667 0.535470 -0.095456
C58   C     C_R   0.122391 0.817549 0.425256 -0.101354
C59   C     C_R   0.084587 0.732980 0.411866 -0.072133
C60   C     C_R   0.911278 0.328076 0.495544 0.042280
C61   C     C_R   0.868392 0.301032 0.386190 -0.096508
C62   C     C_R   0.829688 0.216502 0.380954 -0.110820
C63   C     C_R   0.834212 0.158158 0.484343 -0.109863
C64   C     C_R   0.876436 0.184777 0.593728 -0.118153
C65   C     C_R   0.914464 0.269651 0.599804 -0.081168
C66   C     C_R   0.906803 0.668186 0.481533 0.034747
C67   C     C_R   0.042950 0.582483 0.502117 -0.016943
C68   C     C_R   0.858932 0.686497 0.372655 -0.095178
C69   C     C_R   0.816122 0.768733 0.359639 -0.105854
C70   C     C_R   0.821706 0.833820 0.454203 -0.096153
C71   C     C_R   0.869406 0.816347 0.562466 -0.104246
C72   C     C_R   0.910770 0.733389 0.577226 -0.078150
C73   C     C_R   0.092290 0.329509 0.511678 0.038703
C74   C     C_R   0.089429 0.268242 0.411078 -0.085099
C75   C     C_R   0.128943 0.183938 0.421635 -0.117154
C76   C     C_R   0.172183 0.160603 0.531965 -0.111567
C77   C     C_R   0.176796 0.221921 0.631423 -0.110762
C78   C     C_R   0.956797 0.415586 0.497819 -0.017711
C79   C     C_R   0.136863 0.306039 0.621623 -0.093395
C80   C     C_R   0.912427 0.498239 0.492082 -0.004932
Cu1   Cu    Cu3+1 0.500000 0.589220 0.500000 1.033104
Cu2   Cu    Cu3+1 0.500000 0.410780 0.500000 1.025376
H1    H     H_    0.494854 0.654492 0.081169 0.125408
H2    H     H_    0.518491 0.854185 0.210637 0.098787
H3    H     H_    0.439059 0.793816 0.028452 0.099723
H4    H     H_    0.285810 0.808935 0.017114 0.135840
H5    H     H_    0.210571 0.887922 0.185893 0.095269
H6    H     H_    0.288237 0.951089 0.367616 0.093886
H7    H     H_    0.329442 0.171138 0.425828 0.115078
H8    H     H_    0.261743 0.261423 0.257214 0.119862
H9    H     H_    0.306897 0.244458 0.036959 0.103596
H10   H     H_    0.420260 0.137091 0.985532 0.104646
H11   H     H_    0.489843 0.047417 0.153501 0.098797
H12   H     H_    0.507979 0.342695 0.923323 0.141812
H13   H     H_    0.483373 0.831179 0.766198 0.110369
H14   H     H_    0.563506 0.748098 0.929280 0.098480
H15   H     H_    0.715469 0.770959 0.954203 0.103312
H16   H     H_    0.788626 0.876594 0.813289 0.095468
H17   H     H_    0.710956 0.956949 0.644185 0.095744
H18   H     H_    0.278613 0.626085 0.772961 0.323133
H19   H     H_    0.722318 0.371677 0.228792 0.322401
H20   H     H_    0.135137 0.644320 0.698982 0.106393
H21   H     H_    0.205555 0.792122 0.718802 0.106646
H22   H     H_    0.195527 0.904190 0.545682 0.094021
H23   H     H_    0.621548 0.583326 0.921565 0.128174
H24   H     H_    0.116691 0.867143 0.350817 0.094159
H25   H     H_    0.050544 0.717545 0.326082 0.111501
H26   H     H_    0.866395 0.344796 0.304505 0.104049
H27   H     H_    0.796898 0.195882 0.296316 0.108342
H28   H     H_    0.804717 0.092474 0.479931 0.095812
H29   H     H_    0.879568 0.139666 0.673900 0.104343
H30   H     H_    0.947340 0.289383 0.684848 0.110090
H31   H     H_    0.855434 0.637366 0.297516 0.112224
H32   H     H_    0.779359 0.782386 0.275614 0.103163
H33   H     H_    0.789430 0.897941 0.443310 0.096298
H34   H     H_    0.380374 0.415249 0.079099 0.125906
H35   H     H_    0.874855 0.867406 0.634549 0.094268
H36   H     H_    0.947028 0.720588 0.662036 0.109769
H37   H     H_    0.055624 0.285315 0.325442 0.107711
H38   H     H_    0.126016 0.136644 0.344320 0.104835
H39   H     H_    0.202647 0.095259 0.539984 0.094821
H40   H     H_    0.210684 0.203946 0.716572 0.104531
H41   H     H_    0.139417 0.352255 0.700292 0.109712
H42   H     H_    0.669035 0.170493 0.576839 0.118954
H43   H     H_    0.742049 0.250602 0.749021 0.138053
H44   H     H_    0.704674 0.220690 0.970135 0.156417
H45   H     H_    0.590734 0.115095 0.018800 0.106468
H46   H     H_    0.514127 0.037070 0.847977 0.103576
N1    N     N_1   0.500000 0.276710 0.500000 -0.190844
N2    N     N_1   0.500000 0.723290 0.500000 -0.188888
O1    O     O_R   0.380310 0.575320 0.500020 -0.466310
O2    O     O_R   0.333555 0.593843 0.789254 -0.696306
O3    O     O_2   0.703736 0.397091 0.007144 -0.556262
O4    O     O_R   0.666187 0.401403 0.211958 -0.692221
O5    O     O_R   0.619690 0.424680 0.499980 -0.474118
O6    O     O_R   0.619690 0.575320 0.499980 -0.498444
O7    O     O_R   0.380310 0.424680 0.500020 -0.505173
O8    O     O_R   0.499980 0.575330 0.316850 -0.507207
O9    O     O_R   0.500020 0.424670 0.683150 -0.506057
O10   O     O_R   0.500020 0.575330 0.683150 -0.471999
O11   O     O_R   0.499980 0.424670 0.316850 -0.466894
O12   O     O_2   0.302197 0.610853 0.995257 -0.541952

loop_
_geom_bond_atom_site_label_1
_geom_bond_atom_site_label_2
_ccdc_geom_bond_type
Cu1   O10   S    
C66   C68   A    
C40   C41   A    
C8    C13   A    
C7    C10   A    
C52   O4    S    
C41   C42   A    
C14   C18   S    
C37   H6    S    
C35   C36   A    
C3    O11   A    
C15   H12   S    
Cu1   Cu2   S    
C53   C59   A    
H19   O4    S    
C15   C19   S    
C48   H15   S    
C60   C78   S    
C50   H17   S    
C29   C30   A    
C8    C38   S    
C1    C5    S    
C76   H39   S    
C14   C21   S    
C28   C29   A    
C19   C21   S    
Cu2   O7    S    
C6    C12   S    
C38   C39   A    
C35   H4    S    
C78   C80   A    
Cu1   O1    S    
C55   H21   S    
C56   C78   A    
C73   C74   A    
Cu2   O5    S    
C61   H26   S    
C33   H3    S    
C77   H40   S    
C33   C35   A    
C49   H16   S    
C46   C47   A    
C24   N1    T    
C66   C72   A    
C46   H13   S    
C31   C32   A    
C44   C46   A    
C68   C69   A    
C12   O5    A    
C45   C67   A    
C47   H14   S    
C70   C71   A    
C23   C80   S    
C42   H10   S    
C61   C62   A    
C68   H31   S    
C2    C34   S    
C22   N2    T    
C52   O3    D    
Cu1   O8    S    
C26   H42   S    
C14   H1    S    
Cu2   O11   S    
C19   C52   S    
C28   H44   S    
C18   C51   S    
C77   C79   A    
C36   H5    S    
C73   C79   A    
C15   C20   S    
C32   H2    S    
C30   H46   S    
C69   H32   S    
C74   C75   A    
C71   H35   S    
C76   C77   A    
C2    C67   A    
C39   C40   A    
C8    C9    A    
C64   H29   S    
C25   C26   A    
C53   C54   A    
C79   H41   S    
C59   H25   S    
C31   C37   A    
C13   C24   S    
C60   C61   A    
C58   H24   S    
C7    C11   A    
C75   C76   A    
C65   H30   S    
C62   C63   A    
C74   H37   S    
C4    O10   A    
C47   C48   A    
C16   C20   S    
C5    C34   T    
Cu2   O9    S    
C17   C18   S    
C26   C27   A    
C3    O8    A    
C7    C44   S    
Cu2   N1    S    
C9    C11   A    
C16   H23   S    
C10   C25   S    
C48   C49   A    
C41   H9    S    
C60   C65   A    
C29   H45   S    
C14   C16   S    
C3    C21   S    
C42   C43   A    
C27   C28   A    
C1    O7    A    
Cu1   O6    S    
C51   O12   D    
C44   C50   A    
C25   C30   A    
C15   C17   S    
C57   H22   S    
C54   C55   A    
C36   C37   A    
C56   C73   S    
C54   H20   S    
C75   H38   S    
C1    O1    A    
C10   C13   A    
C51   O2    S    
H18   O2    S    
C70   H33   S    
C11   C22   S    
C64   C65   A    
C63   H28   S    
C55   C57   A    
C58   C59   A    
C38   C43   A    
C2    C56   A    
C32   C33   A    
C4    O9    A    
C27   H43   S    
C57   C58   A    
C62   H27   S    
C16   C19   S    
C6    C23   T    
C43   H11   S    
C45   C80   A    
C18   C20   S    
C69   C70   A    
C53   C67   S    
C17   C21   S    
C9    C31   S    
Cu1   N2    S    
C63   C64   A    
C4    C20   S    
C71   C72   A    
C49   C50   A    
C12   O6    A    
C72   H36   S    
C45   C66   S    
C40   H8    S    
C39   H7    S    
C17   H34   S    
