data_mof_unit_53939.cif
_audit_creation_date              2012-12-11T17:39:30-0500
_audit_creation_method            fapswitch 2.2
_symmetry_space_group_name_H-M    P1
_symmetry_Int_Tables_number       1
_space_group_crystal_system       triclinic
_cell_length_a                    14.864544
_cell_length_b                    15.09172
_cell_length_c                    15.027206
_cell_angle_alpha                 109.027974
_cell_angle_beta                  109.156135
_cell_angle_gamma                 110.206701
_cell_volume                      2595.53848508

loop_
_atom_site_label
_atom_site_type_symbol
_atom_type_description
_atom_site_fract_x
_atom_site_fract_y
_atom_site_fract_z
_atom_type_partial_charge
C1    C     C_R   0.906548 0.910832 0.710872 -0.166897
C2    C     C_R   0.002500 0.306044 0.448309 0.063422
C3    C     C_R   0.301476 0.323927 0.823870 0.139352
C4    C     C_R   0.722307 0.045735 0.551645 0.067688
C5    C     C_R   0.696345 0.701435 0.291930 -0.155832
C6    C     C_R   0.306935 0.099469 0.508399 -0.145762
C7    C     C_R   0.093464 0.780870 0.527189 -0.104414
C8    C     C_R   0.910322 0.938546 0.188620 -0.108245
C9    C     C_R   0.095116 0.026756 0.282136 -0.147050
C10   C     C_R   0.908315 0.685852 0.441355 -0.151902
C11   C     C_R   0.698192 0.793535 0.202303 -0.111781
C12   C     C_R   0.093552 0.302420 0.503615 -0.158798
C13   C     C_R   0.305995 0.010667 0.600370 -0.145705
C14   C     C_R   0.633882 0.701407 0.200887 0.140842
C15   C     C_R   0.373335 0.076880 0.575946 0.079129
C16   C     C_R   0.002505 0.678389 0.461763 0.045372
C17   C     C_R   0.003823 0.954529 0.180255 0.061940
C18   C     C_R   0.554767 0.764981 0.620932 -0.126761
C19   C     C_R   0.546772 0.845147 0.597479 -0.158544
C20   C     C_R   0.621501 0.955646 0.674891 0.119926
C21   C     C_R   0.701542 0.984964 0.777358 -0.180531
C22   C     C_R   0.709328 0.904302 0.800311 -0.141347
C23   C     C_R   0.265792 0.221471 0.813162 -0.136848
C24   C     C_R   0.636292 0.794495 0.721974 -0.111283
C25   C     C_R   0.530980 0.058540 0.662224 -0.237966
C26   C     C_R   0.491639 0.112821 0.615692 0.040691
C27   C     C_R   0.560072 0.183147 0.592745 -0.022288
C28   C     C_R   0.651210 0.174061 0.590940 -0.028507
C29   C     C_R   0.664931 0.089145 0.601743 0.040056
C30   C     C_R   0.611492 0.039737 0.649868 0.002867
C31   C     C_R   0.516898 0.267627 0.477482 -0.194373
C32   C     C_R   0.495789 0.346298 0.461784 -0.119193
C33   C     C_R   0.497485 0.425423 0.544113 -0.100381
C34   C     C_R   0.746905 0.061248 0.473199 -0.113134
C35   C     C_R   0.519987 0.425858 0.642178 -0.112511
C36   C     C_R   0.541693 0.347674 0.658532 -0.133818
C37   C     C_R   0.540779 0.268137 0.576386 0.115300
C38   C     C_R   0.845425 0.135411 0.101012 -0.121626
C39   C     C_R   0.912817 0.234917 0.197542 -0.146999
C40   C     C_R   0.866316 0.290742 0.242350 0.085010
C41   C     C_R   0.750444 0.245744 0.188331 0.042042
C42   C     C_R   0.683733 0.145712 0.090789 -0.151358
C43   C     C_R   0.731090 0.090778 0.048021 -0.131824
C44   C     C_R   0.940998 0.488362 0.355215 -0.231780
C45   C     C_R   0.264460 0.313625 0.721661 -0.129264
C46   C     C_R   0.007814 0.584349 0.455233 0.059587
C47   C     C_R   0.074805 0.588346 0.550101 0.015537
C48   C     C_R   0.075565 0.495824 0.541586 -0.252447
C49   C     C_R   0.007254 0.399429 0.442853 0.058958
C50   C     C_R   0.939182 0.393691 0.347938 0.023904
C51   C     C_R   0.255265 0.747135 0.706488 -0.199333
C52   C     C_R   0.319057 0.838908 0.809759 -0.113521
C53   C     C_R   0.269143 0.867716 0.869421 -0.141487
C54   C     C_R   0.155514 0.804186 0.826488 -0.118216
C55   C     C_R   0.090314 0.712457 0.722642 0.060417
C56   C     C_R   0.753573 0.973181 0.566813 -0.146185
C57   C     C_R   0.140259 0.684662 0.660782 0.084868
C58   C     C_2   0.376935 0.517060 0.935425 -0.145079
C59   C     C_2   0.373282 0.424180 0.925468 -0.201275
C60   C     C_2   0.466375 0.620483 0.031706 -0.117391
C61   C     C_2   0.517186 0.624620 0.125997 -0.204779
C62   C     C_R   0.279922 0.330388 0.083548 -0.142517
C63   C     C_R   0.234358 0.226441 0.071937 0.029174
C64   C     C_R   0.118305 0.155937 0.010322 0.082226
C65   C     C_R   0.050965 0.191093 0.960692 -0.145984
C66   C     C_R   0.097655 0.294768 0.972561 -0.103371
C67   C     C_R   0.909240 0.212132 0.412864 -0.124943
C68   C     C_R   0.211858 0.364622 0.034622 -0.109738
C69   C     C_R   0.069214 0.043711 0.091449 -0.272810
C70   C     C_R   0.008157 0.945400 0.084580 0.065766
C71   C     C_R   0.940054 0.847651 0.985316 0.009556
C72   C     C_R   0.936613 0.850277 0.892800 -0.273785
C73   C     C_R   0.999713 0.949403 0.901281 0.062368
C74   C     C_R   0.065152 0.047280 0.000581 0.017205
C75   C     C_R   0.920783 0.691082 0.016761 -0.139750
C76   C     C_R   0.856636 0.596704 0.014928 -0.109413
C77   C     C_R   0.743365 0.556001 0.975183 -0.078410
C78   C     C_R   0.090324 0.005229 0.802272 -0.102676
C79   C     C_R   0.694020 0.609441 0.936967 -0.108410
C80   C     C_R   0.757638 0.703047 0.937467 -0.184446
C81   C     C_R   0.871462 0.744526 0.977616 0.140379
C82   C     C_R   0.998228 0.952120 0.807202 0.061409
H1    H     H_    0.822488 0.853037 0.683500 0.120226
H2    H     H_    0.332323 0.156852 0.481620 0.120541
H3    H     H_    0.179321 0.803766 0.558936 0.108190
H4    H     H_    0.825740 0.893565 0.123747 0.100163
H5    H     H_    0.180934 0.062066 0.303056 0.104058
H6    H     H_    0.823458 0.620374 0.396876 0.105872
H7    H     H_    0.670334 0.826901 0.152654 0.081771
H8    H     H_    0.331083 0.989452 0.662556 0.092913
H9    H     H_    0.497953 0.679967 0.560665 0.104085
H10   H     H_    0.483368 0.821473 0.518850 0.117455
H11   H     H_    0.178800 0.358284 0.532105 0.097990
H12   H     H_    0.758134 0.069784 0.838496 0.120299
H13   H     H_    0.772124 0.926827 0.878607 0.120366
H14   H     H_    0.489069 0.015865 0.694577 0.128263
H15   H     H_    0.512118 0.204975 0.411786 0.109486
H16   H     H_    0.480651 0.485978 0.531672 0.094280
H17   H     H_    0.520004 0.486528 0.705209 0.102775
H18   H     H_    0.558551 0.348649 0.734764 0.112019
H19   H     H_    0.678700 0.013146 0.973914 0.119936
H20   H     H_    0.284143 0.201583 0.877315 0.104678
H21   H     H_    0.881905 0.092653 0.067633 0.120039
H22   H     H_    0.001368 0.268135 0.238047 0.117438
H23   H     H_    0.594798 0.109394 0.048536 0.102297
H24   H     H_    0.889922 0.487385 0.283739 0.137894
H25   H     H_    0.124726 0.497514 0.614591 0.135107
H26   H     H_    0.295064 0.725805 0.661018 0.123341
H27   H     H_    0.407300 0.887671 0.843586 0.110092
H28   H     H_    0.318710 0.938749 0.949514 0.102973
H29   H     H_    0.118191 0.826003 0.874489 0.125523
H30   H     H_    0.731273 0.109996 0.438344 0.099986
H31   H     H_    0.427888 0.420886 0.991445 0.133208
H32   H     H_    0.501582 0.687483 0.018203 0.119146
H33   H     H_    0.478001 0.559954 0.140931 0.124172
H34   H     H_    0.247734 0.445318 0.044524 0.127236
H35   H     H_    0.368496 0.384806 0.130736 0.103661
H36   H     H_    0.962089 0.138376 0.913674 0.113600
H37   H     H_    0.045135 0.321295 0.934324 0.114015
H38   H     H_    0.282385 0.377669 0.701334 0.090152
H39   H     H_    0.113981 0.119935 0.166997 0.134338
H40   H     H_    0.885667 0.775984 0.814928 0.143218
H41   H     H_    0.008750 0.722891 0.049198 0.107689
H42   H     H_    0.894887 0.555624 0.045146 0.108948
H43   H     H_    0.693969 0.483489 0.974625 0.099770
H44   H     H_    0.719137 0.745260 0.910205 0.099757
H45   H     H_    0.753970 0.945765 0.623389 0.135516
H46   H     H_    0.824542 0.185410 0.359269 0.095534
H47   H     H_    0.175082 0.035163 0.858905 0.087501
H48   H     H_    0.665696 0.649080 0.322592 0.090579
N1    N     N_R   0.941940 0.944580 0.650780 -0.040594
N2    N     N_R   0.206190 0.054080 0.497260 -0.040217
N3    N     N_R   0.056380 0.847410 0.553580 -0.041365
N4    N     N_R   0.944890 0.999100 0.292900 -0.042451
N5    N     N_R   0.058060 0.055420 0.349220 -0.041306
N6    N     N_R   0.943200 0.791100 0.497260 -0.039935
N7    N     N_R   0.795540 0.849750 0.292910 -0.043638
N8    N     N_R   0.205730 0.996760 0.553580 -0.040338
N9    N     N_R   0.056800 0.208900 0.502740 -0.036707
N10   N     N_R   0.204460 0.150250 0.707090 -0.043805
N11   N     N_R   0.794270 0.003240 0.446420 -0.045401
N12   N     N_R   0.204920 0.207570 0.650770 -0.042274
N13   N     N_R   0.793810 0.945920 0.502740 -0.043265
N14   N     N_R   0.943620 0.152590 0.446420 -0.039957
N15   N     N_R   0.055110 0.000900 0.707100 -0.038435
N16   N     N_R   0.795080 0.792430 0.349230 -0.038265
Ni1   Ni    Ni4+2 0.869690 0.869690 0.500000 0.211017
Ni2   Ni    Ni4+2 0.130310 0.130310 0.500000 0.213179
Ni3   Ni    Ni4+2 0.129250 0.998840 0.629170 0.217356
Ni4   Ni    Ni4+2 0.870750 0.001160 0.370830 0.214546
H49   H     H_    0.642804 0.732039 0.739074 0.103568
N17   N     N_3   0.732453 0.252486 0.583355 -0.215685
H50   H     H_    0.695466 0.249889 0.509620 0.095650
H51   H     H_    0.763526 0.329922 0.646280 0.122322
H52   H     H_    0.477141 0.345325 0.385408 0.109836
N18   N     N_3   0.701229 0.300197 0.234388 -0.222344
H53   H     H_    0.713275 0.297266 0.305721 0.096221
H54   H     H_    0.615818 0.258443 0.182638 0.092280
N19   N     N_3   0.974843 0.647380 0.683298 -0.225012
H55   H     H_    0.956585 0.567901 0.663963 0.107954
H56   H     H_    0.930173 0.646151 0.612492 0.113964
H57   H     H_    0.324122 0.518887 0.866949 0.128424
N20   N     N_3   0.307462 0.193780 0.121299 -0.231082
H58   H     H_    0.292175 0.179859 0.179904 0.102054
H59   H     H_    0.290636 0.120992 0.061723 0.091847
H60   H     H_    0.606670 0.578837 0.907848 0.111455

loop_
_geom_bond_atom_site_label_1
_geom_bond_atom_site_label_2
_ccdc_geom_bond_type
C53   H28   S    
C66   C68   A    
C34   N11   A    
C13   H8    S    
C34   H30   S    
C73   C74   A    
C60   H32   S    
C35   C36   A    
C2    C12   A    
C39   H22   S    
C20   C30   S    
C53   C54   A    
C75   H41   S    
C13   N8    A    
C63   N20   S    
C10   H6    S    
C26   C27   A    
C29   C30   A    
C18   C24   A    
C18   H9    S    
C36   C37   A    
N20   H59   S    
C78   H47   S    
N10   N12   A    
C7    N3    A    
N11   N13   A    
C38   C39   A    
C80   C81   A    
C11   C14   A    
C23   H20   S    
C21   H12   S    
C58   C60   S    
N4    Ni4   S    
C33   H16   S    
C41   C42   A    
C56   H45   S    
C78   C82   A    
C62   H35   S    
N14   Ni4   S    
C19   H10   S    
C78   N15   A    
C6    C15   A    
C54   C55   A    
C56   N13   A    
C3    C23   A    
N19   H55   S    
C51   H26   S    
C61   H33   S    
N3    N6    A    
C65   H36   S    
N19   H56   S    
N1    Ni1   S    
C70   C71   A    
C51   C57   A    
C4    C29   S    
C41   N18   S    
N20   H58   S    
C55   N19   S    
C17   C70   S    
C21   C22   A    
C4    C56   A    
C48   C49   A    
C35   H17   S    
C67   N14   A    
C24   H49   S    
C44   C46   A    
N11   Ni4   S    
C77   C79   A    
N8    Ni3   S    
C4    C34   A    
N9    Ni2   S    
C6    H2    S    
C8    N4    A    
C51   C52   A    
N2    Ni2   S    
C47   C48   A    
N12   Ni2   S    
C23   N10   A    
N3    Ni3   S    
C76   C77   A    
C6    N2    A    
C2    C67   A    
C16   C46   S    
C39   C40   A    
C18   C19   A    
C15   C26   S    
C25   C26   A    
C14   C61   S    
C3    C45   A    
C63   C64   A    
C60   C61   D    
C76   H42   S    
N13   Ni1   S    
C75   C76   A    
C43   H19   S    
C38   H21   S    
C2    C49   S    
C47   C57   S    
C32   H52   S    
N9    N14   A    
C11   H7    S    
C31   C32   A    
C69   H39   S    
C59   H31   S    
C62   C63   A    
C12   N9    A    
C69   C74   A    
C36   H18   S    
C20   C21   A    
C5    C14   A    
C68   H34   S    
C9    N5    A    
C45   H38   S    
C9    C17   A    
C40   C41   A    
N17   H51   S    
C28   N17   S    
C66   H37   S    
C55   C57   A    
C7    C16   A    
C45   N12   A    
C22   C24   A    
N7    Ni4   S    
C58   C59   D    
C42   C43   A    
C58   H57   S    
C73   C82   S    
C77   H43   S    
C52   C53   A    
N16   Ni1   S    
C44   C50   A    
C25   C30   A    
C46   C47   A    
C28   C29   A    
C5    H48   S    
C5    N16   A    
C72   H40   S    
C75   C81   A    
C10   N6    A    
C72   C73   A    
C1    N1    A    
N4    N5    A    
C31   H15   S    
C44   H24   S    
C1    H1    S    
C8    C17   A    
C62   C68   A    
N7    N16   A    
C19   C20   A    
C13   C15   A    
C1    C82   A    
C38   C43   A    
C65   C66   A    
C10   C16   A    
C67   H46   S    
C32   C33   A    
C7    H3    S    
C80   H44   S    
C52   H27   S    
C27   C37   S    
C40   C50   S    
C64   C65   A    
N18   H54   S    
C33   C35   A    
C54   H29   S    
N1    N15   A    
C8    H4    S    
N5    Ni2   S    
C79   H60   S    
C11   N7    A    
C69   C70   A    
C12   H11   S    
C42   H23   S    
N15   Ni3   S    
N6    Ni1   S    
C79   C80   A    
C48   H25   S    
C22   H13   S    
C31   C37   A    
C71   C72   A    
N18   H53   S    
N17   H50   S    
C25   H14   S    
C49   C50   A    
C27   C28   A    
C64   C74   S    
N2    N8    A    
N10   Ni3   S    
C9    H5    S    
C71   C81   S    
C3    C59   S    
