data_mof_unit_65469.cif
_audit_creation_date              2012-12-10T19:59:58-0500
_audit_creation_method            fapswitch 2.2
_symmetry_space_group_name_H-M    P1
_symmetry_Int_Tables_number       1
_space_group_crystal_system       triclinic
_cell_length_a                    18.364026
_cell_length_b                    18.363489
_cell_length_c                    36.222806
_cell_angle_alpha                 90.000225
_cell_angle_beta                  90.00191
_cell_angle_gamma                 89.991005
_cell_volume                      12215.329393

loop_
_atom_site_label
_atom_site_type_symbol
_atom_type_description
_atom_site_fract_x
_atom_site_fract_y
_atom_site_fract_z
_atom_type_partial_charge
C1    C     C_R   0.499999 0.000000 0.901105 0.804221
C2    C     C_R   0.434572 0.010841 0.730858 0.375078
C3    C     C_R   0.272977 0.781380 0.536724 0.338024
C4    C     C_3   0.213110 0.727892 0.933251 0.202240
C5    C     C_3   0.274226 0.215243 0.933196 0.201584
C6    C     C_3   0.786105 0.272864 0.933234 0.202080
C7    C     C_3   0.725773 0.784752 0.933201 0.201531
C8    C     C_3   0.215246 0.274226 0.933195 0.201493
C9    C     C_3   0.272096 0.786882 0.933250 0.202208
C10   C     C_3   0.784755 0.725773 0.933201 0.201566
C11   C     C_3   0.727125 0.213888 0.933235 0.202045
C12   C     C_3   0.714175 0.226848 0.433229 0.201947
C13   C     C_R   0.012554 0.434862 0.730860 0.375063
C14   C     C_3   0.773696 0.714711 0.433233 0.201762
C15   C     C_3   0.285960 0.773020 0.433225 0.201991
C16   C     C_3   0.225790 0.284769 0.433198 0.201574
C17   C     C_3   0.714718 0.773697 0.433231 0.201749
C18   C     C_3   0.773152 0.285826 0.433229 0.201962
C19   C     C_3   0.284775 0.225792 0.433199 0.201582
C20   C     C_3   0.226978 0.714041 0.433224 0.201940
C21   C     C_R   0.012485 0.435196 0.769461 -0.173162
C22   C     C_R   0.565092 0.989229 0.769463 -0.173146
C23   C     C_R   0.987509 0.564802 0.769461 -0.173326
C24   C     C_R   0.565430 0.989168 0.730862 0.375039
C25   C     C_R   0.434908 0.010781 0.769459 -0.173318
C26   C     C_R   0.511093 0.934958 0.269461 -0.173258
C27   C     C_R   0.065099 0.489273 0.269463 -0.173115
C28   C     C_R   0.488903 0.065041 0.269461 -0.173085
C29   C     C_R   0.934900 0.510720 0.269459 -0.173227
C30   C     C_R   0.999997 0.499999 0.788740 -0.008907
C31   C     C_R   0.499999 0.000005 0.788743 -0.009190
C32   C     C_R   0.499998 0.999999 0.288742 -0.009146
C33   C     C_R   0.999998 0.499996 0.288743 -0.009199
C34   C     C_R   0.499998 0.000000 0.211359 -0.092024
C35   C     C_R   0.000002 0.499998 0.211359 -0.092046
C36   C     C_R   0.999998 0.500000 0.711362 -0.091944
C37   C     C_R   0.500002 0.000004 0.711359 -0.092034
C38   C     C_1   0.999997 0.499999 0.828384 0.052591
C39   C     C_1   0.499998 0.000004 0.828385 0.052571
C40   C     C_1   0.499999 0.999999 0.328385 0.052685
C41   C     C_R   1.000000 0.500000 0.901105 0.804231
C42   C     C_1   0.999997 0.499997 0.328385 0.052679
C43   C     C_1   0.499999 0.000001 0.171598 0.151673
C44   C     C_1   0.000003 0.499998 0.171598 0.151670
C45   C     C_1   0.999999 0.500001 0.671599 0.151675
C46   C     C_1   0.500003 0.000003 0.671598 0.151676
C47   C     C_1   0.499999 0.000001 0.138376 0.004984
C48   C     C_1   0.000003 0.499999 0.138375 0.004994
C49   C     C_1   0.999999 0.500001 0.638377 0.004991
C50   C     C_1   0.500003 0.000001 0.638375 0.005010
C51   C     C_1   0.999998 0.499999 0.861605 -0.052846
C52   C     C_R   0.999999 0.499999 0.401106 0.804314
C53   C     C_1   0.499997 0.000002 0.861607 -0.052825
C54   C     C_1   0.499999 0.999999 0.361606 -0.052669
C55   C     C_1   0.999997 0.499998 0.361607 -0.052661
C56   C     C_R   0.500000 0.000000 0.098886 0.840877
C57   C     C_R   0.000001 0.500000 0.098886 0.840837
C58   C     C_R   1.000000 0.500000 0.598886 0.841021
C59   C     C_R   0.500001 0.000000 0.598886 0.840918
C60   C     C_R   0.640895 0.860564 0.000570 0.877432
C61   C     C_R   0.139425 0.640917 0.000584 0.876780
C62   C     C_R   0.359103 0.139435 0.000571 0.877464
C63   C     C_R   0.500000 1.000000 0.401105 0.804338
C64   C     C_R   0.860570 0.359092 0.000578 0.877148
C65   C     C_R   0.640907 0.139431 0.000579 0.877157
C66   C     C_R   0.139436 0.359104 0.000570 0.877446
C67   C     C_R   0.359082 0.860575 0.000584 0.876783
C68   C     C_R   0.860566 0.640896 0.000570 0.877441
C69   C     C_R   0.140895 0.360564 0.500570 0.877442
C70   C     C_R   0.639432 0.140905 0.500576 0.877285
C71   C     C_R   0.859093 0.639425 0.500579 0.877220
C72   C     C_R   0.360567 0.859095 0.500576 0.877205
C73   C     C_R   0.140904 0.639434 0.500576 0.877222
C74   C     C_R   0.488842 0.065378 0.230860 0.375048
C75   C     C_R   0.639426 0.859093 0.500578 0.877227
C76   C     C_R   0.859094 0.360569 0.500576 0.877304
C77   C     C_R   0.360566 0.140896 0.500570 0.877425
C78   C     C_R   0.253711 0.799215 0.972941 0.017167
C79   C     C_R   0.201661 0.254606 0.972624 0.018894
C80   C     C_R   0.745958 0.201105 0.972833 0.017518
C81   C     C_R   0.798343 0.745398 0.972629 0.018943
C82   C     C_R   0.254606 0.201660 0.972625 0.018915
C83   C     C_R   0.200782 0.746284 0.972941 0.017143
C84   C     C_R   0.745396 0.798342 0.972628 0.018883
C85   C     C_R   0.934564 0.510780 0.230858 0.375074
C86   C     C_R   0.798891 0.254036 0.972832 0.017484
C87   C     C_R   0.754151 0.298783 0.472788 0.017712
C88   C     C_R   0.701418 0.754362 0.472719 0.018619
C89   C     C_R   0.245899 0.701164 0.472803 0.017653
C90   C     C_R   0.298350 0.245405 0.472630 0.018822
C91   C     C_R   0.754360 0.701417 0.472720 0.018608
C92   C     C_R   0.701216 0.245848 0.472788 0.017703
C93   C     C_R   0.245402 0.298349 0.472629 0.018848
C94   C     C_R   0.298835 0.754099 0.472803 0.017663
C95   C     C_R   0.298997 0.809228 0.003383 -0.278926
C96   C     C_R   0.511154 0.934622 0.230860 0.375071
C97   C     C_R   0.190867 0.299091 0.003296 -0.279763
C98   C     C_R   0.700957 0.190816 0.003355 -0.278951
C99   C     C_R   0.809139 0.700912 0.003299 -0.279762
C100  C     C_R   0.299090 0.190864 0.003297 -0.279779
C101  C     C_R   0.190774 0.701001 0.003383 -0.278935
C102  C     C_R   0.700911 0.809136 0.003298 -0.279771
C103  C     C_R   0.809187 0.299040 0.003354 -0.278947
C104  C     C_R   0.799048 0.309179 0.503341 -0.278952
C105  C     C_R   0.690820 0.799047 0.503332 -0.279755
C106  C     C_R   0.200949 0.690827 0.503341 -0.278981
C107  C     C_R   0.065437 0.489214 0.230862 0.375037
C108  C     C_R   0.309139 0.200913 0.503299 -0.279746
C109  C     C_R   0.799045 0.690816 0.503333 -0.279793
C110  C     C_R   0.690824 0.200951 0.503340 -0.278995
C111  C     C_R   0.200911 0.309136 0.503298 -0.279792
C112  C     C_R   0.309176 0.799049 0.503342 -0.279005
C113  C     C_R   0.281617 0.772738 0.036729 0.337917
C114  C     C_R   0.226636 0.280995 0.036734 0.337096
C115  C     C_R   0.718595 0.227054 0.036729 0.338023
C116  C     C_R   0.773370 0.719006 0.036735 0.337067
C117  C     C_R   0.280997 0.226634 0.036734 0.337058
C118  C     C_R   0.987441 0.565138 0.730860 0.375076
C119  C     C_R   0.227267 0.718384 0.036729 0.337914
C120  C     C_R   0.719008 0.773367 0.036735 0.337094
C121  C     C_R   0.772951 0.281406 0.036729 0.338027
C122  C     C_R   0.781324 0.273034 0.536728 0.338054
C123  C     C_R   0.726750 0.781110 0.536750 0.337028
C124  C     C_R   0.218622 0.727029 0.536723 0.338050
C125  C     C_R   0.273364 0.219001 0.536735 0.337050
C126  C     C_R   0.781110 0.726745 0.536751 0.337039
C127  C     C_R   0.726972 0.218677 0.536728 0.338062
C128  C     C_R   0.219001 0.273360 0.536734 0.337018
Cl1   Cl    Cl    0.326352 0.794313 0.078619 -0.411114
Cl2   Cl    Cl    0.704447 0.825212 0.578703 -0.402888
Cl3   Cl    Cl    0.174237 0.705069 0.578649 -0.412008
Cl4   Cl    Cl    0.295871 0.175088 0.578713 -0.403052
Cl5   Cl    Cl    0.825213 0.704439 0.578704 -0.402452
Cl6   Cl    Cl    0.704963 0.174327 0.578654 -0.411676
Cl7   Cl    Cl    0.175090 0.295865 0.578712 -0.402665
Cl8   Cl    Cl    0.294941 0.825766 0.578650 -0.411681
Cl9   Cl    Cl    0.133606 0.746041 0.906170 -0.364146
Cl10  Cl    Cl    0.256971 0.136604 0.905346 -0.366799
Cl11  Cl    Cl    0.865305 0.255020 0.905888 -0.364951
Cl12  Cl    Cl    0.204115 0.324887 0.078715 -0.403113
Cl13  Cl    Cl    0.743022 0.863388 0.905351 -0.367023
Cl14  Cl    Cl    0.136610 0.256974 0.905343 -0.367096
Cl15  Cl    Cl    0.253939 0.866384 0.906169 -0.364255
Cl16  Cl    Cl    0.863391 0.743024 0.905354 -0.366891
Cl17  Cl    Cl    0.744958 0.134685 0.905888 -0.365077
Cl18  Cl    Cl    0.635093 0.244562 0.405774 -0.365376
Cl19  Cl    Cl    0.756231 0.635870 0.405568 -0.366561
Cl20  Cl    Cl    0.365093 0.755246 0.405816 -0.365080
Cl21  Cl    Cl    0.243044 0.363413 0.405353 -0.367058
Cl22  Cl    Cl    0.635878 0.756245 0.405563 -0.366558
Cl23  Cl    Cl    0.674167 0.205145 0.078647 -0.411527
Cl24  Cl    Cl    0.755434 0.364910 0.405777 -0.365249
Cl25  Cl    Cl    0.363418 0.243056 0.405358 -0.367105
Cl26  Cl    Cl    0.244746 0.634909 0.405812 -0.365256
Cl27  Cl    Cl    0.525357 0.851435 0.207734 -0.426221
Cl28  Cl    Cl    0.148700 0.475480 0.207738 -0.426090
Cl29  Cl    Cl    0.474639 0.148566 0.207735 -0.426172
Cl30  Cl    Cl    0.851303 0.524515 0.207730 -0.426195
Cl31  Cl    Cl    0.028511 0.351977 0.707738 -0.426393
Cl32  Cl    Cl    0.648683 0.975365 0.707738 -0.426142
Cl33  Cl    Cl    0.971484 0.648023 0.707739 -0.426444
Cl34  Cl    Cl    0.795889 0.675104 0.078714 -0.403251
Cl35  Cl    Cl    0.351322 0.024643 0.707730 -0.426214
Cl36  Cl    Cl    0.324889 0.204109 0.078716 -0.403132
Cl37  Cl    Cl    0.205698 0.673650 0.078619 -0.411032
Cl38  Cl    Cl    0.675105 0.795882 0.078713 -0.403058
Cl39  Cl    Cl    0.794866 0.325835 0.078647 -0.411432
Cl40  Cl    Cl    0.825676 0.295046 0.578654 -0.412121
H1    H     H_    0.235018 0.671932 0.929421 0.056426
H2    H     H_    0.829737 0.736691 0.429911 0.056075
H3    H     H_    0.264002 0.829029 0.429676 0.056312
H4    H     H_    0.169731 0.262753 0.430010 0.056098
H5    H     H_    0.736710 0.829735 0.429909 0.056082
H6    H     H_    0.829167 0.263863 0.429729 0.056284
H7    H     H_    0.262768 0.169728 0.430013 0.056082
H8    H     H_    0.170971 0.736002 0.429675 0.056317
H9    H     H_    0.022158 0.384958 0.784392 0.214353
H10   H     H_    0.615549 0.980876 0.784398 0.214499
H11   H     H_    0.977836 0.615041 0.784393 0.214314
H12   H     H_    0.330289 0.237255 0.930013 0.056058
H13   H     H_    0.384450 0.019135 0.784392 0.214456
H14   H     H_    0.519693 0.884539 0.284394 0.214419
H15   H     H_    0.115562 0.480960 0.284398 0.214510
H16   H     H_    0.480304 0.115460 0.284396 0.214485
H17   H     H_    0.884436 0.519033 0.284392 0.214454
H18   H     H_    0.764159 0.328861 0.929644 0.056324
H19   H     H_    0.669711 0.762738 0.930021 0.056047
H20   H     H_    0.237260 0.330288 0.930012 0.056047
H21   H     H_    0.328055 0.764976 0.929419 0.056434
H22   H     H_    0.762744 0.669709 0.930022 0.056031
H23   H     H_    0.671128 0.235836 0.929647 0.056327
H24   H     H_    0.736139 0.170833 0.429728 0.056283
O1    O     O_3   0.500000 0.000000 0.000000 -0.555795
O2    O     O_R   0.500000 0.939300 0.418540 -0.605377
O3    O     O_R   0.060700 0.500000 0.418540 -0.605248
O4    O     O_R   0.500000 0.060700 0.418540 -0.605217
O5    O     O_R   0.500000 0.939270 0.081460 -0.587927
O6    O     O_R   0.060730 0.500000 0.081460 -0.587926
O7    O     O_R   0.500000 0.060730 0.081460 -0.587940
O8    O     O_R   0.939270 0.500000 0.081460 -0.587917
O9    O     O_R   1.000000 0.439270 0.581460 -0.587972
O10   O     O_R   0.560730 0.000000 0.581460 -0.587932
O11   O     O_R   0.000000 0.560730 0.581460 -0.587972
O12   O     O_3   1.000000 0.500000 0.000000 -0.555800
O13   O     O_R   0.439270 0.000000 0.581460 -0.587927
O14   O     O_R   0.646180 0.914510 0.978640 -0.598301
O15   O     O_R   0.085490 0.646180 0.978640 -0.598936
O16   O     O_R   0.353820 0.085490 0.978640 -0.598207
O17   O     O_R   0.914510 0.353820 0.978640 -0.598749
O18   O     O_R   0.646180 0.085490 0.978640 -0.598738
O19   O     O_R   0.085490 0.353820 0.978640 -0.598310
O20   O     O_R   0.353820 0.914510 0.978640 -0.598942
O21   O     O_R   0.914510 0.646180 0.978640 -0.598209
O22   O     O_R   0.146180 0.414510 0.478640 -0.598301
O23   O     O_3   1.000000 0.500000 0.500000 -0.555804
O24   O     O_R   0.585490 0.146180 0.478640 -0.598705
O25   O     O_R   0.853820 0.585490 0.478640 -0.598432
O26   O     O_R   0.414510 0.853820 0.478640 -0.598675
O27   O     O_R   0.146180 0.585490 0.478640 -0.598732
O28   O     O_R   0.585490 0.853820 0.478640 -0.598418
O29   O     O_R   0.853820 0.414510 0.478640 -0.598638
O30   O     O_R   0.414510 0.146180 0.478640 -0.598332
O31   O     O_R   0.414550 0.146120 0.021350 -0.599588
O32   O     O_R   0.853880 0.414550 0.021350 -0.599324
O33   O     O_R   0.585450 0.853880 0.021350 -0.599518
O34   O     O_3   0.500000 0.000000 0.500000 -0.555815
O35   O     O_R   0.146120 0.585450 0.021350 -0.599173
O36   O     O_R   0.414550 0.853880 0.021350 -0.599174
O37   O     O_R   0.853880 0.585450 0.021350 -0.599575
O38   O     O_R   0.585450 0.146120 0.021350 -0.599338
O39   O     O_R   0.146120 0.414550 0.021350 -0.599523
O40   O     O_R   0.914550 0.646120 0.521350 -0.599504
O41   O     O_R   0.353880 0.914550 0.521350 -0.599357
O42   O     O_R   0.085450 0.353880 0.521350 -0.599601
O43   O     O_R   0.646120 0.085450 0.521350 -0.599344
O44   O     O_R   0.914550 0.353880 0.521350 -0.599402
O45   O     O_R   0.439300 1.000000 0.918540 -0.605454
O46   O     O_R   0.353880 0.085450 0.521350 -0.599583
O47   O     O_R   0.085450 0.646120 0.521350 -0.599343
O48   O     O_R   0.646120 0.914550 0.521350 -0.599506
O49   O     O_R   1.000000 0.439300 0.918540 -0.605235
O50   O     O_R   0.560700 1.000000 0.918540 -0.605230
O51   O     O_R   1.000000 0.560700 0.918540 -0.605432
O52   O     O_R   0.939300 0.500000 0.418540 -0.605348
Zn1   Zn    Zn3+2 0.500000 0.913220 0.030510 1.085099
Zn2   Zn    Zn3+2 0.000000 0.586770 0.969480 1.064665
Zn3   Zn    Zn3+2 0.413230 0.000000 0.969480 1.064656
Zn4   Zn    Zn3+2 0.000000 0.413230 0.969480 1.064840
Zn5   Zn    Zn3+2 0.086770 0.500000 0.469480 1.064870
Zn6   Zn    Zn3+2 0.500000 0.086770 0.469480 1.064898
Zn7   Zn    Zn3+2 0.913230 0.500000 0.469480 1.064804
Zn8   Zn    Zn3+2 0.500000 0.913230 0.469480 1.064768
Zn9   Zn    Zn3+2 0.086780 0.500000 0.030510 1.085098
Zn10  Zn    Zn3+2 0.500000 0.086780 0.030510 1.085042
Zn11  Zn    Zn3+2 0.913220 0.500000 0.030510 1.085046
Zn12  Zn    Zn3+2 1.000000 0.413220 0.530510 1.085014
Zn13  Zn    Zn3+2 0.586780 1.000000 0.530510 1.085066
Zn14  Zn    Zn3+2 0.000000 0.586780 0.530510 1.085046
Zn15  Zn    Zn3+2 0.413220 1.000000 0.530510 1.085032
Zn16  Zn    Zn3+2 0.586770 0.000000 0.969480 1.064837

loop_
_geom_bond_atom_site_label_1
_geom_bond_atom_site_label_2
_ccdc_geom_bond_type
C25   C31   A    
C7    C10   S    
O23   Zn7   S    
C72   C112  S    
C118  Cl33  S    
C76   C104  S    
C115  C121  A    
O52   Zn7   S    
C67   O20   A    
C57   O6    A    
C64   C103  S    
C17   C88   S    
C84   C102  A    
C60   O14   A    
O47   Zn14  S    
C61   C101  S    
C17   Cl22  S    
C59   O10   A    
C127  Cl6   S    
C7    Cl13  S    
C22   H10   S    
O2    Zn8   S    
C28   C74   A    
C15   C94   S    
C27   C107  A    
C9    Cl15  S    
C120  Cl38  S    
C48   C57   S    
O41   Zn15  S    
O3    Zn5   S    
C2    C37   A    
C8    H20   S    
C26   C32   A    
C18   H6    S    
C39   C53   T    
C5    C82   S    
C105  C123  A    
C16   C93   S    
C61   O35   A    
C113  Cl1   S    
C65   O38   A    
C41   O51   A    
C33   C42   S    
C75   O28   A    
C66   C97   S    
C116  Cl34  S    
C34   C96   A    
C65   C98   S    
C73   O47   A    
C52   O52   A    
C15   Cl20  S    
C9    H21   S    
C96   Cl27  S    
C104  C122  A    
C54   C63   S    
O18   Zn16  S    
O49   Zn4   S    
C68   O37   A    
C29   C33   A    
C89   C94   A    
O1    Zn16  S    
C72   O41   A    
C73   O27   A    
C3    Cl8   S    
C12   Cl18  S    
C122  C127  A    
C1    C53   S    
C80   C86   A    
C70   C110  S    
C4    Cl9   S    
C113  C119  A    
C78   C83   A    
O12   Zn9   S    
O29   Zn7   S    
C58   O9    A    
C25   H13   S    
O5    Zn1   S    
C89   C106  A    
C125  C128  A    
C71   O40   A    
C16   Cl21  S    
C114  Cl12  S    
C108  C125  A    
C2    C25   A    
O33   Zn1   S    
C36   C118  A    
C119  Cl37  S    
C21   C30   A    
C29   C85   A    
C107  Cl28  S    
O11   Zn14  S    
C14   H2    S    
C110  C127  A    
C9    C78   S    
C56   O7    A    
C59   O13   A    
C21   H9    S    
C7    C84   S    
O40   Zn14  S    
C87   C92   A    
C67   C95   S    
C77   O30   A    
C14   C17   S    
C75   O48   A    
C52   O3    A    
O50   Zn16  S    
C23   C118  A    
O20   Zn3   S    
C60   C102  S    
C86   C103  A    
O34   Zn13  S    
C62   O16   A    
O37   Zn11  S    
C17   H5    S    
C6    H18   S    
O39   Zn9   S    
C27   H15   S    
C117  Cl36  S    
C26   C96   A    
C15   C20   S    
C121  Cl39  S    
C122  Cl40  S    
C4    H1    S    
C34   C43   S    
C15   H3    S    
C101  C119  A    
C23   C30   A    
C28   C32   A    
C12   H24   S    
C126  Cl5   S    
C13   C36   A    
O35   Zn9   S    
C22   C31   A    
O10   Zn13  S    
C99   C116  A    
C61   O15   A    
O12   Zn11  S    
C125  Cl4   S    
C11   Cl17  S    
C123  C126  A    
C10   Cl16  S    
C38   C51   T    
C81   C99   A    
C1    O45   A    
C66   O39   A    
C27   C33   A    
C49   C58   S    
C60   O33   A    
C124  Cl3   S    
C41   O49   A    
C78   C95   A    
C12   C18   S    
O19   Zn4   S    
C2    Cl35  S    
O34   Zn8   S    
C23   H11   S    
C97   C114  A    
C5    H12   S    
C68   O21   A    
C42   C55   T    
C5    C8    S    
C16   H4    S    
C11   C80   S    
C88   C91   A    
C45   C49   T    
C3    C112  A    
O43   Zn13  S    
O51   Zn2   S    
O22   Zn5   S    
C24   Cl32  S    
C24   C37   A    
O1    Zn3   S    
C63   O2    A    
C13   C21   A    
C36   C45   S    
C76   O44   A    
C10   H22   S    
C62   O31   A    
O44   Zn12  S    
C35   C44   S    
O17   Zn4   S    
C65   O18   A    
O12   Zn4   S    
C20   Cl26  S    
C66   O19   A    
C34   C74   A    
C62   C100  S    
C29   H17   S    
O30   Zn6   S    
O6    Zn9   S    
C93   C111  A    
C58   O11   A    
C75   C105  S    
C40   C54   T    
O28   Zn8   S    
C57   O8    A    
C77   O46   A    
C19   Cl25  S    
C22   C24   A    
C64   O17   A    
C128  Cl7   S    
C85   Cl30  S    
C50   C59   S    
C115  Cl23  S    
C103  C121  A    
O15   Zn2   S    
O42   Zn12  S    
C19   C90   S    
C6    C11   S    
C81   C84   A    
C102  C120  A    
C3    C124  A    
O23   Zn14  S    
C90   C93   A    
C56   O5    A    
O13   Zn15  S    
C64   O32   A    
C7    H19   S    
O34   Zn6   S    
O14   Zn16  S    
C83   C101  A    
C74   Cl29  S    
C80   C98   A    
O48   Zn13  S    
O26   Zn8   S    
C14   Cl19  S    
C77   C108  S    
C69   O22   A    
O38   Zn10  S    
C71   O25   A    
O34   Zn15  S    
C79   C82   A    
C52   C55   S    
O7    Zn10  S    
C79   C97   A    
O36   Zn1   S    
C76   O29   A    
O9    Zn12  S    
C72   O26   A    
C20   C89   S    
C46   C50   T    
C10   C81   S    
C18   C87   S    
C6    C86   S    
C82   C100  A    
C70   O24   A    
O1    Zn10  S    
C91   C109  A    
C5    Cl10  S    
C37   C46   S    
C68   C99   S    
C90   C108  A    
C123  Cl2   S    
C8    C79   S    
C88   C105  A    
C35   C85   A    
O31   Zn10  S    
C92   C110  A    
C73   C106  S    
C20   H8    S    
C4    C83   S    
C67   O36   A    
C95   C113  A    
C16   C19   S    
C71   C109  S    
C94   C112  A    
O23   Zn12  S    
C26   H14   S    
C31   C39   S    
C98   C115  A    
C11   H23   S    
C70   O43   A    
C32   C40   S    
C28   H16   S    
O21   Zn2   S    
C69   C111  S    
C19   H7    S    
C14   C91   S    
O16   Zn3   S    
C114  C117  A    
C35   C107  A    
C1    O50   A    
C6    Cl11  S    
O8    Zn11  S    
C87   C104  A    
C116  C120  A    
C109  C126  A    
C12   C92   S    
C13   Cl31  S    
O46   Zn15  S    
O24   Zn6   S    
O27   Zn5   S    
C106  C124  A    
C111  C128  A    
O23   Zn5   S    
O1    Zn1   S    
C63   O4    A    
C8    Cl14  S    
C100  C117  A    
O25   Zn7   S    
C30   C38   S    
O4    Zn6   S    
C4    C9    S    
C43   C47   T    
C41   C51   S    
C69   O42   A    
O12   Zn2   S    
C44   C48   T    
O32   Zn11  S    
C47   C56   S    
C18   Cl24  S    
O45   Zn3   S    
