data_mof_unit_29030.cif
_audit_creation_date              2012-12-10T22:11:15-0500
_audit_creation_method            fapswitch 2.2
_symmetry_space_group_name_H-M    P1
_symmetry_Int_Tables_number       1
_space_group_crystal_system       triclinic
_cell_length_a                    12.104233
_cell_length_b                    12.299235
_cell_length_c                    22.949205
_cell_angle_alpha                 90.626619
_cell_angle_beta                  91.108386
_cell_angle_gamma                 91.104848
_cell_volume                      3415.01964821

loop_
_atom_site_label
_atom_site_type_symbol
_atom_type_description
_atom_site_fract_x
_atom_site_fract_y
_atom_site_fract_z
_atom_type_partial_charge
C1    C     C_R   0.654897 0.998216 0.580647 0.863610
C2    C     C_R   0.340582 0.001638 0.421811 0.860136
C3    C     C_R   0.898423 0.765181 0.150330 -0.302363
C4    C     C_R   0.103433 0.196018 0.870539 -0.275213
C5    C     C_R   0.082103 0.902588 0.167787 -0.269243
C6    C     C_R   0.914396 0.151102 0.802196 -0.286010
C7    C     C_R   0.085845 0.820680 0.125577 0.469062
C8    C     C_R   0.909921 0.227723 0.846686 0.480878
C9    C     C_R   0.904504 0.119651 0.169176 -0.164779
C10   C     C_R   0.099449 0.832613 0.803242 -0.197647
C11   C     C_R   0.907459 0.201236 0.128680 -0.221103
C12   C     C_R   0.094696 0.751055 0.844018 -0.209175
C13   C     C_R   0.158660 0.916382 0.296253 -0.192245
C14   C     C_R   0.899155 0.082594 0.671801 -0.157060
C15   C     C_R   0.240603 0.916497 0.339063 -0.220693
C16   C     C_R   0.814225 0.083840 0.630883 -0.224412
C17   C     C_R   0.825228 0.095590 0.296957 -0.197294
C18   C     C_R   0.123484 0.901263 0.676188 -0.174111
C19   C     C_R   0.747779 0.094798 0.340462 -0.199718
C20   C     C_R   0.202230 0.901907 0.633558 -0.224113
C21   C     C_3   0.990294 0.006879 0.247682 -0.063207
C22   C     C_3   0.010438 0.994620 0.751730 -0.064567
C23   C     C_R   0.653642 0.001887 0.420371 0.868670
C24   C     C_R   0.346267 0.997884 0.579425 0.852097
C25   C     C_R   0.087744 0.005318 0.291032 0.114751
C26   C     C_R   0.911610 0.993498 0.709203 0.111927
C27   C     C_R   0.250271 0.002393 0.379369 -0.070561
C28   C     C_R   0.738358 0.996986 0.626866 -0.074060
C29   C     C_R   0.889724 0.003212 0.286663 0.122438
C30   C     C_R   0.108971 0.993725 0.711778 0.134239
C31   C     C_R   0.733693 0.002375 0.374533 -0.018367
C32   C     C_R   0.265636 0.996057 0.624657 -0.017930
C33   C     C_R   0.992413 0.107324 0.209318 0.112892
C34   C     C_R   0.008054 0.899402 0.793713 0.118527
C35   C     C_R   0.996998 0.274622 0.128048 -0.063917
C36   C     C_R   0.001281 0.737751 0.878427 -0.062506
C37   C     C_R   0.990521 0.912229 0.204122 0.068159
C38   C     C_R   0.011368 0.093455 0.792316 0.057437
C39   C     C_R   0.992516 0.751822 0.116928 -0.127728
C40   C     C_R   0.006560 0.253302 0.879802 -0.139738
C41   C     C_R   0.993399 0.663488 0.074582 0.886904
C42   C     C_R   0.006462 0.338275 0.924257 0.899469
C43   C     C_R   0.998887 0.354517 0.082126 0.852819
C44   C     C_R   0.000726 0.650227 0.920288 0.864913
C45   C     C_R   0.096423 0.089882 0.332896 -0.205905
C46   C     C_R   0.837025 0.904591 0.703507 -0.242389
C47   C     C_R   0.174775 0.088249 0.377711 -0.013338
C48   C     C_R   0.746928 0.908187 0.665131 -0.005396
C49   C     C_R   0.873993 0.910707 0.321466 -0.163304
C50   C     C_R   0.172632 0.088558 0.701471 -0.204807
C51   C     C_R   0.795789 0.909792 0.364404 -0.204289
C52   C     C_R   0.251257 0.088968 0.658853 -0.226358
C53   C     C_R   0.082884 0.181290 0.208320 -0.240249
C54   C     C_R   0.916234 0.888178 0.830079 -0.210434
C55   C     C_R   0.083306 0.268049 0.169928 -0.009253
C56   C     C_R   0.912148 0.809465 0.872764 -0.013045
C57   C     C_R   0.896715 0.845095 0.192970 -0.201578
C58   C     C_R   0.104735 0.114604 0.828532 -0.163665
H1    H     H_    0.925125 0.840051 0.316268 0.143057
H2    H     H_    0.159145 0.164665 0.723887 0.148181
H3    H     H_    0.153869 0.173271 0.237032 0.147761
H4    H     H_    0.847849 0.943317 0.825813 0.138913
H5    H     H_    0.820095 0.855166 0.215567 0.159681
H6    H     H_    0.178781 0.067340 0.824176 0.152928
H7    H     H_    0.151208 0.959488 0.172505 0.151988
H8    H     H_    0.838654 0.132900 0.778184 0.157825
H9    H     H_    0.834540 0.063350 0.168226 0.143492
H10   H     H_    0.176031 0.843480 0.780449 0.142867
H11   H     H_    0.150801 0.845002 0.268599 0.135301
H12   H     H_    0.956334 0.151363 0.674181 0.141759
H13   H     H_    0.837670 0.170966 0.274059 0.147136
H14   H     H_    0.071661 0.829188 0.680821 0.139861
H15   H     H_    0.786363 0.837838 0.390800 0.155877
H16   H     H_    0.299117 0.162880 0.651880 0.158511
H17   H     H_    0.825611 0.713625 0.143533 0.179231
H18   H     H_    0.177387 0.212031 0.896819 0.180639
H19   H     H_    0.840227 0.205368 0.096955 0.158905
H20   H     H_    0.165212 0.698754 0.848990 0.159679
H21   H     H_    0.296423 0.848716 0.340765 0.157103
H22   H     H_    0.808911 0.152351 0.601741 0.162117
H23   H     H_    0.699995 0.167043 0.347939 0.154926
H24   H     H_    0.211536 0.829785 0.606715 0.156915
H25   H     H_    0.038621 0.156077 0.331567 0.146671
H26   H     H_    0.846418 0.832233 0.729204 0.147849
O1    O     O_R   0.621380 0.090460 0.561410 -0.629346
O2    O     O_R   0.378620 0.909540 0.438590 -0.629392
O3    O     O_R   0.617150 0.909540 0.438590 -0.629410
O4    O     O_R   0.382850 0.090460 0.561410 -0.625916
O5    O     O_R   0.619720 0.093230 0.440890 -0.627149
O6    O     O_R   0.380280 0.906770 0.559110 -0.626151
O7    O     O_R   0.618800 0.906770 0.559110 -0.607210
O8    O     O_R   0.381200 0.093230 0.440890 -0.609878
O9    O     O_R   0.087590 0.627480 0.058790 -0.584087
O10   O     O_R   0.912410 0.372520 0.941210 -0.582956
O11   O     O_R   0.905660 0.383870 0.059980 -0.639717
O12   O     O_R   0.094340 0.616130 0.940020 -0.624166
O13   O     O_R   0.092570 0.390420 0.063230 -0.611001
O14   O     O_R   0.907430 0.609580 0.936770 -0.605877
O15   O     O_R   0.900680 0.620930 0.055550 -0.635995
O16   O     O_R   0.099320 0.379070 0.944450 -0.635315
Zn1   Zn    Zn3+2 0.501730 0.123520 0.501540 0.952321
Zn2   Zn    Zn3+2 0.498270 0.876480 0.498460 0.952651
Zn3   Zn    Zn3+2 0.125690 0.504390 0.002180 0.966377
Zn4   Zn    Zn3+2 0.874310 0.495610 0.997820 0.966256
C59   C     C_R   0.169036 0.172318 0.424251 0.134350
C60   C     C_R   0.180380 0.283051 0.410783 -0.150641
C61   C     C_R   0.172049 0.362235 0.454592 -0.141045
C62   C     C_R   0.151195 0.331509 0.511874 -0.127805
C63   C     C_R   0.138513 0.221548 0.525458 -0.121440
C64   C     C_R   0.147475 0.142065 0.481886 -0.098488
H27   H     H_    0.196042 0.307833 0.366497 0.126855
H28   H     H_    0.181358 0.447459 0.444095 0.129069
H29   H     H_    0.144353 0.392928 0.545679 0.121073
H30   H     H_    0.121177 0.197952 0.569683 0.135469
H31   H     H_    0.136811 0.057136 0.492906 0.107103
C65   C     C_R   0.659940 0.822027 0.669073 0.131699
C66   C     C_R   0.686306 0.711900 0.662400 -0.148518
C67   C     C_R   0.604272 0.631085 0.667410 -0.139574
C68   C     C_R   0.495753 0.659504 0.679500 -0.127260
C69   C     C_R   0.469059 0.768786 0.686738 -0.124051
C70   C     C_R   0.550724 0.849861 0.681669 -0.116811
H32   H     H_    0.770073 0.688802 0.653037 0.123058
H33   H     H_    0.624871 0.546374 0.662003 0.131060
H34   H     H_    0.432430 0.596823 0.683445 0.122011
H35   H     H_    0.385189 0.790649 0.696503 0.132063
H36   H     H_    0.529054 0.934212 0.687805 0.103697
C71   C     C_R   0.170174 0.353988 0.177292 0.132223
C72   C     C_R   0.140355 0.461796 0.189148 -0.117565
C73   C     C_R   0.221674 0.543002 0.197082 -0.131416
C74   C     C_R   0.333285 0.517433 0.193132 -0.138718
C75   C     C_R   0.363690 0.410271 0.181738 -0.139050
C76   C     C_R   0.282535 0.328534 0.174121 -0.147125
H37   H     H_    0.054171 0.482747 0.192511 0.101559
H38   H     H_    0.197942 0.625580 0.206534 0.109170
H39   H     H_    0.396166 0.580566 0.199093 0.120542
H40   H     H_    0.450178 0.390504 0.178892 0.127330
H41   H     H_    0.307077 0.245824 0.165316 0.121742
C77   C     C_R   0.817704 0.811186 0.912868 0.129285
C78   C     C_R   0.835384 0.833593 0.972545 -0.097531
C79   C     C_R   0.745651 0.840541 0.009788 -0.125517
C80   C     C_R   0.637926 0.825821 0.987702 -0.134574
C81   C     C_R   0.619655 0.804546 0.928313 -0.149942
C82   C     C_R   0.709093 0.797699 0.890894 -0.156198
H42   H     H_    0.918425 0.846616 0.990014 0.117876
H43   H     H_    0.759529 0.858055 0.055685 0.138321
H44   H     H_    0.568558 0.831446 0.016503 0.138833
H45   H     H_    0.536127 0.793957 0.911215 0.135275
H46   H     H_    0.693854 0.782113 0.844852 0.133489
O17   O     O_3   0.174445 0.815516 0.088186 -0.633088
C83   C     C_3   0.275086 0.798494 0.119154 0.099683
H47   H     H_    0.307277 0.718588 0.105060 0.168851
H48   H     H_    0.267575 0.795378 0.167527 0.100096
C84   C     C_3   0.359068 0.887554 0.103765 -0.334833
H49   H     H_    0.372186 0.886282 0.055958 0.225675
H50   H     H_    0.326445 0.968299 0.116063 0.218544
C85   C     C_3   0.469541 0.871660 0.135457 -1.009338
H51   H     H_    0.458812 0.876326 0.183383 0.270755
H52   H     H_    0.529145 0.936492 0.122692 0.265911
H53   H     H_    0.504022 0.791438 0.123750 0.260343
O18   O     O_3   0.811103 0.279376 0.856399 -0.630412
C86   C     C_3   0.734600 0.206574 0.882430 0.099968
H54   H     H_    0.712317 0.241346 0.925425 0.165582
H55   H     H_    0.767133 0.123583 0.891033 0.117732
C87   C     C_3   0.629880 0.196189 0.844181 -0.350907
H56   H     H_    0.591903 0.277344 0.839851 0.230368
H57   H     H_    0.651238 0.166667 0.799978 0.217457
C88   C     C_3   0.546039 0.116997 0.870113 -0.973132
H58   H     H_    0.581399 0.034516 0.873222 0.271484
H59   H     H_    0.470756 0.112096 0.841694 0.264466
H60   H     H_    0.522250 0.145150 0.914201 0.264539

loop_
_geom_bond_atom_site_label_1
_geom_bond_atom_site_label_2
_ccdc_geom_bond_type
C16   C28   A    
C59   C64   A    
C5    C37   A    
C17   C29   A    
C61   H28   S    
C74   H39   S    
C19   C31   A    
C72   C73   A    
O9    Zn3   S    
C9    H9    S    
O4    Zn1   S    
O1    Zn1   S    
C39   C41   S    
C29   C49   A    
C68   H34   S    
C62   C63   A    
C36   C56   A    
C87   H56   S    
C52   H16   S    
C77   C82   A    
O14   Zn4   S    
C21   C33   S    
C60   C61   A    
C22   C38   S    
C65   C66   A    
C71   C76   A    
O6    Zn2   S    
C11   H19   S    
C7    O17   S    
C53   H3    S    
C11   C35   A    
C41   O9    A    
C4    C40   A    
C49   C51   A    
C18   H14   S    
C12   H20   S    
C1    C28   S    
C50   C52   A    
C61   C62   A    
C41   O15   A    
C2    C27   S    
C18   C30   A    
C12   C36   A    
C3    H17   S    
C18   C20   A    
C48   C65   S    
C45   C47   A    
O15   Zn4   S    
C30   C50   A    
O10   Zn4   S    
C1    O7    A    
C23   O3    A    
C67   C68   A    
C9    C33   A    
C14   H12   S    
C13   C25   A    
C45   H25   S    
C72   H37   S    
C15   C27   A    
C86   H55   S    
C43   O13   A    
C57   H5    S    
C88   H60   S    
C46   C48   A    
C60   H27   S    
C53   C55   A    
C33   C53   A    
C82   H46   S    
C22   C34   S    
C54   C56   A    
C65   C70   A    
C35   C55   A    
C32   C52   A    
C79   C80   A    
C5    H7    S    
C75   H40   S    
C63   C64   A    
C19   H23   S    
C88   H58   S    
C5    C7    A    
C69   H35   S    
C6    C8    A    
C54   H4    S    
C58   H6    S    
C47   C59   S    
C76   H41   S    
C21   C29   S    
C83   C84   S    
O16   Zn3   S    
C88   H59   S    
C16   H22   S    
C23   C31   S    
C62   H29   S    
C66   H32   S    
C24   C32   S    
C44   O12   A    
C42   O16   A    
O3    Zn2   S    
C56   C77   S    
C78   H42   S    
C43   O11   A    
C78   C79   A    
C6    C38   A    
C23   O5    A    
C69   C70   A    
C21   C37   S    
C10   C34   A    
C38   C58   A    
C14   C26   A    
C84   C85   S    
C2    O8    A    
C9    C11   A    
O13   Zn3   S    
C10   C12   A    
O8    Zn1   S    
C46   H26   S    
C80   H44   S    
C55   C71   S    
C17   H13   S    
C10   H10   S    
C13   C15   A    
C14   C16   A    
C36   C44   S    
C1    O1    A    
C84   H50   S    
O7    Zn2   S    
C71   C72   A    
O2    Zn2   S    
C25   C45   A    
C86   C87   S    
C35   C43   S    
O11   Zn4   S    
C73   C74   A    
C20   C32   A    
C27   C47   A    
C21   C25   S    
C28   C48   A    
C22   C30   S    
O5    Zn1   S    
C42   O10   A    
C81   H45   S    
C24   O4    A    
C85   H53   S    
C51   H15   S    
C31   C51   A    
C40   C42   S    
C24   O6    A    
C79   H43   S    
C68   C69   A    
C34   C54   A    
C15   H21   S    
C59   C60   A    
C66   C67   A    
C49   H1    S    
C50   H2    S    
O18   C86   S    
C87   H57   S    
C74   C75   A    
C70   H36   S    
C86   H54   S    
O17   C83   S    
C13   H11   S    
C63   H30   S    
C85   H52   S    
C17   C19   A    
C3    C57   A    
C2    O2    A    
C83   H48   S    
C67   H33   S    
C87   C88   S    
C4    H18   S    
C77   C78   A    
C26   C46   A    
C44   O14   A    
C73   H38   S    
C6    H8    S    
C85   H51   S    
C20   H24   S    
C22   C26   S    
O12   Zn3   S    
C4    C58   A    
C7    C39   A    
C81   C82   A    
C8    C40   A    
C84   H49   S    
C80   C81   A    
C64   H31   S    
C37   C57   A    
C3    C39   A    
C75   C76   A    
C83   H47   S    
C8    O18   S    
