data_mof_unit_27058.cif
_audit_creation_date              2012-12-10T17:34:42-0500
_audit_creation_method            fapswitch 2.2
_symmetry_space_group_name_H-M    P1
_symmetry_Int_Tables_number       1
_space_group_crystal_system       triclinic
_cell_length_a                    15.430862
_cell_length_b                    15.518337
_cell_length_c                    19.536796
_cell_angle_alpha                 77.675469
_cell_angle_beta                  98.89793
_cell_angle_gamma                 111.558408
_cell_volume                      4235.76454713

loop_
_atom_site_label
_atom_site_type_symbol
_atom_type_description
_atom_site_fract_x
_atom_site_fract_y
_atom_site_fract_z
_atom_type_partial_charge
C1    C     C_R   0.747192 0.541753 0.528731 0.843146
C2    C     C_2   0.532229 0.541359 0.015119 -0.154746
C3    C     C_2   0.524766 0.469613 0.984285 -0.009871
C4    C     C_R   0.251967 0.457153 0.473148 0.780763
C5    C     C_R   0.490378 0.485850 0.762249 -0.223357
C6    C     C_R   0.972318 0.556315 0.634639 -0.272665
C7    C     C_R   0.846327 0.555708 0.544060 -0.122852
C8    C     C_R   0.103904 0.409143 0.397839 -0.239401
C9    C     C_R   0.009166 0.394099 0.382315 -0.117365
C10   C     C_R   0.958777 0.414732 0.426617 -0.009582
C11   C     C_R   0.007375 0.458394 0.485652 0.002066
C12   C     C_R   0.526418 0.528446 0.091097 0.047520
C13   C     C_R   0.099809 0.458039 0.507211 0.090536
C14   C     C_R   0.968286 0.500508 0.525458 0.081966
C15   C     C_R   0.011926 0.520240 0.592710 0.107398
C16   C     C_R   0.456884 0.249719 0.526830 0.834400
C17   C     C_R   0.094152 0.502616 0.618134 -0.212010
C18   C     C_R   0.138071 0.473170 0.575832 -0.185573
C19   C     C_R   0.889408 0.526868 0.499934 -0.367740
C20   C     C_R   0.889051 0.572860 0.611213 0.534154
C21   C     C_R   0.150180 0.439400 0.460539 -0.074299
C22   C     C_R   0.426720 0.013482 0.628666 -0.133257
C23   C     C_R   0.592873 0.593743 0.128880 -0.227919
C24   C     C_R   0.441740 0.149643 0.538170 -0.111222
C25   C     C_R   0.552046 0.886405 0.377925 0.437242
C26   C     C_R   0.507099 0.950883 0.350244 -0.213395
C27   C     C_R   0.467174 0.983344 0.394300 0.010431
C28   C     C_R   0.545259 0.750822 0.472310 0.916200
C29   C     C_R   0.490124 0.966842 0.468193 -0.046939
C30   C     C_R   0.529348 0.896046 0.496925 -0.083637
C31   C     C_R   0.471133 0.015496 0.514310 -0.017721
C32   C     C_R   0.463823 0.974996 0.586354 0.001915
C33   C     C_R   0.504688 0.905771 0.615654 -0.091092
C34   C     C_R   0.588361 0.585781 0.200505 -0.193050
C35   C     C_R   0.544504 0.871879 0.570987 0.465821
C36   C     C_R   0.473083 0.109429 0.492518 0.406739
C37   C     C_R   0.412257 0.098029 0.603452 -0.270244
C38   C     C_R   0.551267 0.849558 0.450451 -0.142507
C39   C     C_R   0.487780 0.486643 0.687812 0.886090
C40   C     C_R   0.511643 0.511703 0.311159 0.835914
C41   C     C_R   0.514892 0.514488 0.235469 -0.118375
C42   C     C_R   0.445007 0.449339 0.196728 -0.132176
C43   C     C_R   0.453040 0.454542 0.124953 0.472481
C44   C     C_2   0.359407 0.379581 0.227266 0.472863
C45   C     C_R   0.576926 0.551160 0.865280 0.539155
C46   C     C_3   0.298089 0.365271 0.924712 -0.212680
C47   C     C_3   0.860517 0.693509 0.639789 -0.317029
C48   C     C_2   0.855096 0.374714 0.416702 0.370959
C49   C     C_2   0.520581 0.881363 0.693015 0.364686
C50   C     C_3   0.491713 0.218755 0.387387 -0.140362
C51   C     C_3   0.665095 0.902845 0.310073 -0.241454
C52   C     C_2   0.389323 0.018031 0.363642 0.422421
C53   C     C_3   0.576161 0.745465 0.645215 -0.256922
C54   C     C_3   0.287230 0.374174 0.732730 -0.311785
C55   C     C_3   0.668403 0.706986 0.865181 -0.319029
C56   C     C_R   0.565852 0.552959 0.792521 -0.390867
C57   C     C_3   0.387459 0.301115 0.106232 -0.281214
C58   C     C_R   0.424423 0.414220 0.804160 0.428935
C59   C     C_R   0.436196 0.410359 0.877111 0.404113
C60   C     C_R   0.513083 0.477582 0.907587 -0.169701
H1    H     H_    0.126203 0.514087 0.670406 0.145131
H2    H     H_    0.494618 0.967050 0.293637 0.203140
H3    H     H_    0.517938 0.401093 0.015505 0.180762
H4    H     H_    0.649100 0.650735 0.102829 0.171273
H5    H     H_    0.641902 0.637023 0.228331 0.184611
H6    H     H_    0.540196 0.610406 0.984036 0.168332
H7    H     H_    0.291957 0.386269 0.208038 0.065624
H8    H     H_    0.321483 0.431899 0.946212 0.178432
H9    H     H_    0.250793 0.309684 0.961573 0.197227
H10   H     H_    0.256884 0.372470 0.873248 0.152964
H11   H     H_    0.827947 0.711862 0.586391 0.155738
H12   H     H_    0.004402 0.568987 0.686685 0.165002
H13   H     H_    0.936540 0.735743 0.643726 0.169530
H14   H     H_    0.827239 0.712798 0.677815 0.199699
H15   H     H_    0.813455 0.358795 0.460729 0.085632
H16   H     H_    0.591389 0.896676 0.717644 0.087276
H17   H     H_    0.523769 0.294078 0.392509 0.175158
H18   H     H_    0.414137 0.195090 0.385950 0.181234
H19   H     H_    0.509012 0.213356 0.335782 0.209367
H20   H     H_    0.718864 0.913987 0.355584 0.164325
H21   H     H_    0.663134 0.971529 0.279570 0.156893
H22   H     H_    0.686357 0.867936 0.274958 0.187640
H23   H     H_    0.857926 0.522015 0.446933 0.170339
H24   H     H_    0.342177 0.022399 0.397534 0.050929
H25   H     H_    0.607624 0.756722 0.698992 0.141414
H26   H     H_    0.599134 0.691595 0.631961 0.170364
H27   H     H_    0.498457 0.716763 0.644875 0.203488
H28   H     H_    0.298772 0.381092 0.676883 0.167967
H29   H     H_    0.285965 0.441864 0.742765 0.133604
H30   H     H_    0.216875 0.320781 0.741511 0.191147
H31   H     H_    0.601379 0.721092 0.852203 0.158989
H32   H     H_    0.707134 0.726145 0.817601 0.171070
H33   H     H_    0.712044 0.753543 0.902756 0.197862
H34   H     H_    0.140612 0.394441 0.361248 0.176294
H35   H     H_    0.331352 0.257725 0.141264 0.208402
H36   H     H_    0.456346 0.298150 0.132005 0.159663
H37   H     H_    0.372834 0.267871 0.058849 0.221491
H38   H     H_    0.974438 0.363126 0.336263 0.188463
H39   H     H_    0.200868 0.459602 0.598912 0.157676
H40   H     H_    0.388298 0.128559 0.638510 0.173280
H41   H     H_    0.618395 0.604015 0.759603 0.168434
H42   H     H_    0.413501 0.982062 0.682678 0.205489
O1    O     O_3   0.500000 0.500000 0.500000 -0.501374
O2    O     O_R   0.533750 0.444440 0.667550 -0.612373
O3    O     O_R   0.573150 0.573190 0.344350 -0.635344
O4    O     O_R   0.446010 0.535260 0.643730 -0.685811
O5    O     O_R   0.447090 0.447110 0.344370 -0.620636
O6    O     O_2   0.363137 0.311226 0.270520 -0.579230
O7    O     O_3   0.374123 0.338013 0.919162 -0.577834
O8    O     O_3   0.845182 0.596397 0.657282 -0.598602
O9    O     O_2   0.814988 0.357227 0.359633 -0.557175
O10   O     O_2   0.454737 0.841009 0.729214 -0.587007
O11   O     O_3   0.532782 0.165145 0.440726 -0.634573
O12   O     O_R   0.412670 0.287020 0.475980 -0.658639
O13   O     O_3   0.576469 0.844164 0.332104 -0.594175
O14   O     O_2   0.375542 0.040250 0.300149 -0.571677
O15   O     O_3   0.611285 0.829598 0.597055 -0.645946
O16   O     O_3   0.354372 0.341175 0.776597 -0.569066
O17   O     O_3   0.655109 0.612851 0.897111 -0.581526
O18   O     O_3   0.384644 0.393394 0.085584 -0.646020
O19   O     O_R   0.592640 0.718300 0.442410 -0.604096
O20   O     O_R   0.691640 0.476740 0.569450 -0.608672
O21   O     O_R   0.303050 0.517940 0.512160 -0.644120
O22   O     O_R   0.716100 0.590510 0.475920 -0.653268
O23   O     O_R   0.289200 0.414810 0.442470 -0.636364
O24   O     O_R   0.514260 0.299330 0.569480 -0.623865
O25   O     O_R   0.480430 0.695350 0.512130 -0.655795
Zn1   Zn    Zn3+2 0.413740 0.413730 0.441720 0.985217
Zn2   Zn    Zn3+2 0.558890 0.431320 0.575310 1.012044
Zn3   Zn    Zn3+2 0.433530 0.561080 0.541290 0.943119
Zn4   Zn    Zn3+2 0.593840 0.593870 0.441680 0.995577

loop_
_geom_bond_atom_site_label_1
_geom_bond_atom_site_label_2
_ccdc_geom_bond_type
C39   O4    A    
C45   C60   A    
C9    H38   S    
C27   C29   A    
C41   C42   A    
C5    C56   A    
C55   H33   S    
C2    C12   S    
C50   H19   S    
C1    O22   A    
C39   O2    A    
O3    Zn4   S    
C55   O17   S    
C6    H12   S    
C12   C23   A    
C26   C27   A    
C24   C36   A    
C22   C32   A    
C5    C58   A    
O5    Zn1   S    
C54   H30   S    
C12   C43   A    
C25   O13   S    
C33   C35   A    
C11   C14   A    
C53   O15   S    
C33   C49   S    
C58   O16   S    
C30   C38   A    
C13   C18   A    
C52   H24   S    
C51   H20   S    
C46   H9    S    
C55   H31   S    
C17   H1    S    
C6    C15   A    
C1    O20   A    
C45   C56   A    
C8    C9    A    
C57   H36   S    
O23   Zn1   S    
C53   H26   S    
C9    C10   A    
C51   H21   S    
O20   Zn2   S    
C28   O25   A    
C43   O18   S    
C3    C60   S    
C45   O17   S    
C44   O6    D    
C59   C60   A    
C16   C24   S    
C48   H15   S    
C34   C41   A    
C42   C44   S    
O19   Zn4   S    
C19   H23   S    
C36   O11   S    
C50   H18   S    
C34   H5    S    
C17   C18   A    
C31   C36   A    
C52   O14   D    
C8    H34   S    
C47   H13   S    
C54   H29   S    
C24   C37   A    
C28   O19   A    
O24   Zn2   S    
C58   C59   A    
C22   C37   A    
C51   O13   S    
C4    O21   A    
C46   H8    S    
C29   C30   A    
C25   C38   A    
O12   Zn1   S    
C31   C32   A    
C28   C38   S    
C23   C34   A    
C57   H37   S    
C8    C21   A    
C49   H16   S    
C13   C21   A    
C53   H27   S    
O1    Zn1   S    
O1    Zn2   S    
C51   H22   S    
C47   H11   S    
C40   O5    A    
C20   O8    S    
C4    O23   A    
C23   H4    S    
C55   H32   S    
C49   O10   D    
O2    Zn2   S    
C57   O18   S    
O21   Zn3   S    
C10   C48   S    
C35   O15   S    
C42   C43   A    
C50   H17   S    
C6    C20   A    
C27   C52   S    
C57   H35   S    
O4    Zn3   S    
C5    C39   S    
C40   C41   S    
C1    C7    S    
C14   C19   A    
C47   H14   S    
C2    H6    S    
C16   O12   A    
C56   H41   S    
C15   C17   A    
C3    H3    S    
C47   O8    S    
C30   C35   A    
C7    C19   A    
C22   H42   S    
C50   O11   S    
C32   C33   A    
C54   O16   S    
C2    C3    D    
C25   C26   A    
O25   Zn3   S    
C29   C31   A    
C54   H28   S    
C4    C21   S    
C11   C13   A    
C16   O24   A    
C59   O7    S    
C26   H2    S    
O1    Zn3   S    
C46   H10   S    
C10   C11   A    
C48   O9    D    
O22   Zn4   S    
C7    C20   A    
C18   H39   S    
C46   O7    S    
C14   C15   A    
C44   H7    S    
C53   H25   S    
O1    Zn4   S    
C37   H40   S    
C40   O3    A    
