data_mof_unit_58239.cif
_audit_creation_date              2012-12-10T18:03:57-0500
_audit_creation_method            fapswitch 2.2
_symmetry_space_group_name_H-M    P1
_symmetry_Int_Tables_number       1
_space_group_crystal_system       triclinic
_cell_length_a                    10.858763
_cell_length_b                    9.536424
_cell_length_c                    10.945617
_cell_angle_alpha                 90.000388
_cell_angle_beta                  91.922521
_cell_angle_gamma                 90.0
_cell_volume                      1132.82186721

loop_
_atom_site_label
_atom_site_type_symbol
_atom_type_description
_atom_site_fract_x
_atom_site_fract_y
_atom_site_fract_z
_atom_type_partial_charge
C1    C     C_R   0.262374 0.499487 0.506593 0.839783
C2    C     C_R   0.737626 0.499487 0.493412 0.839776
C3    C     C_R   0.417971 0.072726 0.426642 0.366948
C4    C     C_R   0.582028 0.072727 0.573358 0.366945
C5    C     C_R   0.416887 0.924648 0.429338 -0.042209
C6    C     C_R   0.583112 0.924649 0.570663 -0.042228
C7    C     C_R   0.503068 0.499050 0.262697 0.855735
C8    C     C_R   0.496937 0.499051 0.737303 0.855719
C9    C     C_R   0.494739 0.615548 0.061181 0.001024
C10   C     C_R   0.505381 0.615544 0.938819 0.001058
C11   C     C_R   0.503874 0.493817 0.130025 -0.176101
C12   C     C_R   0.496163 0.493818 0.869976 -0.176104
C13   C     C_R   0.511556 0.365307 0.063895 0.170495
C14   C     C_R   0.488447 0.365311 0.936104 0.170485
C15   C     C_3   0.511130 0.771123 0.930857 -0.009862
C16   C     C_3   0.488970 0.771126 0.069133 -0.009844
C17   C     C_R   0.062593 0.370122 0.515577 0.177256
C18   C     C_R   0.937408 0.370125 0.484418 0.177238
C19   C     C_R   0.871725 0.497734 0.488832 -0.132514
C20   C     C_R   0.128277 0.497732 0.511183 -0.132520
C21   C     C_R   0.936235 0.624798 0.497887 -0.169786
C22   C     C_R   0.063768 0.624798 0.502164 -0.169796
Cu1   Cu    Cu3+1 0.500000 0.640660 0.500000 0.988504
Cu2   Cu    Cu3+1 0.500000 0.359340 0.500000 1.080233
H1    H     H_    0.435431 0.816762 0.872746 0.186178
H2    H     H_    0.564662 0.816780 0.127243 0.186182
H3    H     H_    0.888453 0.724509 0.498652 0.193578
H4    H     H_    0.111551 0.724510 0.501428 0.193579
H5    H     H_    0.349649 0.867403 0.374354 0.184044
H6    H     H_    0.650348 0.867406 0.625649 0.184038
N1    N     N_R   0.500000 0.852070 0.500000 -0.216609
N2    N     N_R   0.500000 0.147940 0.500000 -0.218558
O1    O     O_R   0.319640 0.618740 0.499990 -0.595955
O2    O     O_R   0.680360 0.618740 0.500010 -0.595957
O3    O     O_R   0.319620 0.381170 0.499990 -0.535370
O4    O     O_R   0.680380 0.381170 0.500010 -0.535370
O5    O     O_R   0.499990 0.618810 0.319660 -0.584265
O6    O     O_R   0.500010 0.618810 0.680340 -0.584283
O7    O     O_R   0.499960 0.381240 0.319650 -0.537140
O8    O     O_R   0.500040 0.381240 0.680350 -0.537138
I1    I     I_    0.586898 0.175448 0.141089 -0.186747
I2    I     I_    0.413061 0.175475 0.858911 -0.186733
I3    I     I_    0.694814 0.836960 0.894273 -0.237484
I4    I     I_    0.305278 0.836947 0.105712 -0.237488
I5    I     I_    0.135847 0.182836 0.598891 -0.192237
I6    I     I_    0.864154 0.182854 0.401085 -0.192236
Br1   Br    Br    0.301819 0.159915 0.314671 -0.392128
Br2   Br    Br    0.698178 0.159919 0.685330 -0.392140

loop_
_geom_bond_atom_site_label_1
_geom_bond_atom_site_label_2
_ccdc_geom_bond_type
Cu1   O1    S    
Cu1   Cu2   S    
Cu2   N2    S    
Cu1   O5    S    
Cu1   O6    S    
C11   C13   A    
C9    C10   A    
C16   I4    S    
Cu2   O4    S    
C8    C12   S    
C14   I2    S    
Cu1   O2    S    
C2    O2    A    
C13   I1    S    
C6    N1    A    
C7    O5    A    
C15   I3    S    
C22   H4    S    
C13   C14   A    
C7    C11   S    
C9    C11   A    
C4    N2    A    
C10   C12   A    
C18   I6    S    
C3    Br1   S    
C19   C21   A    
C9    C16   S    
C20   C22   A    
C17   C18   A    
C5    H5    S    
C10   C15   S    
C8    O6    A    
C16   H2    S    
C3    N2    A    
C21   H3    S    
C15   H1    S    
Cu2   O3    S    
C1    O1    A    
C15   C16   S    
C12   C14   A    
Cu2   O7    S    
C1    O3    A    
C4    C6    A    
C18   C19   A    
C4    Br2   S    
C2    O4    A    
C7    O7    A    
C1    C20   S    
C5    N1    A    
C8    O8    A    
Cu2   O8    S    
C2    C19   S    
C21   C22   A    
C17   C20   A    
C6    H6    S    
C17   I5    S    
C3    C5    A    
Cu1   N1    S    
