data_mof_unit_57650.cif
_audit_creation_date              2012-12-10T17:03:43-0500
_audit_creation_method            fapswitch 2.2
_symmetry_space_group_name_H-M    P1
_symmetry_Int_Tables_number       1
_space_group_crystal_system       triclinic
_cell_length_a                    10.067296
_cell_length_b                    10.709355
_cell_length_c                    12.995133
_cell_angle_alpha                 90.000252
_cell_angle_beta                  70.107934
_cell_angle_gamma                 89.556745
_cell_volume                      1317.42195152

loop_
_atom_site_label
_atom_site_type_symbol
_atom_type_description
_atom_site_fract_x
_atom_site_fract_y
_atom_site_fract_z
_atom_type_partial_charge
C1    C     C_R   0.497186 0.737208 0.505211 0.942432
C2    C     C_R   0.424445 0.437582 0.988601 0.081248
C3    C     C_R   0.459649 0.419832 0.875252 0.052654
C4    C     C_R   0.536250 0.430189 0.031340 0.038899
C5    C     C_R   0.665928 0.369669 0.971836 0.154299
C6    C     C_R   0.683762 0.324201 0.866825 -0.249889
C7    C     C_R   0.583597 0.351628 0.818141 -0.194185
C8    C     C_R   0.526419 0.492994 0.126964 -0.263593
C9    C     C_R   0.750364 0.407954 0.123752 -0.211135
C10   C     C_R   0.370411 0.472071 0.822744 -0.122928
C11   C     C_2   0.586873 0.067339 0.539539 -0.166851
C12   C     C_R   0.421607 0.492018 0.704350 0.865437
C13   C     C_2   0.503747 0.130530 0.496425 -0.323744
C14   C     C_2   0.594454 0.932803 0.532824 -0.151659
C15   C     C_2   0.486316 0.868350 0.523488 -0.341902
C16   C     C_2   0.063703 0.404473 0.517129 0.192072
C17   C     C_2   0.939520 0.404955 0.478319 0.179374
C18   C     C_R   0.500587 0.262694 0.499875 0.918525
C19   C     C_R   0.578593 0.498189 0.295209 0.885017
C20   C     C_R   0.774185 0.358801 0.018697 0.207666
C21   C     C_R   0.625225 0.473381 0.178041 -0.113727
C22   C     C_R   0.234890 0.514437 0.885238 -0.248920
C23   C     C_R   0.188604 0.506178 0.998559 -0.156454
C24   C     C_R   0.280727 0.466078 0.051995 0.198715
H1    H     H_    0.438685 0.086506 0.455531 0.144285
H2    H     H_    0.384958 0.911297 0.532572 0.152413
H3    H     H_    0.124677 0.571265 0.455726 0.137005
H4    H     H_    0.777918 0.273411 0.819191 0.158618
H5    H     H_    0.438141 0.555002 0.165309 0.181981
H6    H     H_    0.603708 0.317543 0.735836 0.170877
H7    H     H_    0.653966 0.114743 0.576975 0.154023
N1    N     N_2   0.148270 0.498670 0.498870 -0.203973
N2    N     N_2   0.852610 0.498640 0.498840 -0.205074
O1    O     O_R   0.386950 0.680940 0.500020 -0.617341
O2    O     O_R   0.613110 0.680900 0.499980 -0.608350
O3    O     O_R   0.330780 0.500000 0.653640 -0.611698
O4    O     O_R   0.556930 0.499960 0.653610 -0.606216
O5    O     O_R   0.386890 0.319100 0.500020 -0.611714
O6    O     O_R   0.613050 0.319060 0.499980 -0.616179
O7    O     O_R   0.443070 0.500040 0.346390 -0.603643
O8    O     O_R   0.669220 0.500000 0.346360 -0.612114
Zn1   Zn    Zn3+2 0.349000 0.500030 0.500020 0.925925
Zn2   Zn    Zn3+2 0.651000 0.499970 0.499980 0.925018
H8    H     H_    0.827054 0.392406 0.164225 0.150599
H9    H     H_    0.690989 0.887359 0.533578 0.170424
C25   C     C_3   0.088271 0.291489 0.576750 -0.792679
H10   H     H_    0.985493 0.249580 0.625351 0.193384
H11   H     H_    0.150902 0.220657 0.517274 0.237961
H12   H     H_    0.142027 0.317499 0.635287 0.257668
C26   C     C_3   0.917073 0.293260 0.416784 -0.795878
H13   H     H_    0.020668 0.256344 0.362708 0.206574
H14   H     H_    0.863522 0.218901 0.475007 0.229268
H15   H     H_    0.855289 0.318731 0.363549 0.259434
H16   H     H_    0.874840 0.570428 0.543141 0.141097
C27   C     C_3   0.912829 0.293789 0.960020 -0.948957
H17   H     H_    0.893623 0.195250 0.942966 0.243046
H18   H     H_    0.968372 0.342393 0.881855 0.245606
H19   H     H_    0.983564 0.293478 0.009587 0.250683
H20   H     H_    0.163735 0.552254 0.846392 0.172312
C28   C     C_3   0.215454 0.438274 0.172689 -0.945999
H21   H     H_    0.284172 0.377626 0.202767 0.261107
H22   H     H_    0.190738 0.526630 0.220374 0.240354
H23   H     H_    0.115369 0.386509 0.188035 0.238480
H24   H     H_    0.080096 0.530938 0.045003 0.160326

loop_
_geom_bond_atom_site_label_1
_geom_bond_atom_site_label_2
_ccdc_geom_bond_type
C17   C26   S    
O4    Zn2   S    
C26   H14   S    
C23   C24   A    
C6    C7    A    
C1    C15   S    
C16   N1    D    
C11   C13   D    
C9    C20   A    
O3    Zn1   S    
O1    Zn1   S    
C24   C28   S    
C4    C8    A    
N2    H16   S    
C9    C21   A    
C27   H17   S    
O7    Zn1   S    
C2    C3    A    
C18   O5    A    
C11   H7    S    
C7    H6    S    
C10   C22   A    
O8    Zn2   S    
C25   H12   S    
C13   H1    S    
C16   C17   S    
C17   N2    D    
C13   C18   S    
C20   C27   S    
C3    C10   A    
C2    C4    A    
C10   C12   S    
C23   H24   S    
C19   C21   S    
C1    O1    A    
O5    Zn1   S    
C14   H9    S    
C3    C7    A    
C27   H18   S    
C2    C24   A    
C5    C6    A    
C11   C14   S    
C28   H23   S    
C26   H15   S    
C12   O3    A    
C19   O7    A    
C8    H5    S    
N2    Zn2   S    
C25   H11   S    
C12   O4    A    
O2    Zn2   S    
C1    O2    A    
C28   H22   S    
C27   H19   S    
C16   C25   S    
C22   H20   S    
C5    C20   A    
C18   O6    A    
N1    Zn1   S    
C25   H10   S    
C4    C5    A    
C15   H2    S    
O6    Zn2   S    
C26   H13   S    
H3    N1    S    
C14   C15   D    
C22   C23   A    
C6    H4    S    
C19   O8    A    
C28   H21   S    
C9    H8    S    
C8    C21   A    
