data_mof_unit_23642.cif
_audit_creation_date              2012-12-10T17:02:12-0500
_audit_creation_method            fapswitch 2.2
_symmetry_space_group_name_H-M    P1
_symmetry_Int_Tables_number       1
_space_group_crystal_system       triclinic
_cell_length_a                    10.688287
_cell_length_b                    10.734666
_cell_length_c                    10.048335
_cell_angle_alpha                 91.347778
_cell_angle_beta                  87.682561
_cell_angle_gamma                 89.233423
_cell_volume                      1151.5175154

loop_
_atom_site_label
_atom_site_type_symbol
_atom_type_description
_atom_site_fract_x
_atom_site_fract_y
_atom_site_fract_z
_atom_type_partial_charge
C1    C     C_R   0.502878 0.262598 0.497917 0.949728
C2    C     C_2   0.498999 0.130552 0.493027 -0.365605
C3    C     C_2   0.460489 0.590114 0.933471 0.217187
C4    C     C_R   0.260760 0.486737 0.503306 0.904984
C5    C     C_2   0.491395 0.598719 0.076819 -0.101329
C6    C     C_R   0.504633 0.737191 0.501297 0.955816
C7    C     C_R   0.740470 0.506991 0.497257 0.878818
C8    C     C_R   0.095253 0.488166 0.761041 0.188023
C9    C     C_R   0.034251 0.558310 0.863986 -0.163752
C10   C     C_R   0.930351 0.632232 0.837944 0.214532
C11   C     C_R   0.878595 0.623989 0.712974 -0.159036
C12   C     C_R   0.055074 0.498523 0.628536 0.042092
C13   C     C_R   0.935377 0.547168 0.610684 0.003796
C14   C     C_R   0.127805 0.466536 0.511708 -0.141593
C15   C     C_R   0.071288 0.443944 0.391409 -0.221026
C16   C     C_R   0.945070 0.462593 0.381410 0.190063
C17   C     C_R   0.875149 0.513420 0.492502 -0.155095
C18   C     C_2   0.537180 0.928842 0.390517 -0.172412
C19   C     C_2   0.524360 0.867904 0.504287 -0.358380
C20   C     C_2   0.550892 0.062166 0.391045 0.212713
H1    H     H_    0.446659 0.089327 0.575172 0.159184
H2    H     H_    0.494124 0.689985 0.125001 0.177743
H3    H     H_    0.473267 0.418819 0.105091 0.211760
H4    H     H_    0.794086 0.677226 0.696625 0.169956
H5    H     H_    0.533812 0.912733 0.601260 0.178957
H6    H     H_    0.126341 0.414004 0.303137 0.193824
H7    H     H_    0.065561 0.552735 0.964784 0.190199
H8    H     H_    0.538539 0.880535 0.294184 0.197446
I1    I     I_    0.337744 0.730756 0.870129 -0.296581
I2    I     I_    0.648853 0.381649 0.898715 -0.155051
I3    I     I_    0.208603 0.336690 0.822546 -0.276341
I4    I     I_    0.841849 0.743973 0.990744 -0.273430
I5    I     I_    0.879345 0.414824 0.190060 -0.229299
I6    I     I_    0.653487 0.130152 0.222344 -0.209341
N1    N     N_2   0.501340 0.501330 0.852150 -0.048896
N2    N     N_2   0.501380 0.501360 0.147810 -0.177124
O1    O     O_R   0.499980 0.319060 0.613040 -0.581224
O2    O     O_R   0.500020 0.319100 0.386900 -0.592735
O3    O     O_R   0.316750 0.499980 0.613090 -0.593214
O4    O     O_R   0.316790 0.500020 0.386950 -0.619260
O5    O     O_R   0.499980 0.680900 0.613100 -0.602990
O6    O     O_R   0.500020 0.680940 0.386960 -0.622169
O7    O     O_R   0.683210 0.499980 0.613050 -0.604041
O8    O     O_R   0.683250 0.500020 0.386910 -0.573193
Zn1   Zn    Zn3+2 0.499970 0.499970 0.650990 1.042005
Zn2   Zn    Zn3+2 0.500030 0.500030 0.349010 1.014289

loop_
_geom_bond_atom_site_label_1
_geom_bond_atom_site_label_2
_ccdc_geom_bond_type
C8    C9    A    
N2    Zn2   S    
C3    N1    D    
C8    C12   A    
O7    Zn1   S    
C9    C10   A    
C4    O3    A    
C13   C17   A    
O3    Zn1   S    
C20   I6    S    
C2    H1    S    
C16   I5    S    
C7    O8    A    
O4    Zn2   S    
C6    C19   S    
C11   C13   A    
C16   C17   A    
C1    O2    A    
I2    N1    S    
C12   C14   A    
C1    C2    S    
C18   C20   S    
C4    C14   S    
C19   H5    S    
O2    Zn2   S    
C10   C11   A    
O1    Zn1   S    
C15   C16   A    
N1    Zn1   S    
C5    N2    D    
C10   I4    S    
C11   H4    S    
C18   H8    S    
C12   C13   A    
C9    H7    S    
H3    N2    S    
O6    Zn2   S    
C7    O7    A    
C3    I1    S    
C2    C20   D    
O5    Zn1   S    
C14   C15   A    
C18   C19   D    
C15   H6    S    
C3    C5    S    
C8    I3    S    
C6    O6    A    
C5    H2    S    
C4    O4    A    
O8    Zn2   S    
C1    O1    A    
C7    C17   S    
C6    O5    A    
