data_mof_unit_65620.cif
_audit_creation_date              2012-12-10T18:40:13-0500
_audit_creation_method            fapswitch 2.2
_symmetry_space_group_name_H-M    P1
_symmetry_Int_Tables_number       1
_space_group_crystal_system       triclinic
_cell_length_a                    30.060997
_cell_length_b                    30.271984
_cell_length_c                    24.388814
_cell_angle_alpha                 90.267364
_cell_angle_beta                  127.312613
_cell_angle_gamma                 89.998689
_cell_volume                      17651.4494825

loop_
_atom_site_label
_atom_site_type_symbol
_atom_type_description
_atom_site_fract_x
_atom_site_fract_y
_atom_site_fract_z
_atom_type_partial_charge
C1    C     C_R   0.810912 0.810600 0.500104 0.886205
C2    C     C_R   0.533931 0.740889 0.068792 0.308140
C3    C     C_3   0.853763 0.109285 0.532156 -0.187071
C4    C     C_3   0.647349 0.585225 0.506005 -0.233641
C5    C     C_3   0.344391 0.588213 0.470914 -0.245045
C6    C     C_3   0.148133 0.085388 0.508014 -0.230344
C7    C     C_3   0.843282 0.089327 0.466403 -0.243610
C8    C     C_3   0.675412 0.623693 0.557868 0.129446
C9    C     C_3   0.333611 0.633910 0.438047 0.119099
C10   C     C_3   0.174933 0.124561 0.558650 0.129358
C11   C     C_3   0.835687 0.136108 0.437864 0.118278
C12   C     C_3   0.654831 0.655994 0.499467 -0.012598
C13   C     C_R   0.964825 0.243771 0.929828 0.299349
C14   C     C_3   0.345812 0.655760 0.502185 -0.011381
C15   C     C_3   0.154815 0.156021 0.499449 -0.014475
C16   C     C_3   0.845716 0.155760 0.502031 -0.011147
C17   C     C_R   0.439463 0.560740 0.500561 0.887294
C18   C     C_R   0.560520 0.560952 0.499835 0.875320
C19   C     C_R   0.939436 0.060736 0.500525 0.886165
C20   C     C_R   0.060459 0.061020 0.499840 0.878733
C21   C     C_R   0.939792 0.938721 0.500254 0.900641
C22   C     C_R   0.060019 0.938676 0.499502 0.898360
C23   C     C_R   0.439444 0.438972 0.500096 0.890533
C24   C     C_R   0.034377 0.244425 0.068957 0.294783
C25   C     C_R   0.560553 0.439095 0.499700 0.889344
C26   C     C_R   0.816643 0.749871 0.634792 0.905140
C27   C     C_R   0.182632 0.750285 0.365212 0.915232
C28   C     C_R   0.316740 0.249741 0.634855 0.911098
C29   C     C_R   0.682476 0.250219 0.365082 0.912726
C30   C     C_R   0.610771 0.786089 0.250301 -0.063443
C31   C     C_R   0.390061 0.785661 0.750671 -0.061029
C32   C     C_R   0.119912 0.289305 0.251768 -0.067423
C33   C     C_R   0.882338 0.288696 0.749151 -0.067152
C34   C     C_R   0.573603 0.783093 0.177802 -0.071581
C35   C     C_3   0.870712 0.883428 0.550924 0.010521
C36   C     C_R   0.427839 0.781981 0.823053 -0.070833
C37   C     C_R   0.083973 0.287512 0.179176 -0.068546
C38   C     C_R   0.919138 0.286500 0.821628 -0.069011
C39   C     C_R   0.571303 0.743924 0.144328 0.005033
C40   C     C_R   0.430477 0.742227 0.854827 0.016147
C41   C     C_R   0.073203 0.246632 0.144715 0.003128
C42   C     C_R   0.928439 0.245704 0.854661 0.010716
C43   C     C_R   0.606008 0.707966 0.183148 0.119827
C44   C     C_R   0.396197 0.706177 0.815259 0.116256
C45   C     C_R   0.099522 0.207879 0.183043 0.124086
C46   C     C_3   0.132063 0.884797 0.451714 0.042852
C47   C     C_R   0.901388 0.207151 0.815839 0.121908
C48   C     C_R   0.642518 0.711200 0.255011 -0.250079
C49   C     C_R   0.359373 0.709857 0.743571 -0.246274
C50   C     C_R   0.135998 0.210245 0.255039 -0.251146
C51   C     C_R   0.864689 0.209680 0.743924 -0.249309
C52   C     C_R   0.615619 0.828420 0.284398 0.167087
C53   C     C_R   0.575863 0.839835 0.294608 -0.106838
C54   C     C_R   0.580956 0.879678 0.327244 -0.149795
C55   C     C_R   0.625618 0.908255 0.349680 -0.110704
C56   C     C_R   0.665130 0.897120 0.339256 -0.122261
C57   C     C_3   0.398157 0.364948 0.567383 0.027240
C58   C     C_R   0.660107 0.857333 0.306539 -0.148829
C59   C     C_R   0.385202 0.828305 0.717755 0.159573
C60   C     C_R   0.427745 0.842434 0.713974 -0.107568
C61   C     C_R   0.422605 0.882525 0.682367 -0.150307
C62   C     C_R   0.375077 0.908636 0.654454 -0.117206
C63   C     C_R   0.332720 0.894798 0.658376 -0.119412
C64   C     C_R   0.337819 0.854795 0.690137 -0.145370
C65   C     C_R   0.132175 0.332819 0.286545 0.156599
C66   C     C_R   0.099868 0.347980 0.306679 -0.097220
C67   C     C_R   0.108132 0.390596 0.333721 -0.147737
C68   C     C_3   0.600616 0.363964 0.431984 0.056959
C69   C     C_R   0.147729 0.418566 0.339331 -0.112595
C70   C     C_R   0.179305 0.403865 0.318241 -0.154086
C71   C     C_R   0.172111 0.360935 0.292721 -0.150352
C72   C     C_R   0.872041 0.332040 0.715411 0.162240
C73   C     C_R   0.908080 0.347525 0.701206 -0.090899
C74   C     C_R   0.901074 0.389921 0.674609 -0.147629
C75   C     C_R   0.858830 0.417290 0.663374 -0.110705
C76   C     C_R   0.823314 0.402175 0.678280 -0.150362
C77   C     C_R   0.829308 0.359430 0.703282 -0.159935
C78   C     C_R   0.770203 0.772407 0.709027 0.180990
C79   C     C_3   0.850871 0.914078 0.489158 -0.261747
C80   C     C_R   0.754930 0.816448 0.707831 -0.091976
C81   C     C_R   0.698628 0.827697 0.671859 -0.156268
C82   C     C_R   0.657317 0.795076 0.637139 -0.136423
C83   C     C_R   0.672283 0.751169 0.638494 -0.111830
C84   C     C_R   0.728565 0.739732 0.674335 -0.122287
C85   C     C_R   0.221819 0.767308 0.281393 0.135918
C86   C     C_R   0.248731 0.808368 0.307379 -0.102581
C87   C     C_R   0.305047 0.812984 0.335033 -0.148520
C88   C     C_R   0.334338 0.776977 0.335370 -0.124199
C89   C     C_R   0.307264 0.736383 0.307823 -0.122911
C90   C     C_3   0.150484 0.913710 0.515019 -0.259156
C91   C     C_R   0.251228 0.731504 0.281084 -0.150472
C92   C     C_R   0.272411 0.275058 0.710844 0.180726
C93   C     C_R   0.257800 0.319013 0.711575 -0.105020
C94   C     C_R   0.201653 0.330603 0.676304 -0.157933
C95   C     C_R   0.159838 0.298437 0.640296 -0.136915
C96   C     C_R   0.174117 0.254598 0.639740 -0.109278
C97   C     C_R   0.230216 0.242823 0.675057 -0.118208
C98   C     C_R   0.720179 0.277688 0.282586 0.143725
C99   C     C_R   0.740196 0.320979 0.304872 -0.105230
C100  C     C_R   0.796130 0.331038 0.335317 -0.150728
C101  C     C_3   0.376427 0.411088 0.533987 -0.265116
C102  C     C_R   0.832061 0.298152 0.342751 -0.123492
C103  C     C_R   0.812030 0.255212 0.319452 -0.119386
C104  C     C_R   0.756243 0.244998 0.289388 -0.149752
C105  C     C_R   0.006366 0.736736 0.861240 0.126606
C106  C     C_R   0.029887 0.696957 0.896860 -0.142357
C107  C     C_R   0.087657 0.690444 0.936691 -0.137029
C108  C     C_R   0.122160 0.723584 0.941218 -0.109295
C109  C     C_R   0.098944 0.763305 0.905953 -0.126913
C110  C     C_R   0.041204 0.769968 0.866152 -0.149309
C111  C     C_R   0.985492 0.748470 0.150574 0.130196
C112  C     C_R   0.188918 0.810616 0.499550 0.883110
C113  C     C_3   0.622255 0.410631 0.464057 -0.261605
C114  C     C_R   0.960581 0.707646 0.144304 -0.141847
C115  C     C_R   0.903023 0.704990 0.110955 -0.135268
C116  C     C_R   0.870078 0.742976 0.083567 -0.108951
C117  C     C_R   0.894638 0.783688 0.089478 -0.136894
C118  C     C_R   0.952181 0.786490 0.122839 -0.160768
C119  C     C_R   0.502646 0.219040 0.860136 0.123589
C120  C     C_R   0.514086 0.173911 0.861636 -0.151415
C121  C     C_R   0.569393 0.159208 0.900194 -0.135832
C122  C     C_R   0.613546 0.189385 0.937791 -0.112424
C123  C     C_R   0.602461 0.234310 0.936973 -0.130810
C124  C     C_3   0.906642 0.905001 0.501134 -0.009553
C125  C     C_R   0.547226 0.249141 0.898383 -0.144298
C126  C     C_R   0.491801 0.219901 0.145728 0.127877
C127  C     C_R   0.481920 0.174758 0.147401 -0.150144
C128  C     C_R   0.427214 0.158883 0.111875 -0.134654
C129  C     C_R   0.382043 0.187858 0.074038 -0.105153
C130  C     C_R   0.391503 0.232737 0.071502 -0.140955
C131  C     C_R   0.446136 0.248743 0.107047 -0.155702
C132  C     C_R   0.540099 0.822261 0.137416 0.133132
C133  C     C_R   0.563079 0.854519 0.120077 -0.127746
C134  C     C_R   0.532712 0.892612 0.085272 -0.117359
C135  C     C_3   0.092884 0.904918 0.498197 -0.012899
C136  C     C_R   0.479062 0.898383 0.066775 -0.114814
C137  C     C_R   0.455955 0.866299 0.083853 -0.131237
C138  C     C_R   0.486511 0.828448 0.119554 -0.125035
C139  C     C_R   0.463552 0.820144 0.865598 0.119675
C140  C     C_R   0.439968 0.857117 0.873971 -0.112546
C141  C     C_R   0.473302 0.893761 0.911668 -0.121995
C142  C     C_R   0.530299 0.893575 0.941461 -0.120848
C143  C     C_R   0.554112 0.856660 0.933916 -0.134266
C144  C     C_R   0.520855 0.820049 0.895936 -0.143462
C145  C     C_R   0.060952 0.329360 0.140288 0.143534
C146  C     C_3   0.406062 0.405200 0.500454 -0.009426
C147  C     C_R   0.088935 0.351475 0.118831 -0.139605
C148  C     C_R   0.071170 0.393296 0.089211 -0.113577
C149  C     C_R   0.024770 0.412830 0.079593 -0.105186
C150  C     C_R   0.996165 0.390599 0.099822 -0.131926
C151  C     C_R   0.014410 0.349082 0.130606 -0.113373
C152  C     C_R   0.949374 0.326918 0.862112 0.134082
C153  C     C_R   0.921786 0.359252 0.872701 -0.106357
C154  C     C_R   0.947984 0.399662 0.903252 -0.115388
C155  C     C_R   0.001849 0.407861 0.923650 -0.110273
C156  C     C_R   0.030132 0.375273 0.915064 -0.137987
C157  C     C_3   0.593825 0.405409 0.499060 -0.013381
C158  C     C_R   0.003976 0.334871 0.884270 -0.145910
C159  C     C_R   0.865605 0.891009 0.607966 0.128434
C160  C     C_R   0.841032 0.929692 0.610345 -0.135579
C161  C     C_R   0.836502 0.936256 0.663587 -0.142479
C162  C     C_R   0.856598 0.904398 0.714828 -0.119608
C163  C     C_R   0.881110 0.865842 0.712821 -0.127402
C164  C     C_R   0.885402 0.859022 0.659453 -0.159416
C165  C     C_R   0.140381 0.894294 0.397937 0.145333
C166  C     C_R   0.166779 0.933360 0.400472 -0.136809
C167  C     C_R   0.173905 0.941780 0.349885 -0.141187
C168  C     C_3   0.925688 0.874805 0.561706 0.081771
C169  C     C_R   0.154581 0.911419 0.296416 -0.131940
C170  C     C_R   0.128270 0.872501 0.293568 -0.138304
C171  C     C_R   0.121470 0.863819 0.344324 -0.135091
C172  C     C_R   0.416451 0.356141 0.639241 0.107568
C173  C     C_R   0.470067 0.340251 0.691810 -0.149810
C174  C     C_R   0.486188 0.334290 0.758439 -0.154762
C175  C     C_R   0.448892 0.343725 0.773084 -0.099592
C176  C     C_R   0.395347 0.359106 0.721076 -0.132864
C177  C     C_R   0.379210 0.365409 0.654559 -0.150799
C178  C     C_R   0.578904 0.354834 0.358750 0.110461
C179  C     C_3   0.075243 0.876354 0.436193 0.081030
C180  C     C_R   0.523347 0.341496 0.307892 -0.140923
C181  C     C_R   0.503246 0.336639 0.239332 -0.168295
C182  C     C_R   0.538290 0.345069 0.220938 -0.093205
C183  C     C_R   0.593612 0.358021 0.271139 -0.126736
C184  C     C_R   0.613960 0.362800 0.339768 -0.170246
C185  C     C_3   0.427326 0.359788 0.533304 0.082325
C186  C     C_3   0.572756 0.359469 0.467625 0.081913
C187  C     C_3   0.901289 0.834367 0.513323 -0.197321
C188  C     C_R   0.311230 0.310659 0.500844 0.895759
C189  C     C_3   0.096520 0.834645 0.481140 -0.241612
C190  C     C_3   0.375243 0.337957 0.468506 -0.185198
C191  C     C_3   0.625596 0.338620 0.532201 -0.228652
C192  C     C_3   0.881181 0.865303 0.452689 0.137672
C193  C     C_3   0.115200 0.863966 0.543358 0.139399
C194  C     C_3   0.353766 0.383959 0.437103 0.140195
C195  C     C_3   0.646864 0.385172 0.562283 0.142951
C196  C     C_3   0.824906 0.873742 0.439101 -0.211604
C197  C     C_3   0.173236 0.872091 0.561702 -0.213903
C198  C     C_3   0.323081 0.389792 0.468911 -0.244039
C199  C     C_R   0.688367 0.310648 0.498318 0.892416
C200  C     C_3   0.676337 0.390365 0.528868 -0.241550
C201  C     C_3   0.845436 0.843847 0.501171 -0.065711
C202  C     C_3   0.154227 0.843890 0.498130 -0.064981
C203  C     C_3   0.345634 0.344190 0.502162 -0.068798
C204  C     C_3   0.653903 0.344188 0.496836 -0.064906
C205  C     C_R   0.683085 0.750233 0.365161 0.872740
C206  C     C_R   0.317147 0.750185 0.634815 0.872928
C207  C     C_R   0.183286 0.250344 0.365362 0.879742
C208  C     C_R   0.816938 0.250318 0.634638 0.880304
C209  C     C_R   0.829999 0.761022 0.746208 -0.060043
C210  C     C_R   0.645081 0.749595 0.289117 -0.122357
C211  C     C_R   0.161610 0.762504 0.249525 -0.105989
C212  C     C_R   0.331933 0.262874 0.747184 -0.061585
C213  C     C_R   0.660957 0.266502 0.249802 -0.104055
C214  C     C_R   0.864762 0.762267 0.818352 0.050878
C215  C     C_R   0.122712 0.765632 0.177412 0.055380
C216  C     C_R   0.367509 0.264056 0.819361 0.056027
C217  C     C_R   0.622542 0.268037 0.177553 0.059144
C218  C     C_R   0.922204 0.753936 0.855558 -0.036642
C219  C     C_R   0.065421 0.759623 0.145057 -0.013743
C220  C     C_R   0.423185 0.250078 0.855673 -0.040456
C221  C     C_R   0.355826 0.749066 0.710756 -0.121134
C222  C     C_R   0.567762 0.252679 0.144216 -0.012192
C223  C     C_R   0.945445 0.744371 0.821198 -0.050661
C224  C     C_R   0.046273 0.751399 0.184448 -0.067680
C225  C     C_R   0.443935 0.234509 0.820734 -0.052352
C226  C     C_R   0.549914 0.236528 0.181989 -0.072922
C227  C     C_R   0.910511 0.741959 0.748710 0.028833
C228  C     C_R   0.084995 0.748335 0.256665 0.028655
C229  C     C_R   0.409032 0.234652 0.748230 0.062750
C230  C     C_R   0.587188 0.237207 0.254481 0.064911
C231  C     C_R   0.852648 0.750163 0.710888 -0.150523
C232  C     C_R   0.145875 0.250280 0.289684 -0.117042
C233  C     C_R   0.142802 0.753153 0.289368 -0.129481
C234  C     C_R   0.352894 0.248934 0.711046 -0.143382
C235  C     C_R   0.643242 0.251361 0.288831 -0.122691
C236  C     C_R   0.026168 0.759464 0.069482 0.337213
C237  C     C_R   0.958091 0.756270 0.930608 0.292840
C238  C     C_R   0.529811 0.252067 0.069139 0.343256
C239  C     C_R   0.459452 0.250873 0.930596 0.294293
C240  C     C_3   0.601437 0.665373 0.492987 -0.209917
C241  C     C_3   0.407987 0.661729 0.533579 -0.206992
C242  C     C_3   0.100574 0.165364 0.491001 -0.208355
C243  C     C_R   0.854985 0.249931 0.710277 -0.117345
C244  C     C_3   0.908800 0.160627 0.537617 -0.203511
C245  C     C_3   0.622773 0.632366 0.551594 0.124258
C246  C     C_3   0.394816 0.639329 0.468590 0.139771
C247  C     C_3   0.121445 0.133194 0.550432 0.125562
C248  C     C_3   0.897790 0.140403 0.472518 0.138745
C249  C     C_3   0.594003 0.594636 0.499540 -0.032461
C250  C     C_3   0.406412 0.594279 0.502015 -0.010004
C251  C     C_3   0.093918 0.094748 0.499560 -0.034012
C252  C     C_3   0.906277 0.094271 0.501790 -0.010625
C253  C     C_R   0.689058 0.689337 0.499924 0.876867
C254  C     C_R   0.466276 0.739438 0.929797 0.316080
C255  C     C_R   0.311250 0.689298 0.500741 0.888388
C256  C     C_R   0.189054 0.189341 0.499912 0.877567
C257  C     C_R   0.811219 0.189300 0.500689 0.886845
C258  C     C_3   0.572235 0.626954 0.439724 -0.176242
C259  C     C_3   0.419683 0.615751 0.567825 -0.187056
C260  C     C_3   0.072629 0.126223 0.438931 -0.177069
C261  C     C_3   0.917288 0.113543 0.567567 -0.187413
C262  C     C_3   0.626107 0.618230 0.446178 -0.176934
C263  C     C_3   0.357094 0.610411 0.536649 -0.183249
C264  C     C_3   0.127353 0.117539 0.447359 -0.176494
H1    H     H_    0.783464 0.872085 0.387985 0.128154
H2    H     H_    0.455753 0.607269 0.621336 0.156384
H3    H     H_    0.452780 0.283454 0.103875 0.117900
H4    H     H_    0.954691 0.702130 0.730581 0.195240
H5    H     H_    0.962443 0.757059 0.724344 0.170350
H6    H     H_    0.037690 0.767790 0.286354 0.174307
H7    H     H_    0.044980 0.712219 0.284898 0.191437
H8    H     H_    0.442804 0.189021 0.721967 0.180771
H9    H     H_    0.466434 0.241405 0.730108 0.192895
H10   H     H_    0.532746 0.244555 0.277315 0.196860
H11   H     H_    0.556058 0.192136 0.284888 0.181246
H12   H     H_    0.579449 0.640103 0.590325 0.185537
H13   H     H_    0.029731 0.126010 0.389457 0.151441
H14   H     H_    0.639831 0.612245 0.642092 0.201341
H15   H     H_    0.394211 0.637270 0.384768 0.183311
H16   H     H_    0.407468 0.687441 0.421702 0.182735
H17   H     H_    0.076399 0.141767 0.586667 0.186712
H18   H     H_    0.136856 0.114427 0.640528 0.200399
H19   H     H_    0.903627 0.139025 0.393726 0.184292
H20   H     H_    0.911553 0.189372 0.427883 0.181459
H21   H     H_    0.604690 0.850406 0.134388 0.119870
H22   H     H_    0.550823 0.917741 0.072815 0.118309
H23   H     H_    0.455520 0.927803 0.039501 0.115385
H24   H     H_    0.951474 0.103246 0.621020 0.155895
H25   H     H_    0.414540 0.870908 0.069859 0.123196
H26   H     H_    0.468607 0.804019 0.133389 0.119945
H27   H     H_    0.395806 0.857634 0.850836 0.119831
H28   H     H_    0.454970 0.922308 0.917789 0.118735
H29   H     H_    0.556042 0.922002 0.970524 0.112986
H30   H     H_    0.598259 0.856538 0.957105 0.125630
H31   H     H_    0.539520 0.791855 0.889522 0.133044
H32   H     H_    0.125404 0.336890 0.126976 0.119685
H33   H     H_    0.093571 0.410656 0.074030 0.117282
H34   H     H_    0.010997 0.445190 0.056464 0.112059
H35   H     H_    0.628117 0.613525 0.402554 0.139381
H36   H     H_    0.960329 0.405792 0.092487 0.121327
H37   H     H_    0.992908 0.332552 0.147756 0.116553
H38   H     H_    0.879584 0.353540 0.855692 0.116923
H39   H     H_    0.926357 0.424779 0.910540 0.117229
H40   H     H_    0.021886 0.439329 0.946741 0.110335
H41   H     H_    0.072021 0.381558 0.931428 0.122466
H42   H     H_    0.025555 0.310291 0.875977 0.126002
H43   H     H_    0.733910 0.596959 0.651586 0.179042
H44   H     H_    0.759100 0.615696 0.610664 0.188739
H45   H     H_    0.287777 0.623349 0.335001 0.170928
H46   H     H_    0.341033 0.599480 0.565101 0.148627
H47   H     H_    0.250013 0.637486 0.362112 0.179716
H48   H     H_    0.232787 0.099088 0.653601 0.180240
H49   H     H_    0.258952 0.117400 0.613598 0.186407
H50   H     H_    0.793468 0.129368 0.334628 0.173767
H51   H     H_    0.753216 0.142617 0.358510 0.177505
H52   H     H_    0.564370 0.653211 0.127839 0.180452
H53   H     H_    0.633562 0.645453 0.184840 0.174927
H54   H     H_    0.382342 0.672149 0.874518 0.185494
H55   H     H_    0.374210 0.641381 0.811691 0.174899
H56   H     H_    0.046665 0.157531 0.126974 0.180098
H57   H     H_    0.130425 0.112197 0.404691 0.138932
H58   H     H_    0.113187 0.141233 0.184005 0.174631
H59   H     H_    0.892919 0.167777 0.875475 0.179973
H60   H     H_    0.890189 0.140057 0.813827 0.174210
H61   H     H_    0.825328 0.954789 0.571264 0.113642
H62   H     H_    0.817501 0.966111 0.665195 0.122845
H63   H     H_    0.853214 0.909604 0.756107 0.118015
H64   H     H_    0.896840 0.841309 0.752698 0.136514
H65   H     H_    0.904075 0.828830 0.658201 0.111148
H66   H     H_    0.181845 0.957350 0.441278 0.110589
H67   H     H_    0.194302 0.971919 0.352051 0.124489
H68   H     H_    0.835128 0.097392 0.557183 0.147910
H69   H     H_    0.160028 0.918023 0.257235 0.123486
H70   H     H_    0.113196 0.849076 0.252053 0.138488
H71   H     H_    0.101497 0.833384 0.341911 0.110986
H72   H     H_    0.499848 0.332625 0.682332 0.116556
H73   H     H_    0.527675 0.322273 0.798700 0.126603
H74   H     H_    0.461361 0.339009 0.824615 0.130636
H75   H     H_    0.366432 0.366368 0.732377 0.123640
H76   H     H_    0.337745 0.377903 0.615054 0.143268
H77   H     H_    0.494956 0.335548 0.320198 0.152026
H78   H     H_    0.460299 0.326664 0.200375 0.131218
H79   H     H_    0.665613 0.552095 0.511994 0.129135
H80   H     H_    0.522660 0.341671 0.167821 0.126614
H81   H     H_    0.620481 0.364783 0.256601 0.121551
H82   H     H_    0.656752 0.373563 0.377891 0.140425
H83   H     H_    0.984108 0.849210 0.656651 0.167905
H84   H     H_    0.983730 0.904585 0.653853 0.196697
H85   H     H_    0.019776 0.854422 0.337578 0.167858
H86   H     H_    0.990470 0.872282 0.373942 0.198863
H87   H     H_    0.487743 0.312692 0.582340 0.178523
H88   H     H_    0.511677 0.365181 0.606900 0.195066
H89   H     H_    0.515573 0.309906 0.428592 0.176480
H90   H     H_    0.319156 0.557865 0.444947 0.134875
H91   H     H_    0.508602 0.348334 0.472479 0.205357
H92   H     H_    0.867014 0.826358 0.375611 0.176719
H93   H     H_    0.866391 0.880624 0.361945 0.191254
H94   H     H_    0.124509 0.823186 0.615403 0.178689
H95   H     H_    0.125815 0.877074 0.632402 0.195120
H96   H     H_    0.296171 0.373422 0.334300 0.166436
H97   H     H_    0.313635 0.426606 0.356668 0.180952
H98   H     H_    0.705902 0.376483 0.665080 0.166510
H99   H     H_    0.687569 0.429253 0.641570 0.181481
H100  H     H_    0.167050 0.052336 0.515590 0.126087
H101  H     H_    0.213323 0.869220 0.614027 0.125898
H102  H     H_    0.817288 0.059907 0.437012 0.134970
H103  H     H_    0.668444 0.683132 0.284610 0.157470
H104  H     H_    0.333519 0.681740 0.713139 0.157570
H105  H     H_    0.155756 0.180355 0.284412 0.150909
H106  H     H_    0.843917 0.179961 0.713917 0.151970
H107  H     H_    0.831325 0.947146 0.478461 0.128902
H108  H     H_    0.171457 0.946465 0.529635 0.126104
H109  H     H_    0.377767 0.441651 0.560318 0.148558
H110  H     H_    0.620107 0.440681 0.436606 0.147152
H111  H     H_    0.921420 0.801634 0.523055 0.154981
H112  H     H_    0.279885 0.401595 0.443474 0.165091
H113  H     H_    0.074912 0.802192 0.467421 0.156937
H114  H     H_    0.374108 0.307779 0.441632 0.147592
H115  H     H_    0.627492 0.308964 0.560155 0.149398
H116  H     H_    0.541276 0.817804 0.277641 0.109318
H117  H     H_    0.550346 0.888371 0.335246 0.119901
H118  H     H_    0.629548 0.939056 0.375017 0.117259
H119  H     H_    0.699554 0.919357 0.356434 0.120363
H120  H     H_    0.690552 0.848978 0.298112 0.100409
H121  H     H_    0.464588 0.822330 0.735183 0.116580
H122  H     H_    0.455404 0.893311 0.679384 0.122537
H123  H     H_    0.719252 0.402597 0.553053 0.161151
H124  H     H_    0.371111 0.939615 0.629884 0.117811
H125  H     H_    0.296026 0.915103 0.636894 0.121877
H126  H     H_    0.305153 0.844313 0.693521 0.097266
H127  H     H_    0.068067 0.326935 0.300786 0.112890
H128  H     H_    0.083327 0.402144 0.349459 0.117014
H129  H     H_    0.153672 0.451722 0.359561 0.118458
H130  H     H_    0.209380 0.425758 0.321681 0.117065
H131  H     H_    0.196370 0.349973 0.275887 0.111991
H132  H     H_    0.941762 0.326919 0.711362 0.113232
H133  H     H_    0.928842 0.401772 0.663573 0.118513
H134  H     H_    0.583283 0.698399 0.487946 0.146370
H135  H     H_    0.853886 0.450315 0.643622 0.117650
H136  H     H_    0.791339 0.423693 0.670841 0.114985
H137  H     H_    0.801925 0.348111 0.715240 0.108268
H138  H     H_    0.786618 0.841995 0.734376 0.116801
H139  H     H_    0.687028 0.861699 0.670837 0.123997
H140  H     H_    0.613712 0.803800 0.609252 0.121084
H141  H     H_    0.640162 0.726115 0.611697 0.151272
H142  H     H_    0.739726 0.705670 0.674927 0.142286
H143  H     H_    0.226195 0.836586 0.306466 0.129862
H144  H     H_    0.325845 0.844546 0.355693 0.119141
H145  H     H_    0.433056 0.692299 0.558401 0.147110
H146  H     H_    0.377808 0.780648 0.356298 0.117061
H147  H     H_    0.329469 0.708772 0.306561 0.121798
H148  H     H_    0.230325 0.700140 0.258877 0.131006
H149  H     H_    0.289818 0.344236 0.739103 0.111068
H150  H     H_    0.190551 0.364537 0.676780 0.124505
H151  H     H_    0.116378 0.307470 0.612884 0.121114
H152  H     H_    0.141663 0.229819 0.611844 0.150177
H153  H     H_    0.240827 0.208805 0.674199 0.138960
H154  H     H_    0.712786 0.346701 0.299294 0.105679
H155  H     H_    0.811588 0.364341 0.352999 0.118187
H156  H     H_    0.081873 0.198352 0.484582 0.147121
H157  H     H_    0.875295 0.306008 0.366112 0.117242
H158  H     H_    0.839572 0.229919 0.324193 0.121556
H159  H     H_    0.740803 0.211844 0.270531 0.134011
H160  H     H_    0.847386 0.746262 0.884382 0.206822
H161  H     H_    0.861792 0.800599 0.884661 0.184530
H162  H     H_    0.167128 0.747944 0.142842 0.187576
H163  H     H_    0.163877 0.803311 0.152304 0.190062
H164  H     H_    0.351384 0.252470 0.887770 0.195919
H165  H     H_    0.368479 0.305604 0.885671 0.190186
H166  H     H_    0.671391 0.263572 0.146020 0.187675
H167  H     H_    0.934654 0.190325 0.565907 0.145895
H168  H     H_    0.654391 0.315925 0.152306 0.186733
H169  H     H_    0.003521 0.671215 0.894013 0.130034
H170  H     H_    0.105696 0.659766 0.964196 0.124481
H171  H     H_    0.166880 0.718522 0.972160 0.119657
H172  H     H_    0.125718 0.789000 0.909698 0.125406
H173  H     H_    0.023659 0.801043 0.839628 0.120623
H174  H     H_    0.985647 0.677952 0.164704 0.122429
H175  H     H_    0.883925 0.673464 0.106131 0.126573
H176  H     H_    0.825516 0.740850 0.057665 0.124185
H177  H     H_    0.869074 0.813058 0.068121 0.127566
H178  H     H_    0.528967 0.627383 0.390893 0.151516
H179  H     H_    0.970813 0.818160 0.126995 0.126116
H180  H     H_    0.480212 0.150167 0.833404 0.122995
H181  H     H_    0.578026 0.124393 0.901173 0.124257
H182  H     H_    0.656334 0.177938 0.967758 0.119917
H183  H     H_    0.636668 0.257626 0.966430 0.127595
H184  H     H_    0.539206 0.283948 0.898742 0.124567
H185  H     H_    0.516534 0.151868 0.175692 0.121194
H186  H     H_    0.419828 0.124075 0.113402 0.124743
H187  H     H_    0.339714 0.175499 0.046415 0.123439
H188  H     H_    0.356490 0.255104 0.041760 0.127762
N1    N     N_R   0.554244 0.729052 0.034097 -0.148975
N2    N     N_R   0.989338 0.725663 0.035611 -0.171498
N3    N     N_R   0.480611 0.289692 0.965034 -0.199658
N4    N     N_R   0.508624 0.213250 0.034616 -0.163431
N5    N     N_R   0.028278 0.791713 0.032679 -0.155850
N6    N     N_R   0.955679 0.724138 0.967169 -0.184793
N7    N     N_R   0.515388 0.290285 0.033475 -0.176104
N8    N     N_R   0.474033 0.212641 0.966183 -0.159630
N9    N     N_3   0.841107 0.772880 0.853296 -0.459194
N10   N     N_3   0.141142 0.773755 0.135997 -0.437818
N11   N     N_3   0.345825 0.277990 0.855410 -0.461247
N12   N     N_R   0.520897 0.728391 0.965538 -0.170020
N13   N     N_3   0.639252 0.283639 0.136887 -0.448601
N14   N     N_3   0.933707 0.732326 0.712997 -0.435303
N15   N     N_3   0.065776 0.742530 0.297666 -0.440750
N16   N     N_3   0.431067 0.222203 0.712036 -0.424286
N17   N     N_3   0.567684 0.225417 0.293661 -0.424965
N18   N     N_3   0.621405 0.639568 0.609667 -0.475608
N19   N     N_3   0.416561 0.653873 0.432124 -0.478558
N20   N     N_3   0.118634 0.141344 0.607187 -0.473884
N21   N     N_3   0.922590 0.156204 0.440215 -0.480256
N22   N     N_3   0.731838 0.623218 0.622468 -0.484695
N23   N     N_R   0.047303 0.220703 0.033008 -0.147499
N24   N     N_3   0.286570 0.644804 0.367758 -0.482401
N25   N     N_3   0.230859 0.124987 0.624062 -0.485706
N26   N     N_3   0.791261 0.149631 0.367704 -0.487121
N27   N     N_3   0.603220 0.667902 0.149215 -0.442317
N28   N     N_3   0.399242 0.665867 0.848359 -0.453996
N29   N     N_3   0.088026 0.166005 0.148640 -0.439767
N30   N     N_3   0.910886 0.165697 0.849892 -0.446630
N31   N     N_3   0.981204 0.876027 0.627842 -0.437065
N32   N     N_3   0.021441 0.879582 0.368238 -0.435875
N33   N     N_3   0.484038 0.344808 0.564558 -0.488239
N34   N     N_R   0.012977 0.220303 0.964431 -0.154378
N35   N     N_3   0.516133 0.343955 0.436256 -0.465758
N36   N     N_3   0.887787 0.856090 0.399326 -0.463228
N37   N     N_3   0.105035 0.853367 0.593096 -0.448083
N38   N     N_3   0.330019 0.394716 0.366102 -0.437201
N39   N     N_3   0.671654 0.397206 0.633357 -0.441579
N40   N     N_R   0.445757 0.750735 0.964305 -0.179689
N41   N     N_R   0.479063 0.751301 0.032780 -0.180159
N42   N     N_R   0.951521 0.266998 0.965585 -0.177106
N43   N     N_R   0.985627 0.267141 0.034010 -0.175408
N44   N     N_R   0.994750 0.790128 0.964214 -0.169335
O1    O     O_R   0.822760 0.770240 0.499990 -0.631963
O2    O     O_R   0.075230 0.953450 0.557500 -0.628625
O3    O     O_R   0.424770 0.453450 0.442500 -0.614322
O4    O     O_R   0.575230 0.453450 0.557500 -0.618707
O5    O     O_R   0.982280 0.953430 0.557510 -0.619052
O6    O     O_R   0.017720 0.953430 0.442490 -0.612734
O7    O     O_R   0.482280 0.453430 0.557510 -0.630009
O8    O     O_R   0.517720 0.453430 0.442490 -0.613611
O9    O     O_R   0.770230 0.822760 0.499990 -0.606592
O10   O     O_R   0.229770 0.822760 0.500010 -0.613509
O11   O     O_R   0.270230 0.322760 0.499990 -0.626942
O12   O     O_R   0.177240 0.770240 0.500010 -0.626675
O13   O     O_R   0.729770 0.322760 0.500010 -0.629246
O14   O     O_R   0.725330 0.723740 0.398130 -0.628051
O15   O     O_R   0.274670 0.723740 0.601870 -0.629380
O16   O     O_R   0.225330 0.223740 0.398130 -0.625560
O17   O     O_R   0.774670 0.223740 0.601870 -0.627593
O18   O     O_R   0.672800 0.776260 0.398130 -0.609382
O19   O     O_R   0.327200 0.776260 0.601870 -0.608518
O20   O     O_R   0.172800 0.276260 0.398130 -0.616992
O21   O     O_R   0.827200 0.276260 0.601870 -0.615222
O22   O     O_R   0.729750 0.677220 0.500010 -0.632603
O23   O     O_R   0.322760 0.270240 0.499990 -0.625816
O24   O     O_R   0.270250 0.677220 0.499990 -0.636179
O25   O     O_R   0.229750 0.177220 0.500010 -0.633491
O26   O     O_R   0.770250 0.177220 0.499990 -0.636699
O27   O     O_R   0.677220 0.729740 0.500010 -0.626710
O28   O     O_R   0.322780 0.729740 0.499990 -0.619250
O29   O     O_R   0.177220 0.229740 0.500010 -0.627075
O30   O     O_R   0.822780 0.229740 0.499990 -0.618239
O31   O     O_R   0.827180 0.723730 0.601860 -0.596040
O32   O     O_R   0.172820 0.723730 0.398140 -0.602139
O33   O     O_R   0.327180 0.223730 0.601860 -0.595649
O34   O     O_R   0.677240 0.270240 0.500010 -0.625003
O35   O     O_R   0.672820 0.223730 0.398140 -0.600465
O36   O     O_R   0.774660 0.776250 0.601860 -0.614357
O37   O     O_R   0.225340 0.776250 0.398140 -0.615755
O38   O     O_R   0.274660 0.276250 0.601860 -0.622496
O39   O     O_R   0.725340 0.276250 0.398140 -0.617700
O40   O     O_R   0.424770 0.546480 0.442520 -0.633359
O41   O     O_R   0.575230 0.546480 0.557480 -0.641900
O42   O     O_R   0.924770 0.046480 0.442520 -0.633835
O43   O     O_R   0.075230 0.046480 0.557480 -0.640913
O44   O     O_R   0.482280 0.546460 0.557530 -0.633357
O45   O     O_R   0.517720 0.546460 0.442470 -0.624652
O46   O     O_R   0.982280 0.046460 0.557530 -0.633578
O47   O     O_R   0.017720 0.046460 0.442470 -0.622271
O48   O     O_R   0.924770 0.953450 0.442500 -0.633847
Zn1   Zn    Zn3+2 0.785070 0.714920 0.500000 0.942090
Zn2   Zn    Zn3+2 0.038370 0.999960 0.576800 0.935030
Zn3   Zn    Zn3+2 0.461630 0.499960 0.423200 0.950542
Zn4   Zn    Zn3+2 0.538370 0.499960 0.576800 0.936654
Zn5   Zn    Zn3+2 0.214930 0.714920 0.500000 0.939743
Zn6   Zn    Zn3+2 0.285070 0.214920 0.500000 0.944483
Zn7   Zn    Zn3+2 0.714930 0.214920 0.500000 0.941350
Zn8   Zn    Zn3+2 0.714920 0.785060 0.500000 0.976672
Zn9   Zn    Zn3+2 0.285080 0.785060 0.500000 0.973213
Zn10  Zn    Zn3+2 0.214920 0.285060 0.500000 0.952072
Zn11  Zn    Zn3+2 0.785080 0.285060 0.500000 0.957372
Zn12  Zn    Zn3+2 0.961630 0.999960 0.423200 0.942831

loop_
_geom_bond_atom_site_label_1
_geom_bond_atom_site_label_2
_ccdc_geom_bond_type
C172  C177  A    
C188  O11   A    
C105  C110  A    
C160  H61   S    
H166  N13   S    
C112  C202  S    
C260  C264  S    
C114  C115  A    
C185  C190  S    
C182  H80   S    
C47   N30   S    
C126  C127  A    
C24   N43   A    
C111  C118  A    
C74   H133  S    
C173  H72   S    
C97   H153  S    
C87   H144  S    
O36   Zn8   S    
C19   C252  S    
C131  H3    S    
C164  H65   S    
C206  C221  S    
C143  C144  A    
C85   C211  S    
C17   C250  S    
C179  N32   S    
C108  C109  A    
H18   N20   S    
C209  C231  A    
C31   C59   S    
C229  C234  A    
C182  C183  A    
H7    N15   S    
C124  C168  S    
C153  H38   S    
C238  N7    A    
C3    C261  S    
C82   H140  S    
C236  N5    A    
C146  C194  S    
C57   C185  S    
C7    H102  S    
H86   N32   S    
O32   Zn5   S    
C50   H105  S    
C101  H109  S    
C15   C242  S    
C59   C60   A    
H95   N37   S    
C168  C187  S    
C117  H177  S    
C86   H143  S    
C104  H159  S    
N3    N7    A    
C24   C41   S    
C28   O33   A    
C126  C226  S    
C116  H176  S    
C13   C42   S    
C125  H184  S    
C91   H148  S    
C76   C77   A    
C23   O7    A    
C17   O40   A    
C8    N22   S    
H98   N39   S    
C24   N23   A    
C140  C141  A    
C189  H113  S    
O47   Zn12  S    
C237  N44   A    
C35   C201  S    
C244  H167  S    
C66   H127  S    
C241  H145  S    
C84   H142  S    
C239  N8    A    
C29   O35   A    
O34   Zn7   S    
O28   Zn9   S    
C251  C260  S    
C175  C176  A    
H8    N16   S    
C78   C209  S    
C18   O45   A    
C12   C262  S    
C157  C186  S    
C9    C246  S    
C154  C155  A    
C52   C58   A    
O37   Zn9   S    
H6    N15   S    
C128  H186  S    
C8    C245  S    
H19   N21   S    
C248  C252  S    
H14   N18   S    
C199  C204  S    
C192  C196  S    
C67   C69   A    
H99   N39   S    
C10   N25   S    
C157  C195  S    
C17   O44   A    
C5    C250  S    
H87   N33   S    
C72   C73   A    
C212  C234  A    
C139  C140  A    
H47   N24   S    
O5    Zn2   S    
C156  H41   S    
O45   Zn3   S    
H44   N22   S    
C33   C38   A    
O22   Zn1   S    
C22   C135  S    
C156  C158  A    
C27   O32   A    
C229  N16   S    
C140  H27   S    
C260  H13   S    
C195  N39   S    
H89   N35   S    
C180  H77   S    
C154  H39   S    
C11   N26   S    
C193  N37   S    
C134  H22   S    
C122  H182  S    
C111  C224  S    
C69   H129  S    
C69   C70   A    
O17   Zn7   S    
C190  H114  S    
C88   C89   A    
H94   N37   S    
C4    C262  S    
C98   C99   A    
C106  C107  A    
C259  C263  S    
C155  C156  A    
C5    C263  S    
C41   C45   A    
C31   C36   A    
C6    C264  S    
C186  N35   S    
C113  C157  S    
C213  C235  A    
C149  H34   S    
C28   C234  S    
C32   C65   S    
C20   O47   A    
C165  C171  A    
C227  C231  A    
C32   C232  A    
C46   C165  S    
C68   C204  S    
C146  C185  S    
C147  C148  A    
C208  C243  S    
C249  C258  S    
C206  O19   A    
C128  C129  A    
C258  H178  S    
H50   N26   S    
O42   Zn12  S    
C218  C223  A    
C167  C169  A    
H15   N19   S    
C85   C86   A    
C93   H149  S    
C3    H68   S    
C1    O1    A    
C61   H122  S    
C49   H104  S    
C45   C50   A    
C102  H157  S    
H161  N9    S    
C223  C227  A    
C147  H32   S    
C123  H183  S    
C115  C116  A    
C14   C241  S    
C77   H137  S    
C22   O2    A    
C192  N36   S    
C174  C175  A    
C29   C235  S    
C219  C224  A    
C257  O26   A    
O7    Zn4   S    
C115  H175  S    
C107  C108  A    
C112  O10   A    
C13   N42   A    
C89   C91   A    
O14   Zn1   S    
C185  N33   S    
C8    C12   S    
C205  O18   A    
C66   C67   A    
C68   C186  S    
C31   C221  A    
C258  C262  S    
C27   C233  S    
C162  H63   S    
C177  H76   S    
C184  H82   S    
C92   C97   A    
O43   Zn2   S    
C158  H42   S    
C23   C146  S    
O11   Zn10  S    
C30   C34   A    
C34   C39   A    
H92   N36   S    
C199  O34   A    
C103  H158  S    
H165  N11   S    
C214  C218  A    
O18   Zn8   S    
C215  N10   S    
C226  C230  A    
C205  O14   A    
C211  C233  A    
C83   H141  S    
C253  O22   A    
H53   N27   S    
C5    C9    S    
C167  H67   S    
C130  C131  A    
C83   C84   A    
C179  C189  S    
C12   C240  S    
C200  C204  S    
O10   Zn9   S    
C35   C168  S    
O48   Zn12  S    
C197  C202  S    
C27   O37   A    
C32   C37   A    
H163  N10   S    
C228  C233  A    
C16   C244  S    
C166  H66   S    
C33   C243  A    
H10   N17   S    
N23   N34   A    
C250  C259  S    
C198  C203  S    
C120  C121  A    
C129  C130  A    
C56   H119  S    
O9    Zn8   S    
C245  C249  S    
C54   C55   A    
C12   C253  S    
O8    Zn3   S    
C49   C221  A    
H160  N9    S    
H17   N20   S    
C51   C243  A    
C216  C220  A    
C136  C137  A    
H91   N35   S    
C247  C251  S    
C189  C202  S    
C57   C101  S    
C79   C124  S    
C239  N3    A    
C40   C254  S    
C259  H2    S    
C114  H174  S    
C117  C118  A    
C236  N2    A    
C90   C135  S    
H85   N32   S    
C194  C198  S    
O20   Zn10  S    
C205  C210  S    
C120  H180  S    
H58   N29   S    
C35   C79   S    
C190  C194  S    
O23   Zn6   S    
C56   C58   A    
C163  H64   S    
C112  O12   A    
O33   Zn6   S    
C37   C41   A    
C102  C103  A    
O13   Zn11  S    
C36   C139  S    
C191  C195  S    
C92   C212  S    
C63   C64   A    
C189  C193  S    
C40   C44   A    
C152  C153  A    
C150  C151  A    
C21   O5    A    
C10   C247  S    
C240  C258  S    
C196  C201  S    
C136  H23   S    
C3    C16   S    
C248  N21   S    
C191  H115  S    
C55   C56   A    
C246  N19   S    
C73   C74   A    
C121  H181  S    
C43   N27   S    
C176  H75   S    
O15   Zn5   S    
C1    C201  S    
C161  C162  A    
C183  H81   S    
C90   C197  S    
C45   N29   S    
C181  C182  A    
C52   C53   A    
C93   C94   A    
C75   H135  S    
C6    C251  S    
C11   C248  S    
C76   H136  S    
C9    N24   S    
C96   H152  S    
C4    C249  S    
C70   H130  S    
C3    C7    S    
C220  C225  A    
C107  H170  S    
H48   N25   S    
H16   N19   S    
H60   N30   S    
C207  C232  S    
C123  C125  A    
C18   C249  S    
C132  C138  A    
C224  C228  A    
O39   Zn11  S    
N40   N41   A    
C169  C170  A    
C25   O4    A    
C186  C191  S    
O29   Zn10  S    
C217  N13   S    
O12   Zn5   S    
C95   C96   A    
C70   C71   A    
C151  H37   S    
C73   H132  S    
H54   N28   S    
C256  O29   A    
C230  N17   S    
C242  H156  S    
C4    C8    S    
C68   C113  S    
C57   C172  S    
H45   N24   S    
H96   N38   S    
C67   H128  S    
O21   Zn11  S    
H55   N28   S    
C26   O36   A    
H56   N29   S    
C145  C147  A    
C100  H155  S    
H164  N11   S    
H43   N22   S    
O3    Zn3   S    
C21   O48   A    
C152  C158  A    
C241  C246  S    
C48   H103  S    
C5    H90   S    
C6    H100  S    
C86   C87   A    
C47   C51   A    
C257  O30   A    
H59   N30   S    
C53   C54   A    
C197  H101  S    
C225  C229  A    
C113  H110  S    
C60   C61   A    
H12   N18   S    
C199  O13   A    
C9    C14   S    
C58   H120  S    
C62   C63   A    
C215  C219  A    
C11   C16   S    
C159  C160  A    
C57   C203  S    
C168  N31   S    
C230  C235  A    
C4    H79   S    
H88   N33   S    
C253  O27   A    
C137  H25   S    
C121  C122  A    
C95   H151  S    
C63   H125  S    
C98   C213  S    
C133  H21   S    
C127  H185  S    
C133  C134  A    
C26   C231  S    
C1    O9    A    
C89   H147  S    
O24   Zn5   S    
C127  C128  A    
C124  C192  S    
C180  C181  A    
C141  H28   S    
C162  C163  A    
C217  C222  A    
C110  H173  S    
C81   H139  S    
C227  N14   S    
C6    C10   S    
C178  C180  A    
C119  C120  A    
H162  N10   S    
C46   C90   S    
C90   H108  S    
C174  H73   S    
C105  C106  A    
C187  C201  S    
C106  H169  S    
C209  C214  A    
C21   C124  S    
C80   H138  S    
C138  H26   S    
C105  C223  S    
C149  C150  A    
C46   C179  S    
O16   Zn6   S    
C16   C257  S    
C30   C52   S    
C161  H62   S    
C194  N38   S    
C206  O15   A    
C68   C178  S    
C92   C93   A    
C129  H187  S    
C113  C200  S    
C111  C114  A    
C78   C80   A    
C94   C95   A    
C54   H117  S    
C64   H126  S    
C51   H106  S    
C14   C263  S    
O41   Zn4   S    
H4    N14   S    
C62   H124  S    
C46   C202  S    
O44   Zn4   S    
C87   C88   A    
C82   C83   A    
C170  C171  A    
C198  H112  S    
C103  C104  A    
C142  C143  A    
O26   Zn7   S    
N1    N12   A    
C187  H111  S    
C218  C237  S    
C23   O3    A    
O30   Zn11  S    
C44   C49   A    
C211  C215  A    
C207  O16   A    
C165  C166  A    
C99   H154  S    
C254  N40   A    
H97   N38   S    
C163  C164  A    
C55   H118  S    
C75   C76   A    
H9    N16   S    
C81   C82   A    
C85   C91   A    
C247  N20   S    
O38   Zn10  S    
C173  C174  A    
H168  N13   S    
C142  H29   S    
C7    C11   S    
C59   C64   A    
C181  H78   S    
C214  N9    S    
C237  N6    A    
C38   C42   A    
C10   C15   S    
C98   C104  A    
C190  C203  S    
O2    Zn2   S    
C222  C226  A    
C144  H31   S    
C238  N4    A    
C116  C117  A    
C19   O42   A    
C208  O17   A    
C33   C72   S    
C2    C39   S    
O4    Zn4   S    
C14   C255  S    
C212  C216  A    
H84   N31   S    
C132  C133  A    
C53   H116  S    
C60   H121  S    
N2    N6    A    
C118  H179  S    
C2    N41   A    
C28   O38   A    
C15   C264  S    
C29   O39   A    
C43   C48   A    
C261  H24   S    
C34   C132  S    
C264  H57   S    
C109  H172  S    
C196  H1    S    
C61   C62   A    
C18   O41   A    
C207  O20   A    
C38   C152  S    
C15   C256  S    
C169  H69   S    
C101  C146  S    
O40   Zn3   S    
C74   C75   A    
O46   Zn2   S    
C216  N11   S    
C171  H71   S    
C26   O31   A    
C25   O8    A    
C36   C40   A    
C148  C149  A    
C200  H123  S    
C175  H74   S    
C213  C217  A    
C101  C198  S    
H5    N14   S    
C20   C251  S    
C134  C136  A    
C65   C71   A    
C255  O24   A    
C222  C238  S    
C150  H36   S    
C79   C196  S    
C148  H33   S    
H11   N17   S    
C155  H40   S    
C256  O25   A    
C183  C184  A    
C72   C77   A    
H51   N26   S    
C79   H107  S    
C135  C193  S    
C2    N1    A    
C139  C144  A    
C228  N15   S    
C99   C100  A    
O6    Zn12  S    
N4    N8    A    
C244  C248  S    
C96   C97   A    
C100  C102  A    
C220  C239  S    
C50   C232  A    
C188  O23   A    
C145  C151  A    
O35   Zn7   S    
C252  C261  S    
C176  C177  A    
C48   C210  A    
C130  H188  S    
C262  H35   S    
C25   C157  S    
C166  C167  A    
C255  O28   A    
C240  H134  S    
H52   N27   S    
C119  C125  A    
C172  C173  A    
C119  C225  S    
N5    N44   A    
C195  C200  S    
C246  C250  S    
N42   N43   A    
O19   Zn9   S    
C241  C259  S    
H49   N25   S    
H83   N31   S    
C13   N34   A    
C159  C164  A    
C242  C260  S    
C219  C236  S    
H20   N21   S    
C80   C81   A    
C30   C210  A    
C71   H131  S    
C143  H30   S    
C44   N28   S    
C20   O43   A    
C137  C138  A    
C188  C203  S    
C242  C247  S    
C7    C252  S    
C160  C161  A    
C122  C123  A    
C135  C179  S    
C94   H150  S    
C141  C142  A    
C19   O46   A    
C240  C245  S    
C126  C131  A    
C193  C197  S    
O25   Zn6   S    
C187  C192  S    
C245  N18   S    
C170  H70   S    
H93   N36   S    
C42   C47   A    
O27   Zn8   S    
C35   C159  S    
C208  O21   A    
O1    Zn1   S    
C78   C84   A    
C65   C66   A    
C191  C204  S    
C39   C43   A    
C109  C110  A    
C22   O6    A    
C244  C261  S    
C263  H46   S    
C37   C145  S    
C153  C154  A    
O31   Zn1   S    
C178  C184  A    
C108  H171  S    
C254  N12   A    
C88   H146  S    
