data_mof_unit_38809.cif
_audit_creation_date              2012-12-10T19:44:24-0500
_audit_creation_method            fapswitch 2.2
_symmetry_space_group_name_H-M    P1
_symmetry_Int_Tables_number       1
_space_group_crystal_system       triclinic
_cell_length_a                    10.811275
_cell_length_b                    12.499359
_cell_length_c                    13.317925
_cell_angle_alpha                 117.705143
_cell_angle_beta                  72.925309
_cell_angle_gamma                 101.662712
_cell_volume                      1518.55240807

loop_
_atom_site_label
_atom_site_type_symbol
_atom_type_description
_atom_site_fract_x
_atom_site_fract_y
_atom_site_fract_z
_atom_type_partial_charge
C1    C     C_R   0.513555 0.855679 0.286352 0.799044
C2    C     C_R   0.621212 0.868983 0.828132 -0.092887
C3    C     C_R   0.031662 0.957863 0.565942 -0.193300
C4    C     C_R   0.130056 0.993803 0.490692 -0.080139
C5    C     C_R   0.098597 0.034717 0.419015 0.026405
C6    C     C_R   0.968582 0.040544 0.427038 -0.192561
C7    C     C_R   0.870719 0.004131 0.503215 -0.062912
C8    C     C_R   0.902601 0.962928 0.573855 -0.008515
C9    C     C_R   0.215662 0.194042 0.355001 -0.094259
C10   C     C_R   0.318517 0.232900 0.284192 0.343145
C11   C     C_R   0.402994 0.149952 0.192301 -0.104941
C12   C     C_R   0.736631 0.002664 0.502676 0.821570
C13   C     C_R   0.384109 0.027873 0.170706 -0.118043
C14   C     C_R   0.282444 0.988963 0.242387 -0.108318
C15   C     C_R   0.198738 0.072373 0.336075 0.066412
C16   C     C_R   0.289285 0.303298 0.023977 0.260565
C17   C     C_R   0.449871 0.233039 0.839816 -0.176869
C18   C     C_R   0.638593 0.804720 0.084871 -0.166601
C19   C     C_R   0.678145 0.720552 0.970326 -0.146564
C20   C     C_R   0.616583 0.604247 0.930931 -0.184151
C21   C     C_R   0.510175 0.570457 0.005542 0.129922
C22   C     C_R   0.462782 0.660838 0.119005 0.084313
C23   C     C_R   0.479956 0.145670 0.714845 0.848404
C24   C     C_R   0.451786 0.449565 0.973294 0.042504
C25   C     C_R   0.339915 0.424329 0.049884 0.042812
C26   C     C_R   0.283892 0.520210 0.152956 -0.096040
C27   C     C_R   0.345478 0.635884 0.187969 -0.196686
C28   C     C_R   0.501973 0.352703 0.867636 -0.265659
C29   C     C_R   0.352893 0.207910 0.924900 0.244176
C30   C     C_R   0.533697 0.774740 0.161025 -0.090160
C31   C     C_R   0.726440 0.342345 0.332143 -0.260029
C32   C     C_R   0.327235 0.758290 0.654185 0.502659
C33   C     C_R   0.325089 0.689872 0.711930 -0.212143
C34   C     C_R   0.263460 0.997081 0.496109 0.809140
C35   C     C_R   0.410339 0.601376 0.664360 -0.206295
C36   C     C_R   0.487899 0.569340 0.551722 -0.002953
C37   C     C_R   0.511103 0.658400 0.506299 0.201073
C38   C     C_R   0.549991 0.456530 0.488021 -0.037562
C39   C     C_R   0.658424 0.447069 0.395962 0.063715
C40   C     C_R   0.697639 0.540034 0.363442 -0.237362
C41   C     C_R   0.624996 0.639826 0.408759 0.285262
C42   C     C_R   0.505559 0.348652 0.505023 0.404207
C43   C     C_R   0.682775 0.242916 0.355346 0.033320
C44   C     C_R   0.644704 0.989716 0.845217 -0.072237
C45   C     C_R   0.735256 0.020462 0.761619 -0.123091
C46   C     C_R   0.804775 0.930473 0.661399 0.127134
C47   C     C_R   0.783324 0.809795 0.646052 -0.096283
C48   C     C_R   0.691120 0.779222 0.728983 -0.160497
Cu1   Cu    Cu3+1 0.529370 0.098270 0.475420 0.985542
Cu2   Cu    Cu3+1 0.470630 0.901730 0.524580 1.039111
H1    H     H_    0.482995 0.180033 0.137739 0.149884
H2    H     H_    0.449332 0.963727 0.099469 0.135967
H3    H     H_    0.270385 0.894668 0.226453 0.105174
H4    H     H_    0.693612 0.891883 0.115281 0.160998
H5    H     H_    0.654417 0.543859 0.841503 0.129364
H6    H     H_    0.760224 0.744301 0.912592 0.171486
H7    H     H_    0.592848 0.059606 0.923194 0.146108
H8    H     H_    0.735386 0.162122 0.307097 0.147297
H9    H     H_    0.784651 0.528385 0.293787 0.196254
H10   H     H_    0.811925 0.336491 0.262800 0.185810
H11   H     H_    0.415214 0.558959 0.717315 0.191943
H12   H     H_    0.255239 0.703769 0.793339 0.191252
H13   H     H_    0.836937 0.739555 0.569448 0.145137
H14   H     H_    0.943763 0.070485 0.371380 0.163930
H15   H     H_    0.151921 0.259274 0.427196 0.175893
N1    N     N_R   0.573890 0.246290 0.438210 -0.206274
N2    N     N_R   0.426890 0.754320 0.561170 -0.220834
O1    O     O_R   0.536940 0.972510 0.318130 -0.595991
O2    O     O_R   0.487330 0.806530 0.359650 -0.529116
O3    O     O_R   0.705160 0.082990 0.479250 -0.598789
O4    O     O_R   0.655550 0.917010 0.520760 -0.550559
O5    O     O_R   0.512670 0.193470 0.640350 -0.558761
O6    O     O_R   0.463060 0.027490 0.681870 -0.529017
O7    O     O_R   0.344450 0.082990 0.479240 -0.532130
O8    O     O_R   0.294840 0.917010 0.520750 -0.558509
H16   H     H_    0.549430 0.844984 0.891917 0.141320
Br1   Br    Br    0.318669 0.048895 0.918719 -0.471512
H17   H     H_    0.195503 0.506231 0.211154 0.205169
Br2   Br    Br    0.130496 0.265161 0.119787 -0.494187
H18   H     H_    0.582223 0.367353 0.803757 0.167393
H19   H     H_    0.300011 0.705946 0.270045 0.150455
Br3   Br    Br    0.340431 0.334838 0.606962 -0.515222
Br4   Br    Br    0.181357 0.849181 0.709361 -0.473317
Br5   Br    Br    0.716366 0.720377 0.311077 -0.519299
H20   H     H_    0.751918 0.114156 0.775220 0.113800
H21   H     H_    0.674011 0.685952 0.716438 0.133429
H22   H     H_    0.054443 0.931516 0.623811 0.211671
Br6   Br    Br    0.345043 0.399808 0.315261 -0.539591

loop_
_geom_bond_atom_site_label_1
_geom_bond_atom_site_label_2
_ccdc_geom_bond_type
C19   H6    S    
Cu1   O1    S    
C17   C29   A    
C19   C20   A    
C42   Br3   S    
C7    C8    A    
C45   C46   A    
C10   Br6   S    
C26   C27   A    
C17   C23   S    
C31   C43   A    
C36   C37   A    
Cu2   O2    S    
C38   C42   A    
C47   H13   S    
C5    C6    A    
C1    O1    A    
C18   C19   A    
C6    H14   S    
C43   H8    S    
C35   C36   A    
C2    C44   A    
C33   H12   S    
Cu1   O5    S    
C18   C30   A    
Cu2   N2    S    
C34   O8    A    
C40   H9    S    
C13   C14   A    
C37   C41   A    
C23   O6    A    
C20   H5    S    
C9    H15   S    
C7    C12   S    
C4    C34   S    
Cu1   N1    S    
C3    H22   S    
C27   H19   S    
C24   C25   A    
C3    C8    A    
Cu2   O6    S    
C39   C40   A    
C2    C48   A    
C16   C29   A    
C41   Br5   S    
C1    O2    A    
C31   H10   S    
C45   H20   S    
Cu2   O4    S    
C13   H2    S    
C47   C48   A    
C44   H7    S    
C35   H11   S    
C26   H17   S    
C34   O7    A    
C32   N2    A    
C40   C41   A    
C12   O4    A    
C22   C27   A    
C48   H21   S    
C3    C4    A    
C2    H16   S    
C44   C45   A    
C9    C10   A    
C16   C25   A    
C32   Br4   S    
C12   O3    A    
C46   C47   A    
C22   C30   A    
Cu1   O7    S    
C17   C28   A    
C23   O5    A    
C24   C28   A    
C4    C5    A    
C6    C7    A    
Cu1   O3    S    
C16   Br2   S    
C32   C33   A    
C36   C38   A    
C25   C26   A    
Cu2   O8    S    
C11   C13   A    
C38   C39   A    
C43   N1    A    
C37   N2    A    
C1    C30   S    
C33   C35   A    
C31   C39   A    
C9    C15   A    
C28   H18   S    
C8    C46   S    
C5    C15   S    
C11   H1    S    
C10   C11   A    
C18   H4    S    
C14   H3    S    
C29   Br1   S    
C20   C21   A    
Cu1   Cu2   S    
C21   C24   A    
C42   N1    A    
C14   C15   A    
C21   C22   A    
