data_mof_unit_68082.cif
_audit_creation_date              2013-03-05T15:51:46-0500
_audit_creation_method            fapswitch 2.2
_symmetry_space_group_name_H-M    P1
_symmetry_Int_Tables_number       1
_space_group_crystal_system       triclinic
_cell_length_a                    7.330216
_cell_length_b                    12.121826
_cell_length_c                    28.773372
_cell_angle_alpha                 89.953064
_cell_angle_beta                  93.307074
_cell_angle_gamma                 89.942806
_cell_volume                      2552.41543377

loop_
_atom_site_label
_atom_site_type_symbol
_atom_site_description
_atom_site_fract_x
_atom_site_fract_y
_atom_site_fract_z
_atom_type_partial_charge
O1    O     O_R   0.647170 0.849180 0.201220 -0.566002
O2    O     O_R   0.352830 0.150820 0.798780 -0.564698
O3    O     O_R   0.352830 0.150820 0.701220 -0.559992
O4    O     O_R   0.647170 0.849180 0.298780 -0.571439
O5    O     O_R   0.147170 0.650820 0.298780 -0.572276
O6    O     O_R   0.852830 0.349180 0.701220 -0.566528
O7    O     O_R   0.852830 0.349180 0.798780 -0.566800
O8    O     O_R   0.147170 0.650820 0.201220 -0.574825
O9    O     O_R   0.317430 0.862210 0.298450 -0.557173
O10   O     O_R   0.682570 0.137790 0.701550 -0.567644
O11   O     O_R   0.682570 0.137790 0.798450 -0.567215
O12   O     O_R   0.317430 0.862210 0.201550 -0.560956
O13   O     O_R   0.817430 0.637790 0.201550 -0.552733
O14   O     O_R   0.182570 0.362210 0.798450 -0.565298
O15   O     O_R   0.182570 0.362210 0.701550 -0.556372
O16   O     O_R   0.817430 0.637790 0.298450 -0.553974
C1    C     C_R   0.490192 0.890141 0.312580 1.016634
C2    C     C_R   0.509751 0.110547 0.687119 1.027897
C3    C     C_R   0.518629 0.109594 0.812807 1.029618
C4    C     C_R   0.481285 0.890117 0.187135 1.017566
C5    C     C_R   0.981312 0.610434 0.186903 1.026267
C6    C     C_R   0.018436 0.390393 0.812719 1.013729
C7    C     C_R   0.009624 0.390057 0.687374 1.019748
C8    C     C_R   0.990347 0.609999 0.312732 1.035116
H1    H     H_    0.212665 0.284120 0.381898 0.192877
H2    H     H_    0.783735 0.715826 0.618957 0.192277
H3    H     H_    0.205857 0.723246 0.881610 0.199722
H4    H     H_    0.795373 0.277972 0.117366 0.195063
H5    H     H_    0.291480 0.222336 0.117523 0.191120
H6    H     H_    0.705082 0.776802 0.882675 0.190703
H7    H     H_    0.286951 0.784916 0.618600 0.197343
H8    H     H_    0.714007 0.216066 0.380675 0.198589
H9    H     H_    0.149148 0.379454 0.604857 0.193989
H10   H     H_    0.855728 0.623835 0.395762 0.191436
H11   H     H_    0.134499 0.624228 0.105619 0.195794
H12   H     H_    0.868314 0.376657 0.894278 0.194052
H13   H     H_    0.368998 0.124506 0.894410 0.192708
H14   H     H_    0.635538 0.877358 0.105993 0.195339
H15   H     H_    0.354849 0.877892 0.395505 0.192719
H16   H     H_    0.647570 0.122703 0.604388 0.194562
O17   O     O_3   0.480630 0.680630 0.250000 -0.240295
O18   O     O_3   0.519370 0.319370 0.750000 -0.226652
O19   O     O_3   0.980630 0.819370 0.250000 -0.227977
O20   O     O_3   0.019370 0.180630 0.750000 -0.235518
V1    V     V_3+5 0.205800 0.762860 0.250000 1.358747
V2    V     V_3+5 0.794200 0.237140 0.750000 1.356424
V3    V     V_3+5 0.705800 0.737140 0.250000 1.370951
V4    V     V_3+5 0.294200 0.262860 0.750000 1.372546
C9    C     C_R   0.015318 0.528656 0.351004 -0.290701
C10   C     C_R   0.984533 0.472007 0.649470 -0.279323
C11   C     C_R   0.027862 0.474085 0.850368 -0.273576
C12   C     C_R   0.971946 0.527200 0.149010 -0.313395
C13   C     C_R   0.471188 0.973558 0.149329 -0.277697
C14   C     C_R   0.528484 0.026289 0.850769 -0.287027
C15   C     C_R   0.485169 0.029023 0.649059 -0.311274
C16   C     C_R   0.514887 0.972022 0.350466 -0.278736
C17   C     C_R   0.138794 0.360456 0.385618 -0.210105
C18   C     C_R   0.859056 0.640002 0.615213 -0.215074
C19   C     C_R   0.136739 0.645358 0.885199 -0.200158
C20   C     C_R   0.865061 0.355731 0.113993 -0.215040
C21   C     C_R   0.361648 0.144628 0.114204 -0.214477
C22   C     C_R   0.636083 0.854864 0.886032 -0.216031
C23   C     C_R   0.361735 0.860830 0.614822 -0.215122
C24   C     C_R   0.639747 0.140006 0.384609 -0.200447
C25   C     C_R   0.126700 0.433583 0.348055 0.536855
C26   C     C_R   0.869891 0.565672 0.652431 0.482743
C27   C     C_R   0.131086 0.572540 0.847543 0.468617
C28   C     C_R   0.867251 0.429198 0.151375 0.491599
C29   C     C_R   0.364394 0.070910 0.151596 0.487766
C30   C     C_R   0.632010 0.927674 0.848358 0.544065
C31   C     C_R   0.372393 0.934746 0.652095 0.487318
C32   C     C_R   0.626234 0.066840 0.347082 0.468220
C33   C     C_R   0.948786 0.555563 0.394297 -0.171891
C34   C     C_R   0.054166 0.446815 0.606395 -0.201778
C35   C     C_R   0.958182 0.446427 0.893269 -0.195517
C36   C     C_R   0.044342 0.554554 0.106381 -0.196482
C37   C     C_R   0.544232 0.946645 0.106763 -0.201382
C38   C     C_R   0.458433 0.054411 0.893588 -0.172736
C39   C     C_R   0.553752 0.054912 0.605893 -0.197170
C40   C     C_R   0.448464 0.945756 0.393834 -0.195439
C41   C     C_R   0.006714 0.497350 0.435107 0.152950
C42   C     C_R   0.995025 0.504739 0.565689 0.157345
C43   C     C_R   0.010087 0.505438 0.934338 0.156977
C44   C     C_R   0.993835 0.495568 0.065192 0.163527
C45   C     C_R   0.492618 0.005401 0.065576 0.156588
C46   C     C_R   0.509355 0.995337 0.934798 0.152731
C47   C     C_R   0.495726 0.996783 0.565157 0.164057
C48   C     C_R   0.507401 0.003878 0.434489 0.157753
C49   C     C_R   0.073222 0.389568 0.428842 0.001257
C50   C     C_R   0.926926 0.612010 0.572048 0.010502
C51   C     C_R   0.071564 0.614369 0.928324 -0.001878
C52   C     C_R   0.932197 0.386584 0.071091 0.003964
C53   C     C_R   0.429975 0.114175 0.071384 0.006835
C54   C     C_R   0.570391 0.886168 0.928991 0.000788
C55   C     C_R   0.428550 0.889290 0.571588 0.007019
C56   C     C_R   0.574482 0.111339 0.427996 0.001490
C57   C     C_R   0.992236 0.539252 0.481221 -0.021838
C58   C     C_R   0.009463 0.462907 0.519609 -0.022208
C59   C     C_R   0.996311 0.462566 0.980458 -0.019110
C60   C     C_R   0.008444 0.538493 0.019088 -0.017415
C61   C     C_R   0.507183 0.962428 0.019554 -0.020116
C62   C     C_R   0.495166 0.038314 0.980858 -0.020671
C63   C     C_R   0.510512 0.038530 0.518987 -0.019208
C64   C     C_R   0.493250 0.962131 0.480672 -0.020761
C65   C     C_R   0.027189 0.347189 0.509984 0.218160
C66   C     C_R   0.974224 0.654933 0.490979 0.216327
C67   C     C_R   0.021456 0.654616 0.009541 0.213323
C68   C     C_R   0.983282 0.346454 0.989958 0.218540
C69   C     C_R   0.482207 0.154442 0.990297 0.218031
C70   C     C_R   0.520126 0.846271 0.010207 0.218707
C71   C     C_R   0.475197 0.846485 0.490501 0.217095
C72   C     C_R   0.528520 0.154182 0.509137 0.212440
C73   C     C_R   0.067668 0.312260 0.464995 0.178241
C74   C     C_R   0.932855 0.689531 0.535994 0.180890
C75   C     C_R   0.062358 0.690846 0.964686 0.180258
C76   C     C_R   0.941741 0.310167 0.034731 0.178414
C77   C     C_R   0.440209 0.190690 0.035040 0.179725
C78   C     C_R   0.560979 0.809811 0.965434 0.176557
C79   C     C_R   0.434138 0.811858 0.535535 0.179909
C80   C     C_R   0.569151 0.188802 0.464055 0.181416
I1    I     I_    0.080925 0.139445 0.447883 -0.391728
I2    I     I_    0.920001 0.861948 0.553447 -0.397660
I3    I     I_    0.074804 0.864345 0.948298 -0.329814
I4    I     I_    0.927013 0.136644 0.050849 -0.390358
I5    I     I_    0.427385 0.364047 0.051277 -0.393037
I6    I     I_    0.574173 0.636164 0.949416 -0.388712
I7    I     I_    0.419943 0.639273 0.552898 -0.393506
I8    I     I_    0.581704 0.361417 0.446518 -0.332055
S1    S     S_3+6 0.723012 0.588891 0.698414 0.077585
O21   O     O_2   0.812352 0.557924 0.744772 -0.214168
O22   O     O_2   0.666629 0.707983 0.699801 -0.240647
O23   O     O_3   0.534768 0.511233 0.688800 -0.445679
H17   H     H_    0.468707 0.544723 0.661283 0.353648
S2    S     S_3+6 0.265338 0.405199 0.301046 0.072354
O24   O     O_2   0.442570 0.466348 0.309094 -0.219290
O25   O     O_2   0.304977 0.283649 0.298934 -0.201779
O26   O     O_3   0.164674 0.445564 0.250198 -0.521213
H18   H     H_    0.244569 0.417700 0.226306 0.410512
S3    S     S_3+6 0.719586 0.399381 0.196588 0.071436
O27   O     O_2   0.667347 0.279446 0.196180 -0.215286
O28   O     O_2   0.805416 0.427508 0.243635 -0.184780
O29   O     O_3   0.529797 0.476000 0.187344 -0.498164
H19   H     H_    0.468651 0.446056 0.158484 0.343614
S4    S     S_3+6 0.266378 0.606561 0.800254 0.090174
O30   O     O_2   0.175755 0.572590 0.754473 -0.218973
O31   O     O_2   0.301646 0.728661 0.799086 -0.188082
O32   O     O_3   0.467635 0.540256 0.807483 -0.437441
H20   H     H_    0.532299 0.576698 0.834459 0.352232
S5    S     S_3+6 0.770445 0.893521 0.801815 0.074222
O33   O     O_2   0.950663 0.951663 0.809508 -0.217066
O34   O     O_2   0.804034 0.771173 0.800985 -0.209542
O35   O     O_3   0.673312 0.932317 0.750293 -0.509860
H21   H     H_    0.757866 0.906155 0.727046 0.408376
S6    S     S_3+6 0.219673 0.101132 0.197450 0.079539
O36   O     O_2   0.310431 0.073942 0.244085 -0.205011
O37   O     O_2   0.167549 0.221033 0.196846 -0.254342
O38   O     O_3   0.028293 0.025274 0.189957 -0.437867
H22   H     H_    0.961951 0.056713 0.162040 0.353153
S7    S     S_3+6 0.763146 0.094986 0.299538 0.087210
O39   O     O_2   0.673922 0.057219 0.254154 -0.226864
O40   O     O_2   0.800416 0.216614 0.296458 -0.182626
O41   O     O_3   0.963113 0.028041 0.308463 -0.445007
H23   H     H_    0.028806 0.067934 0.334372 0.353628
S8    S     S_3+6 0.224609 0.911271 0.697838 0.066085
O42   O     O_2   0.168067 0.792166 0.699163 -0.209587
O43   O     O_2   0.311896 0.942207 0.744398 -0.195081
O44   O     O_3   0.037449 0.989689 0.687567 -0.497347
H24   H     H_    0.976308 0.959144 0.658812 0.343255
I9    I     I_    0.965968 0.217228 0.558366 -0.362568
I10   I     I_    0.036744 0.785223 0.442918 -0.361635
I11   I     I_    0.952735 0.783351 0.057685 -0.365192
I12   I     I_    0.051844 0.217795 0.941768 -0.350370
I13   I     I_    0.551721 0.283002 0.942126 -0.362961
I14   I     I_    0.452720 0.717805 0.058681 -0.364375
I15   I     I_    0.536878 0.716129 0.442431 -0.348465
I16   I     I_    0.465982 0.284499 0.557145 -0.363274

loop_
_geom_bond_atom_site_label_1
_geom_bond_atom_site_label_2
_geom_bond_distance
_ccdc_geom_bond_type
C48   C56   1.408893 A    
O9    V1    1.984047 S    
C61   C62   1.442379 A    
C42   C58   1.429498 A    
O32   H20   0.990350 S    
C68   C76   1.410830 A    
C24   C32   1.397046 A    
C13   C29   1.419095 A    
C36   C44   1.415693 A    
S2    O26   1.672751 S    
C39   C47   1.412692 A    
C57   C58   1.440270 A    
C69   C77   1.411247 A    
C67   I11   2.165716 S    
C59   C68   1.437894 A    
O5    C8    1.334738 A    
O11   C3    1.337717 A    
O38   H22   0.990463 S    
C32   S7    1.775772 S    
C17   C49   1.404176 A    
C66   C74   1.411189 A    
C71   I15   2.165345 S    
C65   C73   1.409961 A    
S8    O42   1.503546 D    
C11   C35   1.403376 A    
C65   I9    2.165881 S    
C10   C34   1.401164 A    
H6    C22   1.079520 S    
S3    O29   1.680200 S    
C69   I13   2.165364 S    
C23   C55   1.405810 A    
O3    V4    2.017616 S    
C22   C30   1.396268 A    
O3    C2    1.333831 A    
C71   C79   1.410745 A    
O8    V1    1.983410 S    
C46   C54   1.409642 A    
C19   C27   1.396878 A    
C45   C53   1.409021 A    
C18   C26   1.397648 A    
S7    O39   1.498543 D    
O23   H17   0.990460 S    
C16   C32   1.416892 A    
C47   C55   1.409232 A    
O10   V2    1.984049 S    
S7    O40   1.503198 D    
O6    V2    2.016645 S    
S6    O37   1.502264 D    
C25   S2    1.771821 S    
C12   C28   1.418650 A    
S1    O23   1.680988 S    
C41   C49   1.409398 A    
C38   C46   1.416027 A    
O15   C7    1.351561 A    
C37   C45   1.414646 A    
O16   C8    1.351959 A    
C43   C59   1.433785 A    
C54   C78   1.402814 A    
C66   I10   2.165106 S    
C70   C78   1.410600 A    
C30   S5    1.775241 S    
C53   C77   1.402532 A    
O15   V4    1.981670 S    
C34   C42   1.411475 A    
S4    O32   1.681550 S    
C27   S4    1.777799 S    
O16   V3    1.981667 S    
C33   C41   1.413379 A    
C48   C64   1.430918 A    
O20   V2    1.786413 S    
C49   C73   1.401894 A    
C20   C52   1.405573 A    
H5    C21   1.079732 S    
H11   C36   1.073916 S    
H16   C39   1.074518 S    
C75   I3    2.158135 S    
C31   S8    1.775210 S    
C44   C60   1.434364 A    
O7    V2    1.983408 S    
H7    C23   1.080200 S    
H8    C24   1.080334 S    
S6    O38   1.681680 S    
S4    O31   1.503417 D    
S5    O35   1.673986 S    
H2    C18   1.080398 S    
O44   H24   0.990235 S    
O13   V3    2.048350 S    
O1    V3    1.981246 S    
C7    C10   1.478118 S    
S2    O25   1.503458 D    
O2    V4    1.981244 S    
C61   C70   1.437781 A    
O5    V1    2.016643 S    
C63   C72   1.437755 A    
C13   C37   1.403250 A    
H12   C35   1.073940 S    
C15   C39   1.401984 A    
C58   C65   1.437221 A    
C59   C60   1.442510 A    
C14   C30   1.419169 A    
C16   C40   1.401885 A    
O12   C4    1.336844 A    
O8    C5    1.353229 A    
O17   V3    1.787676 S    
S7    O41   1.681338 S    
O13   C5    1.337360 A    
O18   V4    1.787676 S    
C10   C26   1.417410 A    
C1    C16   1.478385 S    
C67   C75   1.411552 A    
S6    O36   1.499211 D    
H4    C20   1.079516 S    
C9    C25   1.417116 A    
C2    C15   1.479083 S    
C18   C50   1.405993 A    
C47   C63   1.431189 A    
C57   C66   1.437770 A    
C3    C14   1.485578 S    
O9    C1    1.351045 A    
C72   I16   2.165374 S    
C23   C31   1.396838 A    
C22   C54   1.404568 A    
C12   C36   1.403862 A    
O14   C6    1.337615 A    
C9    C33   1.402291 A    
O4    C1    1.334230 A    
C46   C62   1.433732 A    
H1    C17   1.080167 S    
C45   C61   1.433039 A    
C72   C80   1.411160 A    
S1    O21   1.498963 D    
C19   C51   1.406080 A    
C21   C29   1.397274 A    
C8    C9    1.480875 S    
O1    C4    1.353027 A    
C76   I4    2.157709 S    
O2    C3    1.353349 A    
C56   C80   1.402110 A    
S8    O44   1.680253 S    
C17   C25   1.396055 A    
C4    C13   1.483453 S    
C62   C69   1.437944 A    
C42   C50   1.408230 A    
C64   C71   1.437593 A    
O14   V4    2.048348 S    
S3    O27   1.503676 D    
C80   I8    2.155292 S    
S2    O24   1.502772 D    
O12   V1    2.047967 S    
H14   C37   1.074460 S    
C78   I6    2.158425 S    
O41   H23   0.990500 S    
O7    C6    1.352565 A    
C43   C51   1.409400 A    
O26   H18   0.987974 S    
C29   S6    1.778147 S    
C52   C76   1.402639 A    
S4    O30   1.498841 D    
C55   C79   1.401861 A    
H15   C40   1.074622 S    
C26   S1    1.775758 S    
S5    O34   1.503575 D    
O19   V1    1.786413 S    
H3    C19   1.079634 S    
S5    O33   1.503073 D    
S3    O28   1.499166 D    
C35   C43   1.415226 A    
C11   C27   1.418516 A    
C70   I14   2.166089 S    
C41   C57   1.430747 A    
O10   C2    1.351525 A    
C68   I12   2.165601 S    
O6    C7    1.333735 A    
S8    O43   1.499045 D    
C51   C75   1.402936 A    
C24   C56   1.405934 A    
C21   C53   1.405950 A    
C50   C74   1.401721 A    
H10   C33   1.074346 S    
C74   I2    2.153139 S    
H9    C34   1.075140 S    
C73   I1    2.155692 S    
O35   H21   0.989909 S    
C20   C28   1.396360 A    
C40   C48   1.412489 A    
C28   S3    1.776838 S    
C63   C64   1.440450 A    
C60   C67   1.438273 A    
O29   H19   0.990002 S    
O11   V2    2.047966 S    
C44   C52   1.409922 A    
C14   C38   1.403985 A    
H13   C38   1.073785 S    
C77   I5    2.156220 S    
C5    C12   1.484834 S    
C15   C31   1.416720 A    
C6    C11   1.483518 S    
S1    O22   1.502403 D    
O4    V3    2.017614 S    
C79   I7    2.154488 S    
