data_mof_unit_25564.cif
_audit_creation_date              2012-12-11T16:44:13-0500
_audit_creation_method            fapswitch 2.2
_symmetry_space_group_name_H-M    P1
_symmetry_Int_Tables_number       1
_space_group_crystal_system       triclinic
_cell_length_a                    27.287648
_cell_length_b                    7.194602
_cell_length_c                    22.766325
_cell_angle_alpha                 90.001385
_cell_angle_beta                  101.393509
_cell_angle_gamma                 90.000404
_cell_volume                      4381.49135742

loop_
_atom_site_label
_atom_site_type_symbol
_atom_type_description
_atom_site_fract_x
_atom_site_fract_y
_atom_site_fract_z
_atom_type_partial_charge
O1    O     O_R   0.707300 0.594030 0.176840 -0.524738
O2    O     O_R   0.292700 0.405970 0.823160 -0.534764
O3    O     O_R   0.792700 0.094030 0.323160 -0.524742
O4    O     O_R   0.207300 0.905970 0.676840 -0.534794
O5    O     O_R   0.697330 0.262360 0.295660 -0.500983
O6    O     O_R   0.302670 0.737640 0.704340 -0.502041
O7    O     O_R   0.802670 0.762360 0.204340 -0.500987
O8    O     O_R   0.197330 0.237640 0.795660 -0.502022
C1    C     C_R   0.684314 0.432206 0.311180 0.766883
C2    C     C_R   0.315532 0.567917 0.688472 0.745527
C3    C     C_R   0.815685 0.932204 0.188819 0.766887
C4    C     C_R   0.184468 0.067918 0.811527 0.745500
O9    O     O_R   0.701410 0.264250 0.175600 -0.550738
O10   O     O_R   0.298590 0.735750 0.824400 -0.537938
O11   O     O_R   0.798590 0.764250 0.324400 -0.550736
O12   O     O_R   0.201410 0.235750 0.675600 -0.537907
O13   O     O_R   0.796800 0.094950 0.202240 -0.545387
O14   O     O_R   0.203200 0.905050 0.797760 -0.540582
O15   O     O_R   0.703200 0.594950 0.297760 -0.545391
O16   O     O_R   0.296800 0.405050 0.702240 -0.540587
C5    C     C_R   0.689734 0.432902 0.153444 0.806508
C6    C     C_R   0.310484 0.566738 0.846412 0.735521
C7    C     C_R   0.810265 0.932907 0.346556 0.806507
C8    C     C_R   0.189516 0.066733 0.653587 0.735415
O17   O     O_3   0.781290 0.427390 0.258880 -0.374219
O18   O     O_3   0.218710 0.572610 0.741120 -0.370386
O19   O     O_3   0.718710 0.927390 0.241120 -0.374218
O20   O     O_3   0.281290 0.072610 0.758880 -0.370403
V1    V     V_3+5 0.744190 0.152150 0.248350 1.570883
V2    V     V_3+5 0.255810 0.847850 0.751650 1.542412
V3    V     V_3+5 0.755810 0.652150 0.251650 1.570879
V4    V     V_3+5 0.244190 0.347850 0.748350 1.542482
C9    C     C_R   0.154985 0.053831 0.594475 -0.196258
C10   C     C_R   0.844477 0.940400 0.405840 -0.136971
C11   C     C_R   0.345013 0.553859 0.905526 -0.196292
C12   C     C_R   0.655521 0.440377 0.094160 -0.136969
C13   C     C_R   0.141429 0.975902 0.488733 -0.202123
C14   C     C_R   0.859760 0.903529 0.513789 -0.187794
C15   C     C_R   0.358568 0.476078 0.011277 -0.202138
C16   C     C_R   0.640233 0.403414 0.986214 -0.187803
C17   C     C_R   0.174448 0.005621 0.543189 -0.053268
C18   C     C_R   0.826466 0.901203 0.458603 -0.082918
C19   C     C_R   0.325548 0.505756 0.956820 -0.053310
C20   C     C_R   0.673529 0.401127 0.041398 -0.082921
C21   C     C_R   0.102046 0.067918 0.589973 0.261612
C22   C     C_R   0.895441 0.985949 0.409485 0.256516
C23   C     C_R   0.397953 0.567894 0.910025 0.261590
C24   C     C_R   0.604559 0.485950 0.090514 0.256510
C25   C     C_R   0.068803 0.014124 0.535692 0.064902
C26   C     C_R   0.930445 0.968433 0.465400 -0.001142
C27   C     C_R   0.431195 0.514130 0.964309 0.064910
C28   C     C_R   0.569552 0.468402 0.034601 -0.001139
C29   C     C_R   0.089636 0.979841 0.484505 0.056744
C30   C     C_R   0.910817 0.937316 0.517670 0.080645
C31   C     C_R   0.410361 0.479946 0.015502 0.056731
C32   C     C_R   0.589177 0.437220 0.982333 0.080642
C33   C     C_R   0.015510 0.992809 0.529859 0.086575
C34   C     C_R   0.983958 0.975835 0.471632 0.040447
C35   C     C_R   0.484486 0.492770 0.970143 0.086563
C36   C     C_R   0.516039 0.475839 0.028370 0.040451
C37   C     C_R   0.007098 0.944641 0.422470 -0.195316
C38   C     C_R   0.993335 0.966287 0.580149 -0.117238
C39   C     C_R   0.492899 0.444728 0.077536 -0.195316
C40   C     C_R   0.506658 0.466170 0.919854 -0.117243
C41   C     C_R   0.058731 0.944520 0.429009 -0.161668
C42   C     C_R   0.942332 0.936346 0.573982 -0.183487
C43   C     C_R   0.441265 0.444659 0.071000 -0.161681
C44   C     C_R   0.557661 0.436204 0.926022 -0.183488
H1    H     H_    0.074691 0.914999 0.390011 0.136427
H2    H     H_    0.927431 0.910174 0.613972 0.135060
H3    H     H_    0.425305 0.415209 0.110002 0.136428
H4    H     H_    0.572559 0.409978 0.886033 0.135063
H5    H     H_    0.156261 0.945872 0.448928 0.169007
H6    H     H_    0.845696 0.878866 0.554472 0.165094
H7    H     H_    0.343737 0.446129 0.051089 0.169056
H8    H     H_    0.654294 0.378708 0.945531 0.165105
H9    H     H_    0.985988 0.905755 0.378996 0.177000
H10   H     H_    0.015084 0.950672 0.624809 0.183163
H11   H     H_    0.514007 0.405871 0.121013 0.176999
H12   H     H_    0.484907 0.450517 0.875196 0.183181
C45   C     C_R   0.858094 0.099974 0.116442 -0.325214
C46   C     C_R   0.141147 0.895641 0.882222 -0.326509
C47   C     C_R   0.641903 0.599986 0.383555 -0.325188
C48   C     C_R   0.358848 0.395636 0.617772 -0.326468
H13   H     H_    0.831884 0.212356 0.116703 0.197623
H14   H     H_    0.165556 0.779395 0.879031 0.204383
H15   H     H_    0.668117 0.712361 0.383300 0.197602
H16   H     H_    0.334439 0.279388 0.620964 0.204387
C49   C     C_R   0.894160 0.115740 0.080309 0.304787
C50   C     C_R   0.106809 0.881377 0.920675 0.316377
C51   C     C_R   0.605832 0.615760 0.419682 0.304802
C52   C     C_R   0.393183 0.381374 0.579315 0.316373
C53   C     C_R   0.928123 0.969513 0.078644 -0.009395
C54   C     C_R   0.074221 0.030132 0.925020 -0.014664
C55   C     C_R   0.571865 0.469539 0.421339 -0.009400
C56   C     C_R   0.425771 0.530131 0.574969 -0.014666
C57   C     C_R   0.925783 0.808355 0.113405 0.215226
C58   C     C_R   0.076360 0.192486 0.890802 0.214851
C59   C     C_R   0.574205 0.308383 0.386575 0.215232
C60   C     C_R   0.423634 0.692484 0.609192 0.214848
C61   C     C_R   0.890353 0.797109 0.151795 0.285764
C62   C     C_R   0.113358 0.210050 0.854705 0.274045
C63   C     C_R   0.609641 0.297125 0.348193 0.285755
C64   C     C_R   0.386639 0.710047 0.645292 0.274023
C65   C     C_R   0.855139 0.941622 0.151619 -0.127923
C66   C     C_R   0.145383 0.058411 0.849455 -0.137109
C67   C     C_R   0.644859 0.441631 0.348376 -0.127928
C68   C     C_R   0.354615 0.558408 0.650542 -0.137118
C69   C     C_R   0.967866 0.849673 0.995216 -0.104336
C70   C     C_R   0.034576 0.148921 0.008601 -0.099818
C71   C     C_R   0.532113 0.349659 0.504752 -0.104356
C72   C     C_R   0.465421 0.648955 0.491398 -0.099834
H17   H     H_    0.941940 0.734023 0.989016 0.155023
H18   H     H_    0.060378 0.264964 0.014645 0.156562
H19   H     H_    0.558031 0.233987 0.510940 0.155041
H20   H     H_    0.439627 0.765018 0.485365 0.156584
C73   C     C_R   0.002991 0.864478 0.958139 -0.106587
C74   C     C_R   0.999455 0.134096 0.045680 -0.109837
C75   C     C_R   0.496989 0.364455 0.541830 -0.106600
C76   C     C_R   0.500542 0.634139 0.454318 -0.109843
H21   H     H_    0.003518 0.759852 0.924055 0.156098
H22   H     H_    0.998764 0.239081 0.079611 0.149970
H23   H     H_    0.496455 0.259804 0.575903 0.156129
H24   H     H_    0.501239 0.739150 0.420398 0.149988
C77   C     C_R   0.036753 0.014199 0.964467 0.171695
C78   C     C_R   0.965764 0.984230 0.039418 0.176156
C79   C     C_R   0.463236 0.514201 0.535518 0.171687
C80   C     C_R   0.534224 0.484250 0.460565 0.176148
O21   O     O_3   0.908444 0.060463 0.358888 -0.658397
H25   H     H_    0.933800 0.158355 0.372088 0.295339
O22   O     O_3   0.082096 0.143126 0.636058 -0.657072
H26   H     H_    0.108691 0.190211 0.668500 0.292215
O23   O     O_3   0.591560 0.560517 0.141107 -0.658397
H27   H     H_    0.566209 0.658421 0.127902 0.295338
O24   O     O_3   0.417905 0.643016 0.863930 -0.657090
H28   H     H_    0.391313 0.690257 0.831513 0.292224
C81   C     C_2   0.772700 0.866583 0.458400 0.733593
O25   O     O_2   0.740247 0.938823 0.420572 -0.578776
O26   O     O_R   0.759135 0.755511 0.503028 -0.656085
H29   H     H_    0.721571 0.743378 0.498623 0.303373
C82   C     C_2   0.229112 0.986446 0.544137 0.755186
O27   O     O_2   0.260012 0.060324 0.583346 -0.577210
O28   O     O_R   0.245340 0.884771 0.499177 -0.659913
H30   H     H_    0.283125 0.881442 0.504578 0.298254
C83   C     C_2   0.727295 0.366498 0.041600 0.733603
O29   O     O_2   0.759749 0.438734 0.079428 -0.578787
O30   O     O_R   0.740857 0.255426 0.996969 -0.656089
H31   H     H_    0.778421 0.243291 0.001372 0.303379
C84   C     C_2   0.270882 0.486654 0.955880 0.755133
O31   O     O_2   0.239982 0.560304 0.916620 -0.577200
O32   O     O_R   0.254650 0.385307 0.000905 -0.659918
H32   H     H_    0.216866 0.382004 0.995505 0.298266
O33   O     O_3   0.895808 0.270257 0.044675 -0.640432
H33   H     H_    0.869799 0.360036 0.051117 0.306160
O34   O     O_3   0.104931 0.724190 0.955086 -0.630085
H34   H     H_    0.130695 0.634557 0.947826 0.305420
O35   O     O_3   0.604185 0.770278 0.455318 -0.640436
H35   H     H_    0.630196 0.860054 0.448881 0.306161
O36   O     O_3   0.395057 0.224188 0.544900 -0.630092
H36   H     H_    0.369295 0.134549 0.552163 0.305445
O37   O     O_3   0.958870 0.665718 0.109372 -0.640699
H37   H     H_    0.943852 0.546696 0.118595 0.311857
O38   O     O_3   0.040738 0.328266 0.891995 -0.637989
H38   H     H_    0.034522 0.395571 0.853308 0.305841
O39   O     O_3   0.541111 0.165756 0.390596 -0.640710
H39   H     H_    0.556127 0.046731 0.381371 0.311856
O40   O     O_3   0.459258 0.828263 0.608001 -0.638003
H40   H     H_    0.465474 0.895572 0.646688 0.305846
O41   O     O_3   0.890720 0.651320 0.191363 -0.630064
H41   H     H_    0.925355 0.604427 0.203515 0.295509
O42   O     O_3   0.118452 0.372178 0.823991 -0.630215
H42   H     H_    0.108343 0.478479 0.846508 0.296153
O43   O     O_3   0.609277 0.151327 0.308626 -0.630064
H43   H     H_    0.574638 0.104478 0.296456 0.295506
O44   O     O_3   0.381547 0.872177 0.676008 -0.630221
H44   H     H_    0.391653 0.978478 0.653490 0.296146

loop_
_geom_bond_atom_site_label_1
_geom_bond_atom_site_label_2
_ccdc_geom_bond_type
O17   V3    S    
C47   H15   S    
O42   H42   S    
C25   C29   A    
O1    C5    A    
O39   H39   S    
O19   V1    S    
C9    C21   A    
O41   H41   S    
C2    C68   S    
O30   H31   S    
C10   C18   A    
C63   O43   S    
C11   C23   A    
C70   C74   A    
C22   O21   S    
C58   O38   S    
C25   C33   A    
C33   C38   A    
C5    C12   S    
C39   H11   S    
O43   H43   S    
O7    C3    A    
C6    C11   S    
C81   O26   S    
C35   C40   A    
O35   H35   S    
C52   O36   S    
C40   C44   A    
O2    V4    S    
O9    V1    S    
C14   C18   A    
C84   O32   S    
C83   O29   D    
O4    C8    A    
C55   C59   A    
C54   C58   A    
O28   H30   S    
C64   C68   A    
C52   C56   A    
O13   V1    S    
C31   C43   A    
C71   C75   A    
C74   H22   S    
O3    V1    S    
C73   H21   S    
C53   C78   S    
C72   C79   A    
C28   C36   A    
O3    C7    A    
C55   C80   S    
C1    O15   A    
C60   C64   A    
C15   C31   A    
O38   H38   S    
C2    O16   A    
C16   C32   A    
C3    C65   S    
O32   H32   S    
C50   C54   A    
C10   C22   A    
C15   H7    S    
C11   C19   A    
C70   H18   S    
C16   C20   A    
C43   H3    S    
C19   C84   S    
C44   H4    S    
C45   C49   A    
C4    C66   S    
C34   C37   A    
O11   C7    A    
O15   V3    S    
C35   C36   A    
O12   C8    A    
C18   C81   S    
C49   C53   A    
C40   H12   S    
O10   V2    S    
C83   O30   S    
O16   V4    S    
O37   H37   S    
C64   O44   S    
O5    V1    S    
O1    V3    S    
C61   C65   A    
C39   C43   A    
O34   H34   S    
O7    V3    S    
C38   C42   A    
C69   C73   A    
C26   C34   A    
C24   O23   S    
O24   H28   S    
C59   C63   A    
C37   H9    S    
O40   H40   S    
C72   C76   A    
O18   V4    S    
C15   C19   A    
C32   C44   A    
O4    V2    S    
C16   H8    S    
C56   C79   S    
C76   H24   S    
O8    V4    S    
C17   C82   S    
C48   C52   A    
C49   O33   S    
O36   H36   S    
C14   C30   A    
C21   C25   A    
O8    C4    A    
C7    C10   S    
C20   C83   S    
O9    C5    A    
C26   C30   A    
C61   O41   S    
C69   H17   S    
O14   V2    S    
O6    V2    S    
C21   O22   S    
C57   O37   S    
C60   O40   S    
O23   H27   S    
C36   C39   A    
C12   C20   A    
C27   C35   A    
O22   H26   S    
C53   C57   A    
C72   H20   S    
C29   C41   A    
C63   C67   A    
O21   H25   S    
C14   H6    S    
C54   C77   S    
C62   O42   S    
C45   C65   A    
C13   H5    S    
C3    O13   A    
C23   O24   S    
C38   H10   S    
C48   H16   S    
O5    C1    A    
O6    C2    A    
C23   C27   A    
O26   H29   S    
C76   C80   A    
O11   V3    S    
C30   C42   A    
C75   H23   S    
O12   V4    S    
C47   C51   A    
C81   O25   D    
C22   C26   A    
C8    C9    S    
C46   C50   A    
C9    C17   A    
O10   C6    A    
C82   O28   S    
O33   H33   S    
C13   C29   A    
O44   H44   S    
C58   C62   A    
C84   O31   D    
C46   H14   S    
C33   C34   A    
C42   H2    S    
C41   H1    S    
C56   C60   A    
O20   V2    S    
O2    C6    A    
C48   C68   A    
C47   C67   A    
C12   C24   A    
C27   C31   A    
C46   C66   A    
C13   C17   A    
C57   C61   A    
C51   O35   S    
C70   C77   A    
C51   C55   A    
C37   C41   A    
C69   C78   A    
C24   C28   A    
C62   C66   A    
C4    O14   A    
C71   C80   A    
C1    C67   S    
C71   H19   S    
C74   C78   A    
C50   O34   S    
C82   O27   D    
C73   C77   A    
C45   H13   S    
C28   C32   A    
C59   O39   S    
C75   C79   A    
