data_mof_unit_29323.cif
_audit_creation_date              2012-10-26T18:32:01-0400
_audit_creation_method            fapswitch 2.2
_symmetry_space_group_name_H-M    P1
_symmetry_Int_Tables_number       1
_space_group_crystal_system       triclinic
_cell_length_a                    12.421834
_cell_length_b                    13.490886
_cell_length_c                    14.893834
_cell_angle_alpha                 94.53695
_cell_angle_beta                  108.938622
_cell_angle_gamma                 117.618837
_cell_volume                      2011.80507365

loop_
_atom_site_label
_atom_site_type_symbol
_atom_type_description
_atom_site_fract_x
_atom_site_fract_y
_atom_site_fract_z
_atom_type_partial_charge
C1    C     C_R   0.648582 0.712817 0.505247 0.539195
C2    C     C_R   0.134408 0.403761 0.019637 -0.029026
C3    C     C_R   0.130887 0.480029 0.089477 -0.022572
C4    C     C_R   0.617894 0.513988 0.685222 0.535479
C5    C     C_R   0.249723 0.395582 0.043737 0.080611
C6    C     C_R   0.339973 0.435005 0.141104 -0.164771
C7    C     C_R   0.234757 0.529841 0.185975 0.228683
C8    C     C_R   0.206575 0.960319 0.456646 -0.147419
C9    C     C_R   0.265001 0.162367 0.484874 -0.043733
C10   C     C_R   0.715154 0.924707 0.540323 -0.024705
C11   C     C_R   0.820219 0.039745 0.571823 -0.080494
C12   C     C_R   0.841895 0.494851 0.923935 0.019556
C13   C     C_R   0.939647 0.068205 0.565853 0.245879
C14   C     C_R   0.945622 0.984438 0.506817 0.021579
C15   C     C_R   0.842292 0.866155 0.476434 -0.007772
C16   C     C_R   0.348968 0.285959 0.489799 0.555139
C17   C     C_R   0.055638 0.014074 0.482311 0.022774
C18   C     C_R   0.080170 0.927820 0.453069 0.029191
C19   C     C_R   0.977135 0.812151 0.419518 -0.124362
C20   C     C_R   0.855243 0.783849 0.421971 -0.100989
C21   C     C_R   0.139991 0.127050 0.483216 -0.146569
C22   C     C_R   0.304179 0.078829 0.482471 0.039473
C23   C     C_R   0.807065 0.538034 0.992227 0.034349
C24   C     C_R   0.731795 0.834634 0.502847 -0.043707
C25   C     C_R   0.267512 0.710134 0.640592 -0.118400
C26   C     C_R   0.650004 0.348544 0.356870 0.179939
C27   C     C_R   0.724944 0.340700 0.309001 -0.154839
C28   C     C_R   0.387245 0.491862 0.316742 0.562198
C29   C     C_R   0.864794 0.405997 0.353091 0.260392
C30   C     C_R   0.928384 0.482395 0.450841 0.024815
C31   C     C_R   0.846236 0.503605 0.488078 0.072178
C32   C     C_R   0.069909 0.542257 0.512098 -0.029440
C33   C     C_R   0.128240 0.643705 0.589302 -0.063466
C34   C     C_R   0.934275 0.458204 0.959322 0.005027
C35   C     C_R   0.045624 0.674402 0.615120 0.053194
C36   C     C_R   0.907552 0.599783 0.569032 -0.068476
C37   C     C_R   0.153882 0.500073 0.505009 0.204590
C38   C     C_R   0.347508 0.669684 0.625678 0.415161
C39   C     C_R   0.681125 0.515081 0.789620 -0.020539
C40   C     C_R   0.321978 0.487920 0.213770 -0.036807
C41   C     C_R   0.700386 0.555970 0.958369 -0.129687
C42   C     C_R   0.634809 0.539776 0.857948 -0.164960
C43   C     C_R   0.787419 0.493364 0.823379 0.050716
C44   C     C_2   0.285549 0.354939 0.969740 0.595118
C45   C     C_R   0.021793 0.499164 0.060272 0.035140
C46   C     C_2   0.444525 0.111592 0.512457 0.633907
C47   C     C_2   0.591953 0.904661 0.549837 0.625685
C48   C     C_3   0.145620 0.178535 0.695357 0.026997
C49   C     C_3   0.280731 0.286340 0.718719 -0.305560
C50   C     C_3   0.527081 0.758858 0.778317 -0.022863
C51   C     C_3   0.602703 0.889113 0.826977 -0.356339
C52   C     C_3   0.341423 0.726819 0.241005 0.002592
C53   C     C_3   0.302150 0.814939 0.260958 -0.328810
C54   C     C_2   0.098149 0.777896 0.696124 0.585974
C55   C     C_2   0.089388 0.375897 0.456233 0.642363
C56   C     C_R   0.988440 0.547569 0.127093 -0.103500
C57   C     C_2   0.504755 0.268605 0.303436 0.623989
C58   C     C_3   0.868416 0.304074 0.217878 0.000687
C59   C     C_3   0.961223 0.281966 0.184885 -0.321782
C60   C     C_2   0.988086 0.221739 0.874844 0.580973
C61   C     C_2   0.857536 0.487793 0.760808 0.567110
C62   C     C_R   0.879046 0.561796 0.093383 -0.146370
C63   C     C_R   0.926599 0.367870 0.899104 -0.117601
C64   C     C_R   0.021144 0.335752 0.930041 0.074658
Cu1   Cu    Cu3+1 0.416420 0.526630 0.522910 1.096308
Cu2   Cu    Cu3+1 0.583580 0.473370 0.477090 1.024379
H1    H     H_    0.852883 0.594311 0.146783 0.112176
H2    H     H_    0.425874 0.425974 0.160110 0.210614
H3    H     H_    0.667531 0.582669 0.009653 0.123333
H4    H     H_    0.550178 0.551095 0.834532 0.137307
H5    H     H_    0.037751 0.566475 0.205816 0.217416
H6    H     H_    0.839123 0.314756 0.831000 0.185791
H7    H     H_    0.369227 0.267692 0.935796 0.320223
H8    H     H_    0.576420 0.083821 0.482372 0.351020
H9    H     H_    0.510307 0.952713 0.628200 0.344036
H10   H     H_    0.154423 0.100791 0.681290 0.140691
H11   H     H_    0.121731 0.179734 0.760797 0.213810
H12   H     H_    0.988483 0.744690 0.387066 0.107087
H13   H     H_    0.273678 0.365551 0.722021 0.218909
H14   H     H_    0.356128 0.296587 0.789371 0.110705
H15   H     H_    0.317521 0.278197 0.662276 0.140488
H16   H     H_    0.597912 0.728936 0.805803 0.156105
H17   H     H_    0.445812 0.712551 0.803459 0.126441
H18   H     H_    0.537462 0.925085 0.801766 0.158999
H19   H     H_    0.638349 0.905330 0.908361 0.104776
H20   H     H_    0.690331 0.934608 0.808776 0.213755
H21   H     H_    0.340872 0.721355 0.165521 0.117186
H22   H     H_    0.444567 0.759240 0.294995 0.163281
H23   H     H_    0.231017 0.894260 0.445590 0.138493
H24   H     H_    0.291763 0.817801 0.332089 0.219265
H25   H     H_    0.379245 0.902638 0.263879 0.150922
H26   H     H_    0.205579 0.790305 0.201173 0.137254
H27   H     H_    0.222027 0.873200 0.837100 0.340442
H28   H     H_    0.932711 0.214722 0.427220 0.317539
H29   H     H_    0.341759 0.119354 0.287926 0.331538
H30   H     H_    0.803123 0.317011 0.154548 0.136597
H31   H     H_    0.807893 0.223463 0.236174 0.123501
H32   H     H_    0.966958 0.207940 0.208796 0.149824
H33   H     H_    0.924242 0.260054 0.103170 0.103269
H34   H     H_    0.109170 0.188833 0.484268 0.215322
H35   H     H_    0.062288 0.358970 0.217958 0.226504
H36   H     H_    0.998198 0.077046 0.879313 0.339175
H37   H     H_    0.858119 0.393576 0.648932 0.351993
H38   H     H_    0.810832 0.108628 0.603820 0.224676
H39   H     H_    0.773189 0.696937 0.380716 0.146866
H40   H     H_    0.315954 0.794000 0.692010 0.147086
H41   H     H_    0.669929 0.282758 0.235144 0.100311
H42   H     H_    0.849635 0.618697 0.599064 0.204703
N1    N     N_R   0.290690 0.566960 0.557640 -0.257722
N2    N     N_R   0.709100 0.433710 0.442970 -0.269027
O1    O     O_R   0.545970 0.684450 0.528810 -0.413926
O2    O     O_R   0.347475 0.290337 0.990905 -0.663972
O3    O     O_2   0.532090 0.194316 0.583766 -0.453329
O4    O     O_R   0.476712 0.046661 0.460362 -0.678701
O5    O     O_2   0.482897 0.834467 0.484154 -0.493546
O6    O     O_R   0.600868 0.972138 0.631225 -0.668143
O7    O     O_3   0.046946 0.180162 0.615241 -0.534259
O8    O     O_3   0.484952 0.736831 0.674498 -0.503788
O9    O     O_3   0.253766 0.619777 0.252615 -0.544861
O10   O     O_2   0.050710 0.840026 0.683436 -0.543194
O11   O     O_R   0.196447 0.801237 0.788079 -0.678089
O12   O     O_R   0.687130 0.639470 0.490120 -0.558595
O13   O     O_2   0.115257 0.345479 0.390879 -0.500889
O14   O     O_R   0.985101 0.294284 0.476183 -0.693945
O15   O     O_2   0.446003 0.276971 0.223804 -0.522850
O16   O     O_R   0.439469 0.171341 0.333840 -0.670507
O17   O     O_3   0.939736 0.404613 0.300125 -0.551667
O18   O     O_2   0.919464 0.184723 0.786155 -0.510811
O19   O     O_R   0.028824 0.153489 0.924986 -0.692338
O20   O     O_2   0.972517 0.565399 0.783715 -0.493048
O21   O     O_R   0.796758 0.390112 0.681433 -0.625947
O22   O     O_R   0.519670 0.535100 0.660030 -0.512656
O23   O     O_R   0.660830 0.490120 0.621340 -0.473967
O24   O     O_R   0.312870 0.360530 0.509880 -0.502070
O25   O     O_R   0.454030 0.315550 0.471190 -0.435464
O26   O     O_R   0.339170 0.509880 0.378660 -0.420623
O27   O     O_R   0.480330 0.464900 0.339970 -0.522371
O28   O     O_2   0.265661 0.381878 0.892319 -0.559568

loop_
_geom_bond_atom_site_label_1
_geom_bond_atom_site_label_2
_ccdc_geom_bond_type
C54   O10   D    
C36   H42   S    
C59   H33   S    
C41   C42   A    
C48   H10   S    
C35   C36   A    
H36   O19   S    
C16   O24   A    
C51   H19   S    
C4    O22   A    
C47   O5    D    
C12   C23   A    
C50   H16   S    
C26   C27   A    
C62   H1    S    
C9    C16   S    
H27   O11   S    
C12   C43   A    
C3    C7    A    
C31   C36   A    
C57   O15   D    
C30   C31   A    
C9    C22   A    
C27   C29   A    
C28   C40   S    
H8    O4    S    
C42   H4    S    
C18   C19   A    
C49   H15   S    
C58   H30   S    
C1    O12   A    
Cu1   O1    S    
C23   C62   A    
C19   C20   A    
C45   C56   A    
C53   H25   S    
C8    C22   A    
C7    C40   A    
Cu2   O12   S    
C11   H38   S    
C26   N2    A    
C37   N1    A    
Cu1   O24   S    
C6    H2    S    
C58   O17   S    
C50   O8    S    
C13   C14   A    
C35   C54   S    
C14   C17   A    
C47   O6    S    
C58   H31   S    
C51   H20   S    
C26   C57   S    
C2    C64   A    
C50   H17   S    
C50   C51   S    
C39   C42   A    
C15   C20   A    
C55   O13   D    
C46   O4    S    
C59   H35   S    
C7    O9    S    
C60   O18   D    
C57   O16   S    
C21   H34   S    
C39   C43   A    
C10   C24   A    
C58   C59   S    
C3    C45   A    
C8    C18   A    
Cu2   O25   S    
C38   O8    S    
C48   H11   S    
C19   H12   S    
C29   C30   A    
C25   C38   A    
Cu2   O23   S    
C4    C39   S    
C27   H41   S    
C56   H5    S    
C53   H26   S    
C17   C18   A    
C34   C45   A    
C32   C37   A    
Cu2   N2    S    
C38   N1    A    
Cu1   N1    S    
C61   O20   D    
C44   O2    S    
C48   C49   S    
C22   C46   S    
C5    C44   S    
C29   O17   S    
C6    C40   A    
C2    C5    A    
C12   C34   A    
C53   H24   S    
Cu1   O22   S    
C52   C53   S    
C43   C61   S    
H7    O2    S    
C41   H3    S    
C20   H39   S    
C55   O14   S    
C15   C24   A    
C44   O28   D    
C25   H40   S    
C46   O3    D    
C28   O26   A    
C54   O11   S    
C52   H21   S    
C28   O27   A    
C60   O19   S    
C13   O7    S    
C48   O7    S    
C8    H23   S    
C23   C41   A    
C49   H14   S    
C60   C64   S    
C32   C33   A    
C2    C3    A    
C1    O1    A    
C30   C32   A    
C11   C13   A    
H29   O16   S    
C9    C21   A    
C5    C6    A    
Cu2   O27   S    
C34   C63   A    
C33   C35   A    
C31   N2    A    
C56   C62   A    
C52   H22   S    
C17   C21   A    
Cu1   O26   S    
C10   C11   A    
C61   O21   S    
C63   C64   A    
C37   C55   S    
C52   O9    S    
C49   H13   S    
C63   H6    S    
C1    C24   S    
Cu1   Cu2   S    
C10   C47   S    
C59   H32   S    
C14   C15   A    
H9    O6    S    
C16   O25   A    
H37   O21   S    
C51   H18   S    
C25   C33   A    
C4    O23   A    
H28   O14   S    
