data_mof_unit_38565.cif
_audit_creation_date              2012-10-26T20:16:52-0400
_audit_creation_method            fapswitch 2.2
_symmetry_space_group_name_H-M    P1
_symmetry_Int_Tables_number       1
_space_group_crystal_system       triclinic
_cell_length_a                    10.932772
_cell_length_b                    10.975195
_cell_length_c                    10.527907
_cell_angle_alpha                 91.219141
_cell_angle_beta                  91.28166
_cell_angle_gamma                 90.542544
_cell_volume                      1262.57181855

loop_
_atom_site_label
_atom_site_type_symbol
_atom_type_description
_atom_site_fract_x
_atom_site_fract_y
_atom_site_fract_z
_atom_type_partial_charge
C1    C     C_R   0.496050 0.261646 0.498015 0.559650
C2    C     C_R   0.698992 0.920701 0.708405 -0.055507
C3    C     C_R   0.558251 0.117561 0.263850 0.067802
C4    C     C_R   0.571372 0.914534 0.722221 0.037805
C5    C     C_R   0.683370 0.130683 0.241895 -0.087693
C6    C     C_R   0.522866 0.914209 0.843808 -0.058175
C7    C     C_R   0.722245 0.173143 0.125662 -0.182764
C8    C     C_R   0.600998 0.919506 0.949889 -0.168119
C9    C     C_R   0.636412 0.201513 0.030690 -0.060968
C10   C     C_R   0.727092 0.931214 0.936248 -0.116115
C11   C     C_R   0.508709 0.933273 0.381216 0.225542
C12   C     C_R   0.503634 0.738552 0.500550 0.550087
C13   C     C_R   0.460957 0.064242 0.602101 0.236377
C14   C     C_R   0.502680 0.872600 0.498185 -0.057994
C15   C     C_R   0.490588 0.127782 0.492654 -0.057124
C16   C     C_R   0.261531 0.499742 0.498331 0.531928
C17   C     C_R   0.738274 0.496715 0.501789 0.538423
C18   C     C_R   0.493634 0.942164 0.610915 -0.067222
C19   C     C_R   0.517654 0.060371 0.381169 -0.063962
C20   C     C_1   0.500279 0.500841 0.072261 0.105159
C21   C     C_1   0.500258 0.500765 0.927785 0.132571
C22   C     C_R   0.162136 0.682349 0.111342 -0.118365
C23   C     C_R   0.871763 0.489251 0.505083 -0.012881
C24   C     C_R   0.821741 0.453585 0.947764 -0.089960
C25   C     C_R   0.137566 0.645035 0.234247 -0.101852
C26   C     C_R   0.852288 0.428302 0.821803 -0.133698
C27   C     C_R   0.104024 0.524003 0.256576 0.072270
C28   C     C_R   0.892389 0.522606 0.745187 0.044675
C29   C     C_R   0.092517 0.441218 0.153886 -0.141282
C30   C     C_R   0.902908 0.641165 0.796200 -0.077406
C31   C     C_R   0.117440 0.478591 0.031063 -0.083243
C32   C     C_R   0.873745 0.665454 0.922545 -0.075122
C33   C     C_R   0.156219 0.597865 0.008077 0.312533
C34   C     C_R   0.127697 0.495055 0.495878 -0.018204
C35   C     C_R   0.828727 0.571962 0.999031 0.292826
C36   C     C_R   0.930528 0.479423 0.388983 -0.149507
C37   C     C_R   0.069145 0.491236 0.612483 -0.151790
C38   C     C_3   0.253415 0.728818 0.868776 -0.122217
C39   C     C_3   0.757083 0.702203 0.157979 -0.091384
C40   C     C_3   0.404595 0.844567 0.214349 -0.114217
C41   C     C_3   0.279661 0.108508 0.685914 -0.088415
C42   C     C_3   0.315689 0.256301 0.990649 -0.118691
C43   C     C_3   0.961633 0.025534 0.882178 -0.147723
C44   C     C_R   0.942626 0.496343 0.618880 -0.029103
C45   C     C_R   0.056544 0.492813 0.382085 -0.026238
C46   C     C_R   0.510947 0.193511 0.052425 0.300953
C47   C     C_R   0.777687 0.934644 0.814248 0.283760
C48   C     C_R   0.472181 0.150196 0.170591 -0.063559
Cu1   Cu    Cu3+1 0.500000 0.500000 0.625300 1.021612
Cu2   Cu    Cu3+1 0.500000 0.500000 0.374700 0.987272
H1    H     H_    0.750471 0.105075 0.313484 0.105967
H2    H     H_    0.940525 0.713277 0.739869 0.169766
H3    H     H_    0.877453 0.470148 0.301738 0.203845
H4    H     H_    0.122143 0.490605 0.700342 0.193939
H5    H     H_    0.667168 0.228139 0.938208 0.135979
H6    H     H_    0.783984 0.938547 0.021259 0.095595
H7    H     H_    0.337409 0.721791 0.929620 0.095440
H8    H     H_    0.204211 0.815166 0.887935 0.109281
H9    H     H_    0.283011 0.730756 0.768722 0.165043
H10   H     H_    0.681456 0.726620 0.091420 0.134855
H11   H     H_    0.830883 0.772374 0.162975 0.094783
H12   H     H_    0.425070 0.916762 0.856417 0.117946
H13   H     H_    0.718090 0.698823 0.254074 0.203767
H14   H     H_    0.369415 0.924419 0.162944 0.086375
H15   H     H_    0.336847 0.816127 0.285668 0.122259
H16   H     H_    0.412734 0.768456 0.144293 0.136118
H17   H     H_    0.251437 0.010875 0.689578 0.093838
H18   H     H_    0.247234 0.148890 0.595101 0.098502
H19   H     H_    0.232714 0.157361 0.763117 0.129496
H20   H     H_    0.102493 0.415228 0.952098 0.095390
H21   H     H_    0.893917 0.754902 0.961815 0.123211
H22   H     H_    0.257294 0.175013 0.007171 0.083604
H23   H     H_    0.819088 0.180351 0.107741 0.086837
H24   H     H_    0.319452 0.318025 0.075882 0.116552
H25   H     H_    0.273371 0.308159 0.912506 0.147681
H26   H     H_    0.908802 0.110360 0.899333 0.106275
H27   H     H_    0.981238 0.977821 0.972254 0.101671
H28   H     H_    0.050990 0.053192 0.843808 0.120191
H29   H     H_    0.376153 0.138065 0.190104 0.071669
H30   H     H_    0.737019 0.925300 0.614386 0.110361
H31   H     H_    0.563738 0.921480 0.043317 0.167255
H32   H     H_    0.181248 0.777797 0.097551 0.064665
H33   H     H_    0.797410 0.380529 0.008730 0.116461
H34   H     H_    0.139034 0.711870 0.311494 0.093521
H35   H     H_    0.849033 0.335152 0.785677 0.107875
H36   H     H_    0.059869 0.349141 0.168217 0.086988
N1    N     N_1   0.500010 0.499990 0.186410 -0.194964
N2    N     N_1   0.499990 0.500010 0.813590 -0.176451
O1    O     O_R   0.499990 0.319650 0.605810 -0.431113
O2    O     O_3   0.804651 0.586784 0.127444 -0.594755
O3    O     O_3   0.521945 0.869002 0.268164 -0.578113
O4    O     O_3   0.407490 0.122465 0.703733 -0.489661
O5    O     O_3   0.432538 0.220531 0.951495 -0.520330
O6    O     O_3   0.902338 0.946414 0.792534 -0.592882
O7    O     O_R   0.500010 0.680350 0.394190 -0.464794
O8    O     O_R   0.499990 0.319640 0.394190 -0.515008
O9    O     O_R   0.500010 0.680360 0.605810 -0.516854
O10   O     O_R   0.319640 0.500010 0.605810 -0.499487
O11   O     O_R   0.680360 0.499990 0.394190 -0.495426
O12   O     O_R   0.319650 0.500010 0.394190 -0.505492
O13   O     O_R   0.680350 0.499990 0.605810 -0.497108
O14   O     O_3   0.174835 0.627705 0.882068 -0.591304

loop_
_geom_bond_atom_site_label_1
_geom_bond_atom_site_label_2
_ccdc_geom_bond_type
C27   C29   A    
C34   C37   A    
C14   C18   A    
Cu2   O8    S    
C41   H17   S    
C43   H28   S    
C15   C19   A    
C11   C19   A    
Cu2   O11   S    
C17   C23   S    
C13   C18   A    
C22   H32   S    
C48   H29   S    
C24   H33   S    
C24   C26   A    
C1    O8    A    
Cu1   O13   S    
C11   C14   A    
Cu2   O7    S    
C42   O5    S    
C20   N1    T    
C3    C48   A    
C43   O6    S    
C17   O13   A    
C36   H3    S    
C16   C34   S    
Cu1   O10   S    
C38   H8    S    
C31   H20   S    
C22   C25   A    
C25   H34   S    
C31   C33   A    
C12   O7    A    
C3    C19   S    
C9    H5    S    
C41   H18   S    
C10   H6    S    
C39   O2    S    
C38   O14   S    
C4    C18   S    
C27   C45   S    
C21   N2    T    
C9    C46   A    
C40   H16   S    
Cu1   N2    S    
C32   H21   S    
C39   H11   S    
C46   C48   A    
C42   H24   S    
C24   C35   A    
C33   O14   S    
C32   C35   A    
C7    H23   S    
C5    C7    A    
C16   O12   A    
C6    C8    A    
C28   C44   S    
C23   C44   A    
C8    H31   S    
C2    C4    A    
C38   H7    S    
C42   H22   S    
C42   H25   S    
C36   C45   A    
C34   C45   A    
C17   O11   A    
C12   O9    A    
Cu2   N1    S    
C1    C15   S    
C37   H4    S    
C4    C6    A    
C12   C14   S    
C23   C36   A    
C40   H15   S    
C13   C15   A    
C13   O4    S    
C43   H27   S    
C41   H19   S    
C43   H26   S    
C7    C9    A    
C22   C33   A    
C30   H2    S    
C1    O1    A    
Cu2   O12   S    
Cu1   O1    S    
C3    C5    A    
C2    C47   A    
C25   C27   A    
C39   H13   S    
C26   C28   A    
C40   H14   S    
C6    H12   S    
C37   C44   A    
C29   H36   S    
C29   C31   A    
C30   C32   A    
C16   O10   A    
C46   O5    S    
C26   H35   S    
C39   H10   S    
C28   C30   A    
C47   O6    S    
C40   O3    S    
C2    H30   S    
Cu1   O9    S    
C38   H9    S    
C35   O2    S    
C11   O3    S    
C41   O4    S    
C20   C21   S    
C8    C10   A    
Cu1   Cu2   S    
C10   C47   A    
C5    H1    S    
