data_mof_unit_62786.cif
_audit_creation_date              2012-12-10T18:43:05-0500
_audit_creation_method            fapswitch 2.2
_symmetry_space_group_name_H-M    P1
_symmetry_Int_Tables_number       1
_space_group_crystal_system       triclinic
_cell_length_a                    18.096718
_cell_length_b                    18.040775
_cell_length_c                    18.0719
_cell_angle_alpha                 120.053903
_cell_angle_beta                  89.963299
_cell_angle_gamma                 60.206448
_cell_volume                      4180.24597128

loop_
_atom_site_label
_atom_site_type_symbol
_atom_type_description
_atom_site_fract_x
_atom_site_fract_y
_atom_site_fract_z
_atom_type_partial_charge
C1    C     C_R   0.893321 0.217048 0.608486 0.490486
C2    C     C_3   0.552943 0.896265 0.946845 0.006591
C3    C     C_3   0.626846 0.997643 0.158889 -0.318018
C4    C     C_3   0.304198 0.988954 0.020559 -0.298355
C5    C     C_3   0.697736 0.008883 0.979962 -0.305089
C6    C     C_3   0.169617 0.444373 0.533526 -0.253915
C7    C     C_3   0.175227 0.434154 0.612579 -0.439608
C8    C     C_3   0.830360 0.555651 0.466487 -0.253895
C9    C     C_3   0.824744 0.565869 0.387433 -0.439614
C10   C     C_3   0.082427 0.298549 0.469566 -0.253430
C11   C     C_3   0.178479 0.213816 0.402226 -0.457147
C12   C     C_3   0.917542 0.701479 0.530449 -0.253475
C13   C     C_3   0.414455 0.031573 0.025750 0.150566
C14   C     C_3   0.821491 0.786208 0.597796 -0.457283
C15   C     C_3   0.003820 0.289047 0.296705 -0.322808
C16   C     C_3   0.996153 0.710975 0.703316 -0.322758
C17   C     C_3   0.585743 0.968293 0.973961 0.133211
C18   C     C_3   0.042736 0.404152 0.483662 0.008977
C19   C     C_3   0.957243 0.595870 0.516345 0.008959
C20   C     C_3   0.078388 0.473968 0.518286 0.018312
C21   C     C_3   0.921592 0.526054 0.481722 0.018333
C22   C     C_3   0.052275 0.498128 0.447569 0.014574
C23   C     C_3   0.947706 0.501892 0.552437 0.014519
C24   C     C_3   0.016479 0.429024 0.413928 0.151199
C25   C     C_R   0.106678 0.782951 0.391513 0.490308
C26   C     C_3   0.983501 0.570998 0.586080 0.151108
C27   C     C_3   0.006210 0.032551 0.449982 0.150416
C28   C     C_3   0.993785 0.967448 0.550016 0.150429
C29   C     C_R   0.609007 0.782668 0.890362 0.503068
C30   C     C_R   0.391006 0.217302 0.109525 0.507799
C31   C     C_3   0.968516 0.966957 0.430645 0.018100
C32   C     C_3   0.031480 0.033042 0.569352 0.018091
C33   C     C_3   0.049308 0.897185 0.448592 0.014226
C34   C     C_3   0.950688 0.102814 0.551405 0.014209
C35   C     C_3   0.086937 0.963210 0.467287 0.008958
C36   C     C_3   0.512224 0.407504 0.452768 0.141250
C37   C     C_3   0.913058 0.036790 0.532710 0.008953
C38   C     C_3   0.925994 0.514648 0.040710 0.007390
C39   C     C_3   0.073972 0.485388 0.959311 0.007417
C40   C     C_3   0.955091 0.590298 0.082143 0.131090
C41   C     C_3   0.044877 0.409736 0.917881 0.131441
C42   C     C_3   0.053654 0.497073 0.049519 0.008337
C43   C     C_3   0.946316 0.502958 0.950503 0.008404
C44   C     C_3   0.024851 0.421042 0.006832 0.150576
C45   C     C_3   0.975114 0.578994 0.993191 0.150548
C46   C     C_3   0.580701 0.408307 0.956977 0.147410
C47   C     C_3   0.487790 0.592413 0.547207 0.141312
C48   C     C_3   0.419283 0.591789 0.043091 0.147609
C49   C     C_3   0.491239 0.420210 0.947896 -0.008421
C50   C     C_3   0.508748 0.579891 0.052164 -0.007623
C51   C     C_3   0.447828 0.501398 0.052417 0.012038
C52   C     C_3   0.552162 0.498685 0.947642 0.012355
C53   C     C_R   0.608774 0.498628 0.890208 0.492666
C54   C     C_R   0.391225 0.501394 0.109810 0.492906
C55   C     C_3   0.537857 0.488640 0.060232 0.144315
C56   C     C_3   0.462126 0.511458 0.939835 0.144145
C57   C     C_R   0.890839 0.500970 0.608795 0.493738
C58   C     C_3   0.474550 0.965843 0.927150 0.142865
C59   C     C_R   0.109152 0.499038 0.391207 0.493530
C60   C     C_R   0.890276 0.501392 0.892643 0.498357
C61   C     C_R   0.109711 0.498619 0.107366 0.499920
C62   C     C_R   0.608916 0.499850 0.608144 0.494560
C63   C     C_R   0.391085 0.500131 0.391853 0.495292
C64   C     C_3   0.587082 0.423550 0.444590 0.016130
C65   C     C_3   0.412933 0.576376 0.555389 0.016081
C66   C     C_3   0.521557 0.519114 0.442759 0.021554
C67   C     C_3   0.478456 0.480812 0.557224 0.021619
C68   C     C_3   0.447006 0.501714 0.450168 0.015091
C69   C     C_3   0.525696 0.033948 0.072700 0.123146
C70   C     C_3   0.553006 0.498220 0.549817 0.015248
C71   C     C_3   0.539010 0.541826 0.375747 -0.250738
C72   C     C_3   0.610152 0.565052 0.385783 -0.444626
C73   C     C_3   0.460982 0.458163 0.624278 -0.250847
C74   C     C_3   0.389864 0.434900 0.614231 -0.444696
C75   C     C_3   0.937660 0.922352 0.349847 -0.244440
C76   C     C_3   0.861437 0.007361 0.343782 -0.443217
C77   C     C_3   0.062342 0.077645 0.650144 -0.244497
C78   C     C_3   0.138562 0.992635 0.656209 -0.443132
C79   C     C_3   0.069023 0.001817 0.307902 -0.326422
C80   C     C_3   0.507903 0.036415 0.953556 0.117497
C81   C     C_3   0.930989 0.998165 0.692093 -0.326468
C82   C     C_3   0.187160 0.911051 0.423282 -0.256127
C83   C     C_3   0.211218 0.989614 0.453996 -0.454865
C84   C     C_3   0.812834 0.088951 0.576710 -0.256143
C85   C     C_3   0.788776 0.010388 0.546001 -0.454895
C86   C     C_3   0.818455 0.766556 0.197504 -0.331162
C87   C     C_3   0.181522 0.233491 0.802536 -0.329755
C88   C     C_3   0.839904 0.533521 0.083722 -0.257015
C89   C     C_3   0.841859 0.533401 0.168159 -0.436780
C90   C     C_3   0.160051 0.466535 0.916303 -0.257134
C91   C     C_3   0.492239 0.963430 0.046237 0.117811
C92   C     C_3   0.158102 0.466620 0.831848 -0.437143
C93   C     C_3   0.028426 0.266351 0.965207 -0.303884
C94   C     C_3   0.971536 0.733676 0.034771 -0.303988
C95   C     C_3   0.476330 0.333463 0.895922 -0.255393
C96   C     C_3   0.526165 0.263141 0.794077 -0.450938
C97   C     C_3   0.523689 0.666631 0.104091 -0.259486
C98   C     C_3   0.473900 0.736950 0.205945 -0.452578
C99   C     C_3   0.687941 0.235204 0.926710 -0.315724
C100  C     C_3   0.311973 0.764889 0.073387 -0.313255
C101  C     C_3   0.661047 0.461362 0.124977 -0.316428
C102  C     C_3   0.447116 0.103659 0.052931 0.006754
C103  C     C_3   0.338929 0.538742 0.875096 -0.316547
C104  C     C_3   0.687095 0.336764 0.386715 -0.244314
C105  C     C_3   0.702511 0.276967 0.285015 -0.451565
C106  C     C_3   0.312931 0.663209 0.613287 -0.244441
C107  C     C_3   0.297544 0.722951 0.714982 -0.451093
C108  C     C_3   0.588795 0.223582 0.400896 -0.327698
C109  C     C_3   0.411082 0.776334 0.599058 -0.327469
C110  C     C_3   0.574082 0.008987 0.815432 -0.327054
C111  C     C_3   0.427193 0.988980 0.183714 -0.324835
C112  C     C_3   0.375118 0.003245 0.840259 -0.305140
H1    H     H_    0.589696 0.633391 0.455257 0.185187
H2    H     H_    0.439085 0.526164 0.694470 0.163003
H3    H     H_    0.273715 0.628834 0.598347 0.157820
H4    H     H_    0.514788 0.288565 0.336497 0.263791
H5    H     H_    0.569002 0.169541 0.385453 0.134283
H6    H     H_    0.598481 0.250450 0.467801 0.147632
H7    H     H_    0.653751 0.179587 0.348379 0.133108
H8    H     H_    0.485328 0.711363 0.663381 0.262819
H9    H     H_    0.431197 0.829920 0.613634 0.134287
H10   H     H_    0.346370 0.820824 0.652164 0.133740
H11   H     H_    0.400756 0.749384 0.532426 0.147431
H12   H     H_    0.515148 0.144770 0.946289 0.254032
H13   H     H_    0.800334 0.061613 0.404239 0.142609
H14   H     H_    0.558898 0.050559 0.782583 0.131997
H15   H     H_    0.567520 0.943238 0.775025 0.151375
H16   H     H_    0.644672 0.977440 0.814893 0.131976
H17   H     H_    0.550529 0.858918 0.082236 0.240490
H18   H     H_    0.426132 0.943823 0.208069 0.128469
H19   H     H_    0.357479 0.041042 0.188407 0.148135
H20   H     H_    0.449633 0.037230 0.228768 0.137145
H21   H     H_    0.501919 0.864277 0.788557 0.237266
H22   H     H_    0.350777 0.965374 0.786954 0.117621
H23   H     H_    0.398356 0.039821 0.821349 0.158052
H24   H     H_    0.882511 0.052625 0.337394 0.186682
H25   H     H_    0.317541 0.064999 0.904828 0.186073
H26   H     H_    0.497259 0.133470 0.211819 0.241586
H27   H     H_    0.651753 0.036499 0.210733 0.125501
H28   H     H_    0.683376 0.936201 0.093535 0.185067
H29   H     H_    0.606223 0.960263 0.179265 0.127755
H30   H     H_    0.287317 0.126823 0.122663 0.251885
H31   H     H_    0.230322 0.026607 0.042256 0.114764
H32   H     H_    0.335843 0.941629 0.047684 0.164821
H33   H     H_    0.330925 0.936587 0.945471 0.192205
H34   H     H_    0.710330 0.875670 0.874587 0.254466
H35   H     H_    0.843688 0.970548 0.283008 0.114348
H36   H     H_    0.771769 0.969907 0.956944 0.120178
H37   H     H_    0.672787 0.058261 0.055047 0.191884
H38   H     H_    0.665710 0.059581 0.956055 0.136748
H39   H     H_    0.124332 0.510088 0.677092 0.186397
H40   H     H_    0.164466 0.374590 0.601551 0.148338
H41   H     H_    0.243148 0.409497 0.618914 0.119413
H42   H     H_    0.224527 0.369537 0.470690 0.129866
H43   H     H_    0.181235 0.504033 0.546595 0.148315
H44   H     H_    0.835531 0.625409 0.398444 0.148296
H45   H     H_    0.875619 0.489926 0.322916 0.186335
H46   H     H_    0.995381 0.866293 0.285884 0.164225
H47   H     H_    0.756812 0.590558 0.381121 0.119366
H48   H     H_    0.818742 0.495991 0.453421 0.148290
H49   H     H_    0.775453 0.630488 0.529324 0.129620
H50   H     H_    0.184942 0.212599 0.340565 0.148609
H51   H     H_    0.227341 0.226141 0.433856 0.143773
H52   H     H_    0.196399 0.136161 0.381656 0.122748
H53   H     H_    0.081720 0.308920 0.535551 0.129282
H54   H     H_    0.038295 0.272110 0.444879 0.153879
H55   H     H_    0.772622 0.773907 0.566161 0.143779
H56   H     H_    0.815022 0.787400 0.659444 0.149087
H57   H     H_    0.915414 0.877568 0.355449 0.137302
H58   H     H_    0.803578 0.863870 0.618395 0.122519
H59   H     H_    0.961674 0.727918 0.555131 0.153846
H60   H     H_    0.918242 0.691114 0.464467 0.129216
H61   H     H_    0.103473 0.309809 0.279726 0.267108
H62   H     H_    0.995263 0.264071 0.229279 0.138075
H63   H     H_    0.937931 0.332071 0.347085 0.157268
H64   H     H_    0.053040 0.217786 0.293218 0.128372
H65   H     H_    0.896496 0.690214 0.720278 0.267792
H66   H     H_    0.004661 0.735993 0.770764 0.138056
H67   H     H_    0.946957 0.782212 0.706759 0.128243
H68   H     H_    0.117484 0.947379 0.662604 0.186708
H69   H     H_    0.062068 0.667933 0.652967 0.157243
H70   H     H_    0.199664 0.938377 0.595748 0.142589
H71   H     H_    0.156317 0.029446 0.716979 0.114645
H72   H     H_    0.084594 0.122421 0.644533 0.137358
H73   H     H_    0.676316 0.496488 0.370613 0.143996
H74   H     H_    0.004624 0.133712 0.714110 0.164290
H75   H     H_    0.012985 0.138246 0.437059 0.256310
H76   H     H_    0.043880 0.038001 0.270657 0.131577
H77   H     H_    0.072634 0.928651 0.273117 0.159498
H78   H     H_    0.137853 0.982741 0.305369 0.129465
H79   H     H_    0.986995 0.861757 0.562930 0.256277
H80   H     H_    0.956098 0.961935 0.729307 0.131495
H81   H     H_    0.862135 0.017321 0.694637 0.129401
H82   H     H_    0.927449 0.071288 0.726902 0.159527
H83   H     H_    0.161159 0.056882 0.452764 0.152261
H84   H     H_    0.618118 0.583338 0.337338 0.117690
H85   H     H_    0.214792 0.018883 0.523403 0.142035
H86   H     H_    0.278598 0.950476 0.407913 0.124007
H87   H     H_    0.229402 0.854389 0.439247 0.131802
H88   H     H_    0.203849 0.865551 0.348547 0.142384
H89   H     H_    0.785229 0.981091 0.476582 0.141978
H90   H     H_    0.838818 0.943139 0.547262 0.152261
H91   H     H_    0.721382 0.049537 0.592067 0.124010
H92   H     H_    0.796138 0.134460 0.651446 0.142387
H93   H     H_    0.770596 0.145605 0.560736 0.131782
H94   H     H_    0.928083 0.675909 0.222633 0.242577
H95   H     H_    0.560867 0.473869 0.305542 0.162899
H96   H     H_    0.802294 0.843721 0.253437 0.132773
H97   H     H_    0.774992 0.751304 0.222083 0.130515
H98   H     H_    0.802827 0.770523 0.139761 0.146144
H99   H     H_    0.071883 0.324097 0.777388 0.242746
H100  H     H_    0.197699 0.156313 0.746612 0.132280
H101  H     H_    0.197151 0.229546 0.860289 0.148822
H102  H     H_    0.224970 0.248754 0.777950 0.131805
H103  H     H_    0.896238 0.455042 0.150208 0.184681
H104  H     H_    0.852965 0.591818 0.218487 0.156526
H105  H     H_    0.776431 0.553384 0.200049 0.111630
H106  H     H_    0.475137 0.609311 0.385898 0.120058
H107  H     H_    0.780552 0.609535 0.101632 0.124052
H108  H     H_    0.831194 0.472485 0.033785 0.152885
H109  H     H_    0.147050 0.408152 0.781511 0.156554
H110  H     H_    0.103692 0.544952 0.849768 0.184797
H111  H     H_    0.223515 0.446688 0.799982 0.111868
H112  H     H_    0.168734 0.527598 0.966238 0.152830
H113  H     H_    0.219414 0.390538 0.898412 0.127403
H114  H     H_    0.123330 0.294827 0.007601 0.263797
H115  H     H_    0.047443 0.211996 0.985268 0.124809
H116  H     H_    0.062788 0.219245 0.891308 0.168562
H117  H     H_    0.323714 0.503414 0.629301 0.144078
H118  H     H_    0.954507 0.310957 0.980001 0.155944
H119  H     H_    0.876591 0.705231 0.992481 0.262739
H120  H     H_    0.952228 0.788263 0.014929 0.124344
H121  H     H_    0.045494 0.689074 0.019697 0.155852
H122  H     H_    0.937444 0.780539 0.108693 0.168732
H123  H     H_    0.503778 0.308972 0.764978 0.147910
H124  H     H_    0.600089 0.222352 0.779366 0.145147
H125  H     H_    0.511726 0.203152 0.760078 0.124430
H126  H     H_    0.499328 0.285188 0.922790 0.144230
H127  H     H_    0.402946 0.369591 0.908275 0.136702
H128  H     H_    0.410379 0.366491 0.544780 0.185169
H129  H     H_    0.399958 0.777940 0.220695 0.145398
H130  H     H_    0.496149 0.691081 0.235007 0.148864
H131  H     H_    0.488536 0.796766 0.239947 0.122520
H132  H     H_    0.597081 0.630462 0.091714 0.133511
H133  H     H_    0.500715 0.714931 0.077224 0.156580
H134  H     H_    0.693806 0.278966 0.841150 0.250480
H135  H     H_    0.761913 0.176055 0.901879 0.123164
H136  H     H_    0.656648 0.194205 0.890479 0.125580
H137  H     H_    0.661938 0.272596 0.000276 0.194793
H138  H     H_    0.306235 0.721113 0.158963 0.250289
H139  H     H_    0.381842 0.416712 0.662738 0.117735
H140  H     H_    0.237999 0.824076 0.098320 0.121994
H141  H     H_    0.337865 0.727517 0.999811 0.196530
H142  H     H_    0.343332 0.805836 0.109524 0.131932
H143  H     H_    0.529011 0.525241 0.190891 0.243714
H144  H     H_    0.692046 0.427424 0.162709 0.129504
H145  H     H_    0.651113 0.538034 0.158209 0.127441
H146  H     H_    0.708411 0.407823 0.054610 0.190715
H147  H     H_    0.470969 0.474840 0.809170 0.243583
H148  H     H_    0.307919 0.572710 0.837386 0.129620
H149  H     H_    0.291577 0.592261 0.945466 0.190608
H150  H     H_    0.524855 0.390729 0.614192 0.119885
H151  H     H_    0.348857 0.462072 0.841844 0.127302
H152  H     H_    0.653138 0.257011 0.268655 0.172308
H153  H     H_    0.697608 0.323531 0.259910 0.143931
H154  H     H_    0.771498 0.203241 0.248483 0.122752
H155  H     H_    0.726265 0.371195 0.401649 0.157837
H156  H     H_    0.713659 0.281167 0.406075 0.155008
H157  H     H_    0.302306 0.676426 0.740080 0.143848
H158  H     H_    0.347020 0.742740 0.731328 0.172730
H159  H     H_    0.228613 0.796765 0.751532 0.123033
H160  H     H_    0.286410 0.718840 0.593965 0.154988
N1    N     N_2   0.008973 0.075286 0.400796 -0.500962
N2    N     N_2   0.424604 0.525785 0.873471 -0.503210
N3    N     N_2   0.519281 0.310161 0.400065 -0.522196
N4    N     N_2   0.480695 0.689777 0.599856 -0.522468
N5    N     N_2   0.511948 0.081535 0.907343 -0.517651
N6    N     N_2   0.487863 0.917218 0.091195 -0.508327
N7    N     N_2   0.448313 0.925472 0.848064 -0.507368
N8    N     N_2   0.551187 0.074720 0.152284 -0.507473
N9    N     N_2   0.320912 0.068864 0.054361 -0.499455
N10   N     N_2   0.679312 0.930176 0.943680 -0.497758
N11   N     N_2   0.037155 0.353161 0.318498 -0.496657
N12   N     N_2   0.991024 0.924704 0.599194 -0.500927
N13   N     N_2   0.962817 0.646860 0.681512 -0.496487
N14   N     N_2   0.912710 0.686769 0.172454 -0.509295
N15   N     N_2   0.087261 0.313255 0.827576 -0.509846
N16   N     N_2   0.055651 0.335328 0.015408 -0.492965
N17   N     N_2   0.944284 0.664717 0.984618 -0.492631
N18   N     N_2   0.670446 0.311303 0.909048 -0.499869
N19   N     N_2   0.329531 0.688781 0.091056 -0.501104
N20   N     N_2   0.575378 0.474307 0.126592 -0.503529
O1    O     O_3   0.750010 0.499980 0.749990 -0.430457
O2    O     O_R   0.305750 0.265450 0.132730 -0.547493
O3    O     O_R   0.867280 0.265410 0.571220 -0.540744
O4    O     O_R   0.132720 0.734590 0.428780 -0.540845
O5    O     O_R   0.571230 0.734580 0.867270 -0.527220
O6    O     O_R   0.428770 0.265420 0.132730 -0.542340
O7    O     O_R   0.694200 0.438470 0.867270 -0.545827
O8    O     O_R   0.305800 0.561530 0.132730 -0.544802
O9    O     O_R   0.867340 0.561470 0.694210 -0.541369
O10   O     O_R   0.132660 0.438530 0.305790 -0.542418
O11   O     O_R   0.867310 0.438430 0.867270 -0.545435
O12   O     O_3   0.249990 0.500020 0.250010 -0.429389
O13   O     O_R   0.132690 0.561570 0.132730 -0.545409
O14   O     O_R   0.694200 0.438520 0.571220 -0.558834
O15   O     O_R   0.305800 0.561480 0.428780 -0.558693
O16   O     O_R   0.867340 0.561440 0.867270 -0.539574
O17   O     O_R   0.132660 0.438560 0.132730 -0.538580
O18   O     O_R   0.571190 0.561530 0.694210 -0.555106
O19   O     O_R   0.428810 0.438470 0.305790 -0.554162
O20   O     O_R   0.571190 0.561490 0.867270 -0.537467
O21   O     O_R   0.428810 0.438510 0.132730 -0.541662
O22   O     O_R   0.867310 0.438490 0.571220 -0.563433
O23   O     O_R   0.132690 0.561510 0.428780 -0.563455
O24   O     O_R   0.867280 0.265380 0.694210 -0.560378
O25   O     O_R   0.132720 0.734620 0.305790 -0.560591
O26   O     O_R   0.694250 0.734550 0.867270 -0.551721
Zn1   Zn    Zn3+2 0.618190 0.587870 0.793920 0.914921
Zn2   Zn    Zn3+2 0.381810 0.412130 0.206080 0.908782
Zn3   Zn    Zn3+2 0.793940 0.412090 0.793920 0.901759
Zn4   Zn    Zn3+2 0.206060 0.587910 0.206080 0.903350
Zn5   Zn    Zn3+2 0.793970 0.587840 0.793920 0.916296
Zn6   Zn    Zn3+2 0.206030 0.412160 0.206080 0.920264
Zn7   Zn    Zn3+2 0.793940 0.412130 0.618200 0.896115
Zn8   Zn    Zn3+2 0.206060 0.587870 0.381800 0.896579

loop_
_geom_bond_atom_site_label_1
_geom_bond_atom_site_label_2
_ccdc_geom_bond_type
C96   H125  S    
C14   H58   S    
C12   H60   S    
C25   O25   A    
O26   Zn5   S    
C2    C29   S    
C87   N15   S    
C97   H133  S    
C106  C107  S    
C5    H37   S    
C62   C70   S    
C87   H100  S    
C29   O5    A    
C9    H44   S    
C49   C51   S    
C101  H145  S    
C46   C55   S    
O9    Zn5   S    
C50   C52   S    
C83   H85   S    
C6    H43   S    
C16   H67   S    
C59   O10   A    
C84   H92   S    
C71   H95   S    
C5    H36   S    
C13   C91   S    
C76   H13   S    
C41   C43   S    
C57   O22   A    
C42   C44   S    
C100  H142  S    
C104  C105  S    
C27   C31   S    
C28   C32   S    
C39   C41   S    
C94   H122  S    
C27   C35   S    
C72   H1    S    
C11   H50   S    
C73   H2    S    
C31   C37   S    
C38   C88   S    
C54   O21   A    
C32   C34   S    
C91   N6    S    
C75   C76   S    
C32   C35   S    
C72   H84   S    
C111  H18   S    
C90   C92   S    
O7    Zn3   S    
C65   C68   S    
O19   Zn2   S    
C101  H144  S    
C103  H149  S    
O20   Zn1   S    
C95   H127  S    
C85   H90   S    
C17   N10   S    
C28   C33   S    
C56   N2    S    
C80   N5    S    
C14   H56   S    
C54   O8    A    
O21   Zn2   S    
C28   N12   S    
H26   N8    S    
C109  H11   S    
C103  N2    S    
C112  H22   S    
C4    H32   S    
C93   N16   S    
C36   C68   S    
O22   Zn7   S    
C61   O13   A    
C6    C7    S    
H21   N7    S    
C88   H107  S    
C106  H3    S    
C38   C43   S    
C48   N19   S    
C109  H9    S    
C10   C18   S    
C51   C55   S    
C83   H83   S    
C72   H73   S    
C98   H130  S    
O23   Zn8   S    
C81   H81   S    
C7    H40   S    
C58   N7    S    
C79   H77   S    
C21   C24   S    
C45   N17   S    
C16   N13   S    
C41   N15   S    
O11   Zn3   S    
C101  N20   S    
C110  H16   S    
C17   C69   S    
O1    Zn7   S    
C103  H148  S    
O8    Zn4   S    
C3    H29   S    
C86   H97   S    
C99   H137  S    
C108  N3    S    
H65   N13   S    
C97   C98   S    
C94   H120  S    
C81   H80   S    
C59   O23   A    
C71   H106  S    
C18   C24   S    
C19   C21   S    
O14   Zn7   S    
H114  N16   S    
O18   Zn1   S    
C105  H153  S    
H147  N2    S    
C19   C26   S    
O25   Zn4   S    
O15   Zn8   S    
C27   N1    S    
C110  N5    S    
C40   C42   S    
C2    C17   S    
C74   H128  S    
C77   H74   S    
C74   H117  S    
O1    Zn1   S    
C35   C82   S    
C16   H66   S    
C1    C34   S    
H8    N4    S    
C87   H101  S    
C79   H76   S    
C5    N10   S    
C26   N13   S    
C47   N4    S    
C30   O6    A    
C17   C80   S    
C80   C102  S    
C78   H70   S    
C75   H57   S    
C93   H115  S    
C24   N11   S    
C10   H54   S    
C11   H51   S    
H17   N6    S    
C49   C95   S    
C43   C45   S    
C110  H14   S    
C89   H104  S    
C111  H19   S    
C3    H27   S    
O5    Zn1   S    
C99   H135  S    
C52   C53   S    
C64   C104  S    
C63   C68   S    
H134  N18   S    
C108  H5    S    
O12   Zn8   S    
H61   N11   S    
C58   C80   S    
C62   O18   A    
C67   C70   S    
C82   H87   S    
C36   C64   S    
C97   H132  S    
C13   N9    S    
C28   C37   S    
C4    H33   S    
C48   C50   S    
C33   C35   S    
C96   H123  S    
C2    C91   S    
C109  N4    S    
C10   C11   S    
C1    O24   A    
C13   C102  S    
C69   C91   S    
C25   C33   S    
C93   H118  S    
C34   C37   S    
C86   N14   S    
C73   C74   S    
C94   N17   S    
C104  H155  S    
C77   C78   S    
C46   C49   S    
O4    Zn8   S    
C15   H64   S    
C78   H68   S    
C92   H109  S    
H79   N12   S    
C23   C57   S    
C23   C26   S    
O17   Zn6   S    
C29   O26   A    
C32   C77   S    
C65   C67   S    
O1    Zn3   S    
C67   C73   S    
C12   H59   S    
C99   N18   S    
C47   C66   S    
H34   N10   S    
C85   H89   S    
C79   N1    S    
C108  H7    S    
C57   O9    A    
C55   N20   S    
C74   H139  S    
C39   C42   S    
C40   C45   S    
O13   Zn4   S    
C1    O3    A    
C107  H159  S    
C63   O15   A    
C84   C85   S    
C86   H96   S    
C22   C59   S    
C16   H69   S    
C69   N8    S    
C5    H38   S    
C88   H108  S    
H4    N3    S    
C38   C44   S    
C31   C75   S    
C66   C71   S    
C9    H45   S    
C101  H146  S    
O3    Zn7   S    
C83   H86   S    
C98   H131  S    
C6    H42   S    
C7    H39   S    
H75   N1    S    
C75   H46   S    
C20   C22   S    
O24   Zn3   S    
C21   C23   S    
C41   C44   S    
C22   C24   S    
C100  H141  S    
C8    H48   S    
O6    Zn2   S    
C30   O2    A    
C15   H62   S    
C112  H25   S    
C92   H111  S    
C86   H98   S    
H12   N5    S    
C2    C58   S    
C94   H121  S    
C6    C20   S    
C38   C40   S    
C3    N8    S    
C105  H152  S    
O1    Zn5   S    
C12   C19   S    
H119  N17   S    
C85   H91   S    
C71   C72   S    
C82   C83   S    
O12   Zn4   S    
C14   H55   S    
C64   C66   S    
C62   O14   A    
C66   C68   S    
C106  H160  S    
C39   C45   S    
C107  H157  S    
C90   H113  S    
C15   N11   S    
C95   C96   S    
C4    H31   S    
C76   H24   S    
C36   C67   S    
C69   C102  S    
O10   Zn6   S    
C100  N19   S    
C8    H49   S    
H30   N9    S    
C109  H10   S    
O12   Zn2   S    
C9    H47   S    
C46   C52   S    
C77   H72   S    
C78   H71   S    
C46   N18   S    
C53   O20   A    
C98   H129  S    
C81   H82   S    
C84   H93   S    
C87   H102  S    
C48   C51   S    
C76   H35   S    
C8    C9    S    
C79   H78   S    
C31   C33   S    
C37   C84   S    
C64   C70   S    
C39   C90   S    
C110  H15   S    
C89   H103  S    
C88   C89   S    
C30   C102  S    
C81   N12   S    
C27   C34   S    
C44   N16   S    
C18   C23   S    
C111  N6    S    
C108  H6    S    
C19   C22   S    
H99   N15   S    
C13   C58   S    
C105  H154  S    
H138  N19   S    
C95   H126  S    
C47   C70   S    
C82   H88   S    
H143  N20   S    
C60   O16   A    
C61   O17   A    
C7    H41   S    
C4    N9    S    
C96   H124  S    
O12   Zn6   S    
C42   C61   S    
O16   Zn5   S    
C43   C60   S    
O2    Zn6   S    
C25   O4    A    
C63   O19   A    
C53   O7    A    
C112  H23   S    
C65   C106  S    
C73   H150  S    
C48   C56   S    
C60   O11   A    
C50   C97   S    
C36   N3    S    
H94   N14   S    
C104  H156  S    
C100  H140  S    
C8    C21   S    
C90   H112  S    
C49   C56   S    
C50   C55   S    
C15   H63   S    
C51   C54   S    
C92   H110  S    
C12   C14   S    
C112  N7    S    
C93   H116  S    
C20   C26   S    
C10   H53   S    
C40   N14   S    
C11   H52   S    
C18   C20   S    
C89   H105  S    
C111  H20   S    
C103  H151  S    
C3    H28   S    
C99   H136  S    
C47   C65   S    
C52   C56   S    
C107  H158  S    
