data_mof_unit_35470.cif
_audit_creation_date              2012-12-11T14:06:54-0500
_audit_creation_method            fapswitch 2.2
_symmetry_space_group_name_H-M    P1
_symmetry_Int_Tables_number       1
_space_group_crystal_system       triclinic
_cell_length_a                    6.940185
_cell_length_b                    17.281605
_cell_length_c                    24.076987
_cell_angle_alpha                 104.442443
_cell_angle_beta                  90.575303
_cell_angle_gamma                 89.989927
_cell_volume                      2796.32919568

loop_
_atom_site_label
_atom_site_type_symbol
_atom_type_description
_atom_site_fract_x
_atom_site_fract_y
_atom_site_fract_z
_atom_type_partial_charge
O1    O     O_R   0.494290 0.391990 0.999150 -0.534392
O2    O     O_R   0.827170 0.534410 0.082350 -0.542217
O3    O     O_R   0.994360 0.608010 0.000850 -0.534906
C1    C     C_R   0.658898 0.550480 0.106074 0.720465
O4    O     O_R   0.824210 0.388010 0.004470 -0.547068
O5    O     O_R   0.991370 0.460560 0.922410 -0.538964
C2    C     C_R   0.654529 0.354905 0.001465 0.773797
O6    O     O_R   0.497270 0.539440 0.077590 -0.540868
O7    O     O_3   0.659770 0.523970 0.973170 -0.370598
V1    V     V_3+5 0.935840 0.495550 0.004980 1.411820
O8    O     O_R   0.320910 0.465590 0.917650 -0.541033
C3    C     C_R   0.151223 0.450082 0.894110 0.717407
O9    O     O_R   0.323870 0.611990 0.995530 -0.547573
C4    C     C_R   0.154402 0.645086 0.998515 0.770966
V2    V     V_3+5 0.435470 0.504450 0.995020 1.412686
O10   O     O_3   0.161670 0.476030 0.026830 -0.371907
C5    C     C_2   0.142631 0.730284 0.998091 -0.342906
H1    H     H_    0.276672 0.761188 0.994715 0.150143
C6    C     C_2   0.972929 0.769750 0.002020 -0.340853
H2    H     H_    0.838889 0.738845 0.005394 0.150767
C7    C     C_R   0.126371 0.247182 0.625522 0.556909
N1    N     N_R   0.089729 0.326598 0.649184 -0.547916
C8    C     C_R   0.033495 0.376035 0.615360 0.598415
C9    C     C_R   0.014235 0.346333 0.555464 -0.035329
C10   C     C_R   0.053696 0.265180 0.530636 -0.012535
C11   C     C_R   0.109469 0.214976 0.565871 -0.048651
C12   C     C_R   0.956695 0.395691 0.519876 -0.158713
C13   C     C_R   0.940148 0.365022 0.460489 -0.133639
C14   C     C_R   0.981012 0.284245 0.435173 -0.026109
C15   C     C_R   0.037688 0.234156 0.470426 -0.015061
C16   C     C_R   0.078916 0.153146 0.445591 -0.045076
C17   C     C_R   0.133494 0.103512 0.481266 -0.115759
C18   C     C_R   0.147981 0.134014 0.540672 -0.110245
C19   C     C_R   0.967665 0.252217 0.375362 0.579560
N2    N     N_R   0.009903 0.173338 0.351677 -0.561993
C20   C     C_R   0.064356 0.123824 0.385584 0.580518
O11   O     O_2   0.181758 0.199666 0.659512 -0.515347
O12   O     O_2   0.995351 0.453604 0.639564 -0.518813
H3    H     H_    0.924530 0.458244 0.537754 0.165457
H4    H     H_    0.895842 0.404931 0.434493 0.181274
O13   O     O_2   0.914831 0.299782 0.341155 -0.508603
O14   O     O_2   0.103238 0.046312 0.361388 -0.513393
H5    H     H_    0.165289 0.040917 0.463425 0.185422
H6    H     H_    0.189858 0.093976 0.566797 0.210951
C21   C     C_R   0.819032 0.133139 0.261772 -0.078431
H7    H     H_    0.688190 0.149563 0.285960 0.120471
C22   C     C_R   0.807722 0.102787 0.202159 -0.192652
H8    H     H_    0.667229 0.096840 0.181557 0.128327
C23   C     C_R   0.975819 0.081138 0.169624 -0.058519
C24   C     C_R   0.155250 0.090328 0.198461 -0.194227
H9    H     H_    0.287614 0.074299 0.174987 0.131206
C25   C     C_R   0.166077 0.120242 0.258105 -0.082514
H10   H     H_    0.305428 0.126891 0.279413 0.119144
C26   C     C_R   0.998204 0.142075 0.290184 0.378498
C27   C     C_R   0.252889 0.415007 0.734545 0.331496
C28   C     C_R   0.267090 0.444352 0.794574 -0.267573
H11   H     H_    0.377225 0.488041 0.812725 0.133332
C29   C     C_R   0.138178 0.418703 0.830993 -0.078927
C30   C     C_R   0.995121 0.362702 0.806715 -0.199760
H12   H     H_    0.894395 0.341736 0.833833 0.134924
C31   C     C_R   0.982692 0.331948 0.747327 -0.172449
H13   H     H_    0.872503 0.288129 0.729625 0.144325
C32   C     C_R   0.109195 0.358043 0.710623 0.352335
C33   C     C_R   0.469281 0.877475 0.613179 0.617334
N3    N     N_R   0.497460 0.827181 0.648598 -0.547297
C34   C     C_R   0.535499 0.747631 0.626235 0.556845
C35   C     C_R   0.547218 0.715997 0.566508 -0.005305
C36   C     C_R   0.528655 0.767642 0.529751 -0.054990
C37   C     C_R   0.495904 0.850098 0.553079 -0.130786
C38   C     C_R   0.579308 0.634048 0.542829 -0.136379
C39   C     C_R   0.592167 0.603518 0.483511 -0.146805
C40   C     C_R   0.575170 0.654233 0.446292 -0.028395
C41   C     C_R   0.543623 0.736520 0.469507 -0.024822
C42   C     C_R   0.527429 0.787633 0.432529 -0.110182
C43   C     C_R   0.497243 0.869529 0.455857 -0.128563
C44   C     C_R   0.487285 0.901488 0.515171 0.345845
C45   C     C_R   0.591231 0.624837 0.386337 0.608541
N4    N     N_R   0.582065 0.675967 0.350922 -0.557299
C46   C     C_R   0.548230 0.756026 0.372974 0.562239
O15   O     O_2   0.410536 0.952971 0.636085 -0.509994
O16   O     O_2   0.563513 0.699186 0.661689 -0.521881
H14   H     H_    0.594339 0.593056 0.570074 0.173518
H15   H     H_    0.617127 0.540093 0.466987 0.163304
O17   O     O_2   0.616820 0.545915 0.363723 -0.500842
O18   O     O_2   0.538550 0.805323 0.337521 -0.513595
H16   H     H_    0.488340 0.910146 0.428145 0.193268
C47   C     C_R   0.457129 0.649570 0.252096 -0.162714
H17   H     H_    0.322982 0.676830 0.268451 0.146012
C48   C     C_R   0.474245 0.618604 0.193180 -0.200403
H18   H     H_    0.351113 0.622823 0.166096 0.141554
C49   C     C_R   0.646860 0.583472 0.169437 -0.083039
C50   C     C_R   0.803651 0.581060 0.206637 -0.264719
H19   H     H_    0.938359 0.554619 0.189040 0.132519
C51   C     C_R   0.787847 0.612259 0.266723 0.337219
C52   C     C_R   0.610050 0.645728 0.289736 0.360416
C53   C     C_R   0.349797 0.829485 0.742223 -0.168845
H20   H     H_    0.249763 0.783406 0.720648 0.154958
C54   C     C_R   0.336026 0.860496 0.801653 -0.217373
H21   H     H_    0.226882 0.837164 0.824978 0.136608
C55   C     C_R   0.464874 0.919639 0.830895 -0.074069
C56   C     C_R   0.605302 0.948414 0.799489 -0.262536
H22   H     H_    0.705402 0.994224 0.821556 0.129256
C57   C     C_R   0.617161 0.919080 0.739553 0.331774
C58   C     C_R   0.488551 0.858618 0.710377 0.348347
C59   C     C_2   0.642765 0.269688 0.001855 -0.343287
H23   H     H_    0.777044 0.238755 0.005205 0.150340
C60   C     C_2   0.472761 0.230246 0.997942 -0.340073
H24   H     H_    0.338483 0.261177 0.994588 0.150377
O19   O     O_R   0.618210 0.960470 0.922400 -0.538092
O20   O     O_R   0.291310 0.111960 0.995450 -0.546092
O21   O     O_R   0.124210 0.039530 0.077580 -0.540326
C61   C     C_R   0.460994 0.145052 0.998397 0.771024
O22   O     O_R   0.288310 0.965490 0.917650 -0.540853
O23   O     O_R   0.121180 0.892010 0.999220 -0.535830
C62   C     C_R   0.456360 0.950002 0.894102 0.716380
O24   O     O_R   0.621230 0.107990 0.000760 -0.536208
O25   O     O_3   0.455770 0.976060 0.026840 -0.372450
V3    V     V_3+5 0.179680 0.004440 0.995020 1.412754
O26   O     O_R   0.791670 0.888040 0.004570 -0.545317
C63   C     C_R   0.961144 0.854943 0.001582 0.775492
O27   O     O_R   0.794680 0.034510 0.082370 -0.543091
C64   C     C_R   0.964260 0.050136 0.106088 0.706689
V4    V     V_3+5 0.680070 0.995560 0.005010 1.412194
O28   O     O_3   0.953840 0.023940 0.973160 -0.370899
N5    N     N_2   0.378649 0.444897 0.698405 -0.490564
H25   H     H_    0.426224 0.502454 0.715966 0.277154
C65   C     C_3   0.534608 0.391949 0.674563 -0.492961
H26   H     H_    0.613876 0.417210 0.643331 0.225387
H27   H     H_    0.479548 0.332144 0.651642 0.204908
H28   H     H_    0.635251 0.385796 0.709263 0.190109
O29   O     O_3   0.476947 0.983360 0.534093 -0.636216
H29   H     H_    0.572707 0.000105 0.565609 0.332081
N6    N     N_2   0.948835 0.606849 0.303076 -0.492647
H30   H     H_    0.057355 0.569701 0.283033 0.263074
C66   C     C_3   0.021800 0.681408 0.339165 -0.492531
H31   H     H_    0.928835 0.703789 0.376705 0.207388
H32   H     H_    0.034089 0.727490 0.314399 0.200409
H33   H     H_    0.165774 0.671420 0.356602 0.186662
N7    N     N_2   0.757039 0.951282 0.708725 -0.498608
H34   H     H_    0.791070 0.010267 0.727221 0.270916
C67   C     C_3   0.927090 0.902562 0.694200 -0.520342
H35   H     H_    0.024770 0.930158 0.668319 0.238032
H36   H     H_    0.888605 0.841659 0.668581 0.206486
H37   H     H_    0.003457 0.898543 0.734049 0.194703

loop_
_geom_bond_atom_site_label_1
_geom_bond_atom_site_label_2
_ccdc_geom_bond_type
C66   H33   S    
C47   H17   S    
C56   H22   S    
O24   V4    S    
C41   C42   A    
C20   O14   S    
N2    C20   A    
C9    C12   A    
C46   O18   S    
C1    O6    A    
O20   V3    S    
C66   H31   S    
C22   C23   A    
C45   N4    A    
C59   C60   D    
C40   C45   A    
O21   V3    S    
C12   C13   A    
C27   C32   A    
C13   C14   A    
C67   H36   S    
O5    C3    A    
C15   C16   A    
C44   O29   S    
C13   H4    S    
V2    O10   S    
C54   H21   S    
C51   N6    S    
C28   H11   S    
C37   C44   A    
C19   N2    A    
C60   C61   S    
C31   C32   A    
C55   C56   A    
C43   H16   S    
N1    C32   S    
O8    V2    S    
C27   N5    S    
C12   H3    S    
C36   C37   A    
C53   C54   A    
C24   C25   A    
C8    C9    A    
C2    C59   S    
C38   C39   A    
O1    V2    S    
C48   C49   A    
O7    V1    S    
C1    C49   S    
C3    C29   S    
C34   C35   A    
O25   V4    S    
C30   H12   S    
C56   C57   A    
O9    C4    A    
O21   C64   A    
C33   O15   S    
C4    C5    S    
C51   C52   A    
C55   C62   S    
C7    C11   A    
C25   C26   A    
C24   H9    S    
C39   H15   S    
C21   C22   A    
C30   C31   A    
C42   C43   A    
C35   C36   A    
C22   H8    S    
V4    O28   S    
C9    C10   A    
C67   H37   S    
C49   C50   A    
O4    C2    A    
N4    C46   A    
O19   V4    S    
C45   O17   S    
C10   C11   A    
C21   H7    S    
C14   C19   A    
C47   C52   A    
O2    C1    A    
C43   C44   A    
C65   H27   S    
C19   O13   S    
C14   C15   A    
C57   N7    S    
C11   C18   A    
C16   C17   A    
N4    C52   S    
C60   H24   S    
C53   H20   S    
C27   C28   A    
C50   C51   A    
C5    H1    S    
V3    O28   S    
C33   C37   A    
O26   C63   A    
O27   C64   A    
O23   V3    S    
O3    C4    A    
C6    C63   S    
N3    C34   A    
O6    V2    S    
C54   C55   A    
C42   C46   A    
O9    V2    S    
N6    H30   S    
C29   C30   A    
C65   H26   S    
O2    V1    S    
C61   O24   A    
C25   H10   S    
N5    C65   S    
C10   C15   A    
C66   H32   S    
C53   C58   A    
O1    C2    A    
C18   H6    S    
N1    C8    A    
C40   C41   A    
C21   C26   A    
N7    H34   S    
O26   V4    S    
C8    O12   S    
C59   H23   S    
O25   V3    S    
C35   C38   A    
C17   C18   A    
C6    H2    S    
C47   C48   A    
C36   C41   A    
C65   H28   S    
O4    V1    S    
O3    V1    S    
V1    O10   S    
C67   H35   S    
C33   N3    A    
C34   O16   S    
N7    C67   S    
N5    H25   S    
C23   C64   S    
C50   H19   S    
C5    C6    D    
C17   H5    S    
C28   C29   A    
O7    V2    S    
C31   H13   S    
C38   H14   S    
O20   C61   A    
O27   V4    S    
O5    V1    S    
O19   C62   A    
O22   V3    S    
C39   C40   A    
C7    O11   S    
C23   C24   A    
C57   C58   A    
N6    C66   S    
C16   C20   A    
N3    C58   S    
O22   C62   A    
C48   H18   S    
C7    N1    A    
O23   C63   A    
O29   H29   S    
O8    C3    A    
N2    C26   S    
