data_mof_unit_47410.cif
_audit_creation_date              2012-12-10T19:27:36-0500
_audit_creation_method            fapswitch 2.2
_symmetry_space_group_name_H-M    P1
_symmetry_Int_Tables_number       1
_space_group_crystal_system       triclinic
_cell_length_a                    23.438652
_cell_length_b                    10.502455
_cell_length_c                    9.765928
_cell_angle_alpha                 89.589058
_cell_angle_beta                  90.024155
_cell_angle_gamma                 89.858661
_cell_volume                      2403.94454301

loop_
_atom_site_label
_atom_site_type_symbol
_atom_type_description
_atom_site_fract_x
_atom_site_fract_y
_atom_site_fract_z
_atom_type_partial_charge
C1    C     C_R   0.501602 0.257933 0.500537 0.932280
C2    C     C_R   0.703280 0.559497 0.611162 0.082956
C3    C     C_R   0.237156 0.441183 0.392923 -0.136602
C4    C     C_R   0.762844 0.558816 0.607078 -0.136603
C5    C     C_R   0.208560 0.490557 0.506240 0.286028
C6    C     C_R   0.791440 0.509443 0.493760 0.286030
C7    C     C_3   0.518605 0.037244 0.622227 0.528432
C8    C     C_3   0.481395 0.962756 0.377773 0.528430
C9    C     C_3   0.553726 0.953619 0.523223 -0.371445
C10   C     C_3   0.446274 0.046380 0.476777 -0.371449
C11   C     C_3   0.498524 0.876570 0.498290 -0.146889
C12   C     C_R   0.498398 0.742067 0.499463 0.932280
C13   C     C_3   0.501476 0.123430 0.501709 -0.146890
C14   C     C_3   0.464577 0.960071 0.596854 0.016917
C15   C     C_3   0.535423 0.039929 0.403145 0.016919
C16   C     C_R   0.389511 0.497605 0.499877 0.874338
C17   C     C_R   0.610489 0.502395 0.500123 0.874339
C18   C     C_3   0.487569 0.388552 0.049401 -0.073082
C19   C     C_3   0.512431 0.611448 0.950598 -0.073082
C20   C     C_3   0.537025 0.419993 0.951908 -0.054323
C21   C     C_3   0.462975 0.580007 0.048092 -0.054324
C22   C     C_3   0.450497 0.468597 0.951699 -0.076238
C23   C     C_R   0.238864 0.539301 0.617000 -0.098535
C24   C     C_3   0.549503 0.531402 0.048301 -0.076237
C25   C     C_R   0.881118 0.619755 0.483518 0.515829
C26   C     C_R   0.118882 0.380246 0.516483 0.515829
C27   C     C_R   0.879451 0.392735 0.503135 0.515667
C28   C     C_R   0.120549 0.607266 0.496866 0.515667
C29   C     C_R   0.938877 0.387732 0.505543 -0.022550
C30   C     C_R   0.061123 0.612269 0.494458 -0.022550
C31   C     C_R   0.969979 0.502147 0.498095 -0.061860
C32   C     C_R   0.030020 0.497854 0.501906 -0.061860
C33   C     C_R   0.941117 0.620568 0.487015 -0.015443
C34   C     C_R   0.761136 0.460700 0.383000 -0.098535
C35   C     C_R   0.058883 0.379433 0.512987 -0.015442
C36   C     C_R   0.967441 0.270831 0.516093 -0.219908
C37   C     C_R   0.032559 0.729170 0.483910 -0.219907
C38   C     C_R   0.026895 0.265320 0.519774 0.119590
C39   C     C_R   0.973105 0.734680 0.480230 0.119591
C40   C     C_3   0.555267 0.989082 0.836558 0.084511
C41   C     C_3   0.599165 0.040935 0.935897 -0.827949
C42   C     C_3   0.444730 0.010916 0.163445 0.084519
C43   C     C_3   0.400835 0.959055 0.064101 -0.827951
C44   C     C_R   0.297957 0.540448 0.613985 -0.251532
C45   C     C_R   0.702043 0.459553 0.386015 -0.251532
C46   C     C_R   0.327303 0.492638 0.500043 -0.052371
C47   C     C_R   0.672697 0.507362 0.499956 -0.052370
C48   C     C_R   0.296720 0.440502 0.388839 0.082956
H1    H     H_    0.943768 0.182402 0.521529 0.189390
H2    H     H_    0.783518 0.422850 0.295187 0.149679
H3    H     H_    0.320722 0.580375 0.700132 0.170411
H4    H     H_    0.679279 0.419627 0.299867 0.170411
H5    H     H_    0.212706 0.403153 0.308457 0.138877
H6    H     H_    0.787294 0.596845 0.691544 0.138876
H7    H     H_    0.596832 0.912129 0.539700 0.162963
H8    H     H_    0.403168 0.087871 0.460301 0.162962
H9    H     H_    0.039505 0.097903 0.618928 0.184069
H10   H     H_    0.041197 0.088626 0.446195 0.175567
H11   H     H_    0.960496 0.902103 0.381082 0.184067
H12   H     H_    0.056232 0.817599 0.478476 0.189390
H13   H     H_    0.958802 0.911372 0.553817 0.175568
H14   H     H_    0.345756 0.301638 0.308901 0.175341
H15   H     H_    0.296984 0.358244 0.198414 0.179553
H16   H     H_    0.654244 0.698359 0.691102 0.175343
H17   H     H_    0.703016 0.641751 0.801588 0.179553
H18   H     H_    0.575193 0.906742 0.783293 0.131797
H19   H     H_    0.517976 0.954456 0.895746 0.141398
H20   H     H_    0.580558 0.120884 0.994761 0.237320
H21   H     H_    0.612839 0.964336 0.007698 0.208111
H22   H     H_    0.637051 0.075827 0.878744 0.269002
H23   H     H_    0.568229 0.352841 0.906366 0.156014
H24   H     H_    0.482020 0.045553 0.104260 0.141392
H25   H     H_    0.424800 0.093250 0.216711 0.131796
H26   H     H_    0.362950 0.924151 0.121249 0.269003
H27   H     H_    0.387159 0.035654 0.992302 0.208112
H28   H     H_    0.419448 0.879113 0.005234 0.237315
H29   H     H_    0.411240 0.990325 0.756326 0.197936
H30   H     H_    0.447655 0.852491 0.766354 0.178084
H31   H     H_    0.588760 0.009674 0.243674 0.197937
H32   H     H_    0.552345 0.147508 0.233645 0.178085
H33   H     H_    0.431771 0.647159 0.093634 0.156014
H34   H     H_    0.476974 0.294735 0.095608 0.106801
H35   H     H_    0.523026 0.705265 0.904392 0.106801
H36   H     H_    0.408781 0.442034 0.906377 0.130112
H37   H     H_    0.591219 0.557966 0.093623 0.130112
H38   H     H_    0.216482 0.577153 0.704812 0.149680
N1    N     N_R   0.852173 0.507247 0.492427 -0.361089
N2    N     N_3   0.574966 0.087891 0.300239 -0.433028
N3    N     N_R   0.147827 0.492754 0.507574 -0.361088
N4    N     N_3   0.499960 0.500030 0.863290 -0.077442
N5    N     N_3   0.500040 0.499970 0.136710 -0.077442
N6    N     N_3   0.054056 0.143130 0.529869 -0.369923
N7    N     N_3   0.945943 0.856871 0.470139 -0.369922
N8    N     N_3   0.325988 0.385220 0.274185 -0.432078
N9    N     N_3   0.674012 0.614777 0.725817 -0.432078
N10   N     N_3   0.425034 0.912109 0.699761 -0.433028
O1    O     O_R   0.500000 0.313960 0.616610 -0.578539
O2    O     O_2   0.148478 0.270442 0.529207 -0.521369
O3    O     O_2   0.848898 0.284197 0.512859 -0.547217
O4    O     O_2   0.151102 0.715804 0.487142 -0.547217
O5    O     O_3   0.537903 0.088046 0.747206 -0.597592
O6    O     O_3   0.462097 0.911953 0.252794 -0.597593
O7    O     O_R   0.500000 0.686040 0.383390 -0.578538
O8    O     O_R   0.500030 0.313950 0.383350 -0.648105
O9    O     O_R   0.499970 0.686050 0.616650 -0.648106
O10   O     O_R   0.416140 0.499970 0.616650 -0.633373
O11   O     O_R   0.583860 0.500030 0.383350 -0.633373
O12   O     O_R   0.416170 0.499960 0.383400 -0.593105
O13   O     O_R   0.583830 0.500040 0.616600 -0.593104
O14   O     O_2   0.851522 0.729559 0.470793 -0.521369
Zn1   Zn    Zn3+2 0.499980 0.500010 0.655740 0.962612
Zn2   Zn    Zn3+2 0.500020 0.499990 0.344260 0.962612

loop_
_geom_bond_atom_site_label_1
_geom_bond_atom_site_label_2
_ccdc_geom_bond_type
H9    N6    S    
C27   C29   A    
O11   Zn2   S    
C29   C36   A    
C26   N3    A    
H15   N8    S    
C27   O3    S    
C33   C39   A    
C48   N8    S    
C18   N5    S    
C2    N9    S    
C19   C21   S    
O13   Zn1   S    
C12   O9    A    
O1    Zn1   S    
C11   C14   S    
H13   N7    S    
C38   N6    S    
C3    C48   A    
C25   N1    A    
C39   N7    S    
C40   O5    S    
C7    C14   S    
C20   C24   S    
H30   N10   S    
C23   H38   S    
C31   C33   A    
C20   H23   S    
C28   N3    A    
C9    H7    S    
C10   H8    S    
C24   H37   S    
C16   O10   A    
C28   O4    S    
C43   H26   S    
O9    Zn1   S    
C40   H18   S    
C21   C22   S    
H32   N2    S    
N4    Zn1   S    
C19   H35   S    
C42   O6    S    
C14   N10   S    
H31   N2    S    
C44   C46   A    
C41   H20   S    
O10   Zn1   S    
C45   C47   A    
C43   H27   S    
C37   C39   A    
C46   C48   A    
C34   H2    S    
C32   C35   A    
C35   C38   A    
C12   O7    A    
C4    C6    A    
C10   C14   S    
C1    O1    A    
O8    Zn2   S    
C16   O12   A    
C45   H4    S    
C20   N4    S    
C40   H19   S    
C23   C44   A    
O12   Zn2   S    
C30   C37   A    
O7    Zn2   S    
C22   H36   S    
N5    Zn2   S    
C2    C4    A    
C31   C32   A    
C5    C23   A    
C13   C15   S    
C7    C13   S    
C42   H24   S    
C22   N4    S    
C34   C45   A    
C27   N1    A    
C9    C11   S    
C1    O8    A    
C25   O14   S    
C26   O2    S    
C44   H3    S    
C40   C41   S    
C21   H33   S    
C8    C15   S    
H14   N8    S    
C1    C13   S    
C42   C43   S    
C16   C46   S    
C24   N5    S    
C41   H21   S    
C21   N5    S    
C43   H28   S    
C7    C9    S    
C42   H25   S    
C4    H6    S    
C18   C22   S    
C17   C47   S    
H16   N9    S    
C3    C5    A    
C10   C13   S    
C17   O13   A    
C11   C12   S    
C2    C47   A    
H29   N10   S    
C17   O11   A    
C19   C24   S    
C9    C15   S    
C28   C30   A    
C29   C31   A    
C19   N4    S    
C30   C32   A    
C3    H5    S    
H10   N6    S    
C8    C11   S    
C36   C38   A    
C18   H34   S    
C18   C20   S    
C37   H12   S    
C6    N1    S    
C6    C34   A    
C26   C35   A    
H17   N9    S    
C8    C10   S    
C7    O5    S    
C15   N2    S    
H11   N7    S    
C8    O6    S    
C5    N3    S    
C36   H1    S    
C25   C33   A    
C41   H22   S    
