data_mof_unit_39966.cif
_audit_creation_date              2013-03-05T16:15:19-0500
_audit_creation_method            fapswitch 2.2
_symmetry_space_group_name_H-M    P1
_symmetry_Int_Tables_number       1
_space_group_crystal_system       triclinic
_cell_length_a                    27.727602
_cell_length_b                    10.61038
_cell_length_c                    9.410645
_cell_angle_alpha                 89.723922
_cell_angle_beta                  90.357859
_cell_angle_gamma                 90.088132
_cell_volume                      2768.52617385

loop_
_atom_site_label
_atom_site_type_symbol
_atom_site_description
_atom_site_fract_x
_atom_site_fract_y
_atom_site_fract_z
_atom_type_partial_charge
O1    O     O_R   0.500020 0.316850 0.620870 -0.563549
O2    O     O_R   0.499980 0.683150 0.379130 -0.562774
O3    O     O_R   0.500000 0.316860 0.379090 -0.597232
O4    O     O_R   0.500000 0.683140 0.620910 -0.597694
C1    C     C_R   0.499956 0.259391 0.500360 0.825068
C2    C     C_R   0.500049 0.740608 0.499636 0.816630
O5    O     O_R   0.430270 0.500020 0.620880 -0.595184
O6    O     O_R   0.569730 0.499980 0.379120 -0.593867
O7    O     O_R   0.430250 0.500030 0.379090 -0.556047
O8    O     O_R   0.569750 0.499970 0.620910 -0.555846
C3    C     C_R   0.407579 0.505095 0.499413 0.839533
C4    C     C_R   0.592390 0.496769 0.500407 0.849684
Cu1   Cu    Cu3+1 0.500010 0.499990 0.643150 0.961996
Cu2   Cu    Cu3+1 0.499990 0.500010 0.356850 0.963923
C5    C     C_R   0.176666 0.402417 0.476104 0.540440
C6    C     C_R   0.822648 0.610990 0.535349 0.540588
O9    O     O_2   0.201033 0.292647 0.468927 -0.534545
O10   O     O_2   0.798318 0.708032 0.592964 -0.535301
N1    N     N_R   0.201284 0.513614 0.491179 -0.464789
N2    N     N_R   0.798094 0.507365 0.487784 -0.466140
C7    C     C_R   0.177382 0.626348 0.498328 0.550522
C8    C     C_R   0.821712 0.406793 0.430194 0.551121
C9    C     C_R   0.278707 0.577197 0.387741 -0.189234
C10   C     C_R   0.723222 0.423905 0.590099 -0.188813
C11   C     C_R   0.329144 0.582208 0.390512 -0.032754
C12   C     C_R   0.672740 0.415799 0.592858 -0.033937
C13   C     C_R   0.328575 0.450585 0.603895 -0.263431
C14   C     C_R   0.669180 0.575638 0.405475 -0.263387
C15   C     C_R   0.278308 0.450518 0.602286 -0.091724
C16   C     C_R   0.719295 0.580919 0.402845 -0.096821
C17   C     C_R   0.253149 0.512932 0.493586 0.345867
C18   C     C_R   0.746449 0.505220 0.494972 0.355470
C19   C     C_R   0.101087 0.517561 0.468401 -0.046450
C20   C     C_R   0.898050 0.514416 0.464842 -0.045592
C21   C     C_R   0.126129 0.402196 0.465435 -0.017593
C22   C     C_R   0.873080 0.616594 0.524712 -0.022868
C23   C     C_R   0.100200 0.289465 0.452973 -0.137949
C24   C     C_R   0.899012 0.720703 0.574811 -0.139465
C25   C     C_R   0.126921 0.630523 0.485824 -0.018962
C26   C     C_R   0.872171 0.408225 0.418073 -0.017483
C27   C     C_R   0.354580 0.514342 0.497800 -0.056936
C28   C     C_R   0.645345 0.494579 0.500344 -0.052347
H1    H     H_    0.347232 0.399018 0.687254 0.157282
H2    H     H_    0.648858 0.636160 0.333993 0.152700
H3    H     H_    0.258871 0.401394 0.685277 0.153895
H4    H     H_    0.737131 0.643390 0.328467 0.147421
H5    H     H_    0.118328 0.199109 0.456149 0.183034
H6    H     H_    0.880923 0.798372 0.626279 0.188227
C29   C     C_R   0.974096 0.410212 0.405317 0.033372
C30   C     C_R   0.025005 0.635012 0.470533 0.031335
C31   C     C_R   0.974369 0.628889 0.491932 0.071241
C32   C     C_R   0.024749 0.406027 0.428817 0.072181
C33   C     C_R   0.948914 0.518029 0.453202 0.038990
C34   C     C_R   0.050201 0.519712 0.455195 0.037380
C35   C     C_R   0.947073 0.310406 0.341818 -0.034383
C36   C     C_R   0.052009 0.749669 0.469533 -0.012725
C37   C     C_R   0.896828 0.308430 0.354624 -0.224818
C38   C     C_R   0.102234 0.745494 0.483834 -0.222841
O11   O     O_2   0.796365 0.306346 0.383438 -0.533577
O12   O     O_2   0.202411 0.734195 0.517682 -0.530826
C39   C     C_R   0.050292 0.291309 0.437142 -0.122276
C40   C     C_R   0.948869 0.725988 0.560363 -0.121706
H7    H     H_    0.744855 0.364310 0.659235 0.138636
H8    H     H_    0.258854 0.626802 0.305153 0.143889
H9    H     H_    0.876733 0.230561 0.309037 0.183861
H10   H     H_    0.122317 0.833258 0.486544 0.183812
H11   H     H_    0.031886 0.201517 0.436068 0.144731
H12   H     H_    0.967284 0.805178 0.608004 0.147255
C41   C     C_3   0.500070 0.039864 0.635328 -0.131090
C42   C     C_3   0.499961 0.960127 0.364653 -0.133163
C43   C     C_3   0.539694 0.957798 0.567571 -0.153733
C44   C     C_3   0.460336 0.042191 0.432408 -0.154465
H13   H     H_    0.572145 0.920037 0.622697 0.142840
H14   H     H_    0.427889 0.079949 0.377266 0.144170
H15   H     H_    0.500130 0.075223 0.746186 0.142434
H16   H     H_    0.499901 0.924761 0.253797 0.143957
C45   C     C_3   0.500051 0.877540 0.498818 0.009907
C46   C     C_3   0.499977 0.122454 0.501165 0.010202
C47   C     C_3   0.460429 0.957302 0.566440 -0.152320
C48   C     C_3   0.539601 0.042693 0.433541 -0.150627
H17   H     H_    0.428067 0.919008 0.620607 0.146926
H18   H     H_    0.571966 0.080991 0.379390 0.148331
C49   C     C_3   0.517753 0.604051 0.050324 -0.039056
C50   C     C_3   0.482246 0.395951 0.949677 -0.044124
C51   C     C_3   0.474444 0.592089 0.948362 -0.025794
C52   C     C_3   0.525553 0.407910 0.051640 -0.026353
H19   H     H_    0.452907 0.669459 0.899944 0.121676
H20   H     H_    0.547081 0.330529 0.100073 0.122394
H21   H     H_    0.532762 0.691572 0.097429 0.113732
H22   H     H_    0.467234 0.308431 0.902578 0.114424
N3    N     N_3   0.500040 0.499970 0.858290 -0.158669
N4    N     N_3   0.499960 0.500030 0.141710 -0.157243
C53   C     C_3   0.543355 0.511924 0.950409 -0.029898
C54   C     C_3   0.456644 0.488074 0.049590 -0.027290
H23   H     H_    0.579932 0.521996 0.904419 0.127954
H24   H     H_    0.420068 0.477916 0.095546 0.122933
C55   C     C_2   0.651165 0.319528 0.688349 0.342261
H25   H     H_    0.671897 0.284068 0.778213 0.074470
O13   O     O_2   0.611475 0.274053 0.664789 -0.551307
C56   C     C_2   0.352754 0.664913 0.283955 0.353196
H26   H     H_    0.335049 0.682701 0.182621 0.063589
O14   O     O_2   0.390396 0.720009 0.310610 -0.544496
C57   C     C_2   0.968060 0.216206 0.244011 0.362547
H27   H     H_    0.950598 0.125387 0.230254 0.111272
O15   O     O_2   0.003238 0.241542 0.171787 -0.512201
C58   C     C_2   0.031065 0.874523 0.433364 0.341704
H28   H     H_    0.048640 0.959967 0.470130 0.057885
O16   O     O_2   0.995821 0.883598 0.355528 -0.535187

loop_
_geom_bond_atom_site_label_1
_geom_bond_atom_site_label_2
_geom_bond_distance
_ccdc_geom_bond_type
C13   C15   1.393792 A    
N1    C17   1.438163 S    
C55   H25   1.085682 S    
C51   N3    1.481610 S    
C5    N1    1.369675 A    
C49   N4    1.481768 S    
C19   C25   1.405117 A    
O1    C1    1.290134 A    
C21   C23   1.399643 A    
C50   C52   1.537884 S    
C44   C47   1.546356 S    
C32   C39   1.410807 A    
C52   H20   1.110244 S    
C58   H28   1.085655 S    
C49   C53   1.537165 S    
C35   C57   1.483973 S    
C14   C28   1.404198 A    
O4    Cu1   1.953526 S    
C41   C43   1.545619 S    
C13   C27   1.405479 A    
C4    C28   1.468555 S    
C38   H10   1.084590 S    
C44   C46   1.531525 S    
C41   H15   1.110341 S    
C50   N3    1.481770 S    
C23   H5    1.083370 S    
C24   H6    1.083272 S    
O6    C4    1.299782 A    
C51   H19   1.110248 S    
C53   H23   1.109958 S    
Cu1   Cu2   2.694262 S    
Cu1   N3    2.024601 S    
C42   C45   1.533393 S    
C41   C46   1.533392 S    
O2    C2    1.290096 A    
C31   C40   1.410817 A    
C50   H22   1.110193 S    
C5    C21   1.404253 A    
C43   C48   1.546380 S    
C55   O13   1.220435 D    
C32   C34   1.418712 A    
C45   C47   1.531327 S    
C49   H21   1.110197 S    
C36   C58   1.484458 S    
C42   C48   1.545794 S    
C7    O12   1.349890 S    
C48   H18   1.110272 S    
C11   C27   1.421612 A    
C8    O11   1.349733 S    
C43   H13   1.110198 S    
C2    C45   1.452885 S    
C29   C35   1.427595 A    
C25   C38   1.399716 A    
C14   H2    1.083802 S    
C30   C36   1.427546 A    
C15   H3    1.082851 S    
C31   C33   1.418791 A    
C9    C17   1.400026 A    
O5    C3    1.302269 A    
O7    Cu2   1.946316 S    
C10   C18   1.399505 A    
C52   C53   1.537281 S    
N3    C53   1.482446 S    
C51   C54   1.537251 S    
C39   H11   1.080180 S    
C11   C56   1.483967 S    
C7    C25   1.404123 A    
C6    N2    1.367991 A    
C29   C32   1.421151 A    
C8    C26   1.404512 A    
C56   O14   1.220773 D    
C30   C31   1.420979 A    
C57   O15   1.221194 D    
C6    O10   1.349566 S    
C50   C54   1.537116 S    
C54   H24   1.109897 S    
O7    C3    1.299900 A    
Cu2   N4    2.024601 S    
O3    Cu2   1.953525 S    
O8    C4    1.300201 A    
C44   H14   1.110190 S    
C9    H8    1.084287 S    
C49   C51   1.537912 S    
N2    C8    1.368748 A    
C10   H7    1.084094 S    
C35   C37   1.399234 A    
C42   H16   1.110347 S    
C20   C26   1.405850 A    
C41   C47   1.545777 S    
O4    C2    1.291361 A    
O1    Cu1   1.955470 S    
C43   C45   1.531534 S    
C12   C28   1.421386 A    
C47   H17   1.110269 S    
N2    C18   1.434154 S    
C19   C34   1.415834 A    
C5    O9    1.349548 S    
O6    Cu2   1.943745 S    
C26   C37   1.399478 A    
N1    C7    1.370514 A    
C16   H4    1.082921 S    
C10   C12   1.402647 A    
C37   H9    1.084516 S    
O3    C1    1.291332 A    
O8    Cu1   1.946316 S    
C23   C39   1.391039 A    
C40   H12   1.080356 S    
C22   C24   1.399233 A    
C30   C34   1.418151 A    
C52   N4    1.481567 S    
C6    C22   1.403720 A    
C16   C18   1.396652 A    
N4    C54   1.482472 S    
C58   O16   1.221251 D    
C29   C33   1.417974 A    
C14   C16   1.390970 A    
C56   H26   1.085680 S    
C19   C21   1.408703 A    
C20   C22   1.408980 A    
C36   C38   1.399033 A    
C3    C27   1.472956 S    
C46   C48   1.531372 S    
C9    C11   1.399505 A    
O2    Cu2   1.955469 S    
C12   C55   1.484851 S    
C13   H1    1.083506 S    
O5    Cu1   1.943745 S    
C20   C33   1.415729 A    
C15   C17   1.399127 A    
C57   H27   1.085702 S    
C42   C44   1.545606 S    
C1    C46   1.452941 S    
C24   C40   1.390937 A    
