data_mof_unit_65090.cif
_audit_creation_date              2012-12-10T18:48:01-0500
_audit_creation_method            fapswitch 2.2
_symmetry_space_group_name_H-M    P1
_symmetry_Int_Tables_number       1
_space_group_crystal_system       triclinic
_cell_length_a                    19.401414
_cell_length_b                    18.157315
_cell_length_c                    14.355163
_cell_angle_alpha                 89.953875
_cell_angle_beta                  90.253863
_cell_angle_gamma                 90.117052
_cell_volume                      5056.94036716

loop_
_atom_site_label
_atom_site_type_symbol
_atom_type_description
_atom_site_fract_x
_atom_site_fract_y
_atom_site_fract_z
_atom_type_partial_charge
C1    C     C_R   0.367748 0.499952 0.499911 0.819139
C2    C     C_R   0.632253 0.500047 0.500082 0.819099
C3    C     C_R   0.963840 0.559626 0.458122 0.149085
C4    C     C_R   0.036166 0.440294 0.541843 0.149088
C5    C     C_R   0.036730 0.559267 0.458777 0.137384
C6    C     C_R   0.963276 0.440662 0.541209 0.137389
C7    C     C_R   0.072233 0.499715 0.500521 -0.008998
C8    C     C_R   0.927773 0.500205 0.499445 -0.008998
C9    C     C_R   0.457573 0.720904 0.440608 0.091932
C10   C     C_R   0.542447 0.279096 0.559365 0.091899
C11   C     C_R   0.542197 0.721086 0.559595 0.095189
C12   C     C_R   0.457781 0.278915 0.440432 0.095235
C13   C     C_R   0.456712 0.798231 0.439485 -0.284342
C14   C     C_R   0.543307 0.201768 0.560488 -0.284337
C15   C     C_R   0.543023 0.798396 0.560664 -0.283600
C16   C     C_R   0.456956 0.201605 0.439361 -0.283594
C17   C     C_R   0.499902 0.838463 0.500015 0.109826
C18   C     C_R   0.500097 0.161536 0.499983 0.109826
C19   C     C_R   0.561305 0.961395 0.514488 -0.176106
C20   C     C_R   0.438693 0.038603 0.485511 -0.176101
C21   C     C_R   0.438642 0.961231 0.485488 -0.176723
C22   C     C_R   0.561357 0.038767 0.514508 -0.176720
C23   C     C_R   0.500052 0.078704 0.500018 0.119966
C24   C     C_R   0.499947 0.921294 0.499980 0.119960
C25   C     C_R   0.499955 0.500018 0.330872 0.810953
C26   C     C_R   0.500045 0.499982 0.669128 0.810951
C27   C     C_1   0.499955 0.500037 0.228622 -0.207659
C28   C     C_1   0.500044 0.499963 0.771378 -0.207666
C29   C     C_1   0.499966 0.500023 0.143270 -0.009634
C30   C     C_1   0.500032 0.499976 0.856730 -0.009635
C31   C     C_1   0.499988 0.500006 0.042680 0.001061
C32   C     C_1   0.500009 0.499994 0.957320 0.001061
C33   C     C_R   0.743745 0.467021 0.425309 0.119106
C34   C     C_R   0.256250 0.532852 0.574741 0.119102
C35   C     C_R   0.255460 0.467209 0.425369 0.124514
C36   C     C_R   0.744559 0.532888 0.574524 0.124527
C37   C     C_R   0.815840 0.467487 0.426043 -0.163503
C38   C     C_R   0.184155 0.532354 0.574008 -0.163497
C39   C     C_R   0.183392 0.467651 0.426429 -0.162934
C40   C     C_R   0.816627 0.532407 0.573468 -0.162961
C41   C     C_R   0.851944 0.499901 0.499719 0.057866
C42   C     C_R   0.148063 0.500029 0.500259 0.057856
C43   C     C_R   0.707758 0.500076 0.499929 -0.046791
C44   C     C_R   0.292247 0.499918 0.500049 -0.046723
Cu1   Cu    Cu3+1 0.500000 0.573360 0.500000 0.928571
Cu2   Cu    Cu3+1 0.500000 0.426640 0.500000 0.928565
H1    H     H_    0.844241 0.442745 0.369277 0.144132
H2    H     H_    0.155745 0.557003 0.630830 0.144152
H3    H     H_    0.154396 0.442938 0.369759 0.143860
H4    H     H_    0.845632 0.557197 0.630075 0.143881
H5    H     H_    0.424281 0.690628 0.393597 0.120037
H6    H     H_    0.575755 0.309371 0.606356 0.120046
H7    H     H_    0.575193 0.690998 0.606977 0.113178
H8    H     H_    0.424765 0.309004 0.393076 0.113167
H9    H     H_    0.423159 0.826172 0.390543 0.129888
H10   H     H_    0.576876 0.173829 0.609410 0.129881
H11   H     H_    0.576464 0.826452 0.609717 0.129455
H12   H     H_    0.423498 0.173551 0.390327 0.129446
H13   H     H_    0.609791 0.932975 0.524278 0.129027
H14   H     H_    0.390206 0.067021 0.475723 0.129023
H15   H     H_    0.390120 0.932683 0.475692 0.128711
H16   H     H_    0.609880 0.067313 0.524301 0.128702
N1    N     N_R   0.500000 0.683620 0.500000 -0.164884
N2    N     N_R   0.500000 0.316380 0.500000 -0.164894
O1    O     O_R   0.400190 0.561980 0.499990 -0.580969
O2    O     O_R   0.599810 0.438020 0.500010 -0.580982
O3    O     O_R   0.599810 0.561980 0.500010 -0.575576
O4    O     O_R   0.400190 0.438020 0.499990 -0.575603
O5    O     O_R   0.500000 0.561970 0.376060 -0.563677
O6    O     O_R   0.500000 0.438030 0.623940 -0.563658
O7    O     O_R   0.500000 0.561970 0.623940 -0.563380
O8    O     O_R   0.500000 0.438030 0.376060 -0.563378
C45   C     C_3   0.706228 0.432829 0.343811 -0.852135
H17   H     H_    0.675819 0.384561 0.367549 0.249382
H18   H     H_    0.671112 0.473904 0.311563 0.222580
H19   H     H_    0.742487 0.413614 0.289359 0.225167
C46   C     C_3   0.293757 0.566963 0.656302 -0.852245
H20   H     H_    0.324169 0.615254 0.632643 0.249353
H21   H     H_    0.257493 0.586126 0.710776 0.225200
H22   H     H_    0.328872 0.525859 0.688492 0.222592
C47   C     C_3   0.292061 0.433414 0.343456 -0.870318
H23   H     H_    0.327512 0.474391 0.311788 0.220481
H24   H     H_    0.321907 0.384698 0.366683 0.236908
H25   H     H_    0.255264 0.414986 0.288703 0.227748
C48   C     C_3   0.707976 0.566854 0.656341 -0.870218
H26   H     H_    0.672476 0.525971 0.688102 0.220480
H27   H     H_    0.744781 0.585328 0.711061 0.227704
H28   H     H_    0.678191 0.615569 0.632977 0.236931
C49   C     C_3   0.925183 0.623289 0.413395 -0.852709
H29   H     H_    0.938872 0.627160 0.338531 0.231906
H30   H     H_    0.868376 0.618296 0.416380 0.239603
H31   H     H_    0.938834 0.675451 0.449389 0.231312
C50   C     C_3   0.074823 0.376624 0.586552 -0.852715
H32   H     H_    0.061187 0.372783 0.661435 0.231892
H33   H     H_    0.061122 0.324457 0.550603 0.231327
H34   H     H_    0.131631 0.381581 0.583481 0.239595
C51   C     C_3   0.078388 0.621515 0.415551 -0.842167
H35   H     H_    0.047268 0.666163 0.384368 0.234192
H36   H     H_    0.111708 0.647241 0.469578 0.231924
H37   H     H_    0.111457 0.599280 0.359313 0.232046
C52   C     C_3   0.921617 0.378439 0.584492 -0.842179
H38   H     H_    0.952736 0.333825 0.615752 0.234195
H39   H     H_    0.888530 0.400711 0.640687 0.232051
H40   H     H_    0.888315 0.352666 0.530480 0.231907

loop_
_geom_bond_atom_site_label_1
_geom_bond_atom_site_label_2
_ccdc_geom_bond_type
C14   H10   S    
C50   H32   S    
C27   C29   T    
C15   H11   S    
C45   H17   S    
C14   C18   A    
C9    H5    S    
C10   H6    S    
C47   H25   S    
C47   H23   S    
C35   C47   S    
Cu1   Cu2   S    
C52   H38   S    
C38   C42   A    
C11   N1    A    
C34   C46   S    
C12   N2    A    
C7    C42   S    
Cu1   O7    S    
C1    O4    A    
C6    C52   S    
C9    C13   A    
C51   H36   S    
C11   C15   A    
C12   C16   A    
Cu1   O3    S    
C1    O1    A    
C37   H1    S    
Cu2   O8    S    
C38   H2    S    
C11   H7    S    
C46   H20   S    
C48   H27   S    
C50   H33   S    
C9    N1    A    
C26   O7    A    
C45   H18   S    
C4    C7    A    
C47   H24   S    
C51   H35   S    
C39   C42   A    
C46   H21   S    
C17   C24   S    
Cu1   O5    S    
C18   C23   S    
C33   C43   A    
C36   C40   A    
C19   C22   A    
C34   C44   A    
C8    C41   S    
C4    C6    A    
C3    C8    A    
C10   C14   A    
C5    C7    A    
C6    C8    A    
C19   H13   S    
C48   H26   S    
Cu1   N1    S    
C33   C37   A    
Cu2   N2    S    
C35   C39   A    
Cu2   O4    S    
C22   H16   S    
C1    C44   S    
C31   C32   T    
C20   C23   A    
C2    C43   S    
C25   O8    A    
C16   H12   S    
C49   H31   S    
C35   C44   A    
C33   C45   S    
C40   C41   A    
C39   H3    S    
C5    C51   S    
C2    O3    A    
C50   H34   S    
Cu1   O1    S    
C26   O6    A    
C45   H19   S    
C20   H14   S    
C51   H37   S    
C48   H28   S    
C46   H22   S    
C15   C17   A    
C34   C38   A    
C21   H15   S    
C16   C18   A    
C10   N2    A    
C3    C5    A    
Cu2   O2    S    
C2    O2    A    
C36   C48   S    
C25   C27   S    
C26   C28   S    
C13   C17   A    
C3    C49   S    
C28   C30   T    
C19   C24   A    
C29   C31   S    
C30   C32   S    
C40   H4    S    
C37   C41   A    
Cu2   O6    S    
C4    C50   S    
C25   O5    A    
C20   C21   A    
C52   H39   S    
C49   H30   S    
C21   C24   A    
C22   C23   A    
C36   C43   A    
C52   H40   S    
C49   H29   S    
C12   H8    S    
C13   H9    S    
