data_mof_unit_52750.cif
_audit_creation_date              2012-12-10T16:44:16-0500
_audit_creation_method            fapswitch 2.2
_symmetry_space_group_name_H-M    P1
_symmetry_Int_Tables_number       1
_space_group_crystal_system       triclinic
_cell_length_a                    7.516263
_cell_length_b                    8.765255
_cell_length_c                    13.311825
_cell_angle_alpha                 95.437906
_cell_angle_beta                  79.980308
_cell_angle_gamma                 101.82547
_cell_volume                      843.712416526

loop_
_atom_site_label
_atom_site_type_symbol
_atom_type_description
_atom_site_fract_x
_atom_site_fract_y
_atom_site_fract_z
_atom_type_partial_charge
C1    C     C_R   0.544150 0.798696 0.500923 0.832016
C2    C     C_R   0.425089 0.370412 0.960168 -0.076202
C3    C     C_R   0.484232 0.385958 0.854010 -0.076219
C4    C     C_R   0.558058 0.429250 0.026772 0.079478
C5    C     C_R   0.745863 0.478729 0.983882 0.086256
C6    C     C_R   0.800776 0.458405 0.879648 -0.362565
C7    C     C_R   0.673181 0.393157 0.816813 0.484966
C8    C     C_R   0.511122 0.451059 0.133236 -0.176624
C9    C     C_R   0.831264 0.550895 0.150901 -0.218652
C10   C     C_R   0.353047 0.385949 0.789258 -0.106486
C11   C     C_2   0.571161 0.962283 0.486023 -0.050218
C12   C     C_R   0.403021 0.459960 0.688943 0.799382
C13   C     C_2   0.429460 0.037686 0.511202 -0.038268
C14   C     C_R   0.456545 0.201269 0.497531 0.834597
C15   C     C_R   0.596604 0.508773 0.306332 0.777649
C16   C     C_R   0.879643 0.540442 0.045638 -0.177557
C17   C     C_R   0.647500 0.505028 0.195222 -0.075233
C18   C     C_R   0.173424 0.309085 0.820812 -0.313486
C19   C     C_R   0.119699 0.255567 0.918994 -0.242193
C20   C     C_R   0.241776 0.289147 0.992243 0.525671
Cu1   Cu    Cu3+1 0.321300 0.483160 0.488710 1.015882
Cu2   Cu    Cu3+1 0.678700 0.516840 0.511290 1.024397
H1    H     H_    0.937648 0.594563 0.197531 0.159631
H2    H     H_    0.943820 0.490534 0.846926 0.172866
H3    H     H_    0.022959 0.576325 0.012523 0.145501
H4    H     H_    0.369227 0.430832 0.169293 0.199898
H5    H     H_    0.075018 0.286808 0.768208 0.204922
H6    H     H_    0.980900 0.190076 0.936433 0.149260
N1    N     N_2   0.947230 0.542220 0.528320 0.173786
N2    N     N_2   0.052770 0.457780 0.471680 0.013099
O1    O     O_R   0.383920 0.714220 0.492660 -0.498794
O2    O     O_R   0.685730 0.742660 0.511730 -0.619975
O3    O     O_R   0.275440 0.478800 0.636790 -0.553112
O4    O     O_R   0.577250 0.507240 0.655860 -0.575726
O5    O     O_R   0.314270 0.257340 0.488270 -0.628609
O6    O     O_R   0.616080 0.285780 0.507340 -0.516995
O7    O     O_R   0.422750 0.492760 0.344140 -0.605908
O8    O     O_R   0.724560 0.521200 0.363210 -0.581423
N3    N     N_3   0.252267 0.962556 0.560540 -0.541119
H7    H     H_    0.220549 0.024296 0.630381 0.189189
H8    H     H_    0.154492 0.969794 0.514985 0.242527
O9    O     O_3   0.044326 0.666126 0.575803 -0.444498
C21   C     C_3   0.937329 0.712385 0.666115 -0.111309
H9    H     H_    0.868136 0.612681 0.710601 0.177174
H10   H     H_    0.840716 0.784130 0.651892 0.143320
H11   H     H_    0.030713 0.786723 0.714867 0.112671
N4    N     N_3   0.975476 0.356791 0.397754 -0.412090
H12   H     H_    0.028157 0.255194 0.395664 0.218180
H13   H     H_    0.031553 0.404831 0.327604 0.202896
O10   O     O_3   0.200895 0.225590 0.087974 -0.605459
C22   C     C_3   0.012654 0.165171 0.119921 -0.364693
H14   H     H_    0.993238 0.138867 0.201415 0.192068
H15   H     H_    0.968145 0.053401 0.076250 0.175675
H16   H     H_    0.925412 0.251285 0.114784 0.184381
O11   O     O_3   0.736325 0.326165 0.722420 -0.553330
C23   C     C_3   0.689250 0.162247 0.726006 -0.308627
H17   H     H_    0.539265 0.120423 0.725961 0.161626
H18   H     H_    0.731652 0.120821 0.793235 0.135227
H19   H     H_    0.764000 0.109160 0.656849 0.184057
N5    N     N_3   0.747741 0.037693 0.435738 -0.584986
H20   H     H_    0.847320 0.026990 0.479145 0.220717
H21   H     H_    0.776350 0.978266 0.364696 0.201392

loop_
_geom_bond_atom_site_label_1
_geom_bond_atom_site_label_2
_ccdc_geom_bond_type
C2    C4    A    
C21   H9    S    
C15   O8    A    
N1    N2    D    
Cu1   O5    S    
Cu2   N1    S    
N1    O9    S    
C11   C13   D    
Cu1   N2    S    
C19   C20   A    
C1    C11   S    
C23   H19   S    
C7    O11   S    
C4    C8    A    
C22   H16   S    
C6    H2    S    
O11   C23   S    
O10   C22   S    
C22   H14   S    
N4    H13   S    
C3    C10   A    
C13   C14   S    
N5    H21   S    
C19   H6    S    
Cu1   O1    S    
C6    C7    A    
Cu2   O2    S    
C10   C18   A    
C4    C5    A    
C10   C12   S    
C9    C17   A    
C9    C16   A    
C23   H18   S    
C9    H1    S    
C2    C3    A    
C3    C7    A    
C14   O6    A    
C5    C6    A    
Cu2   O4    S    
C21   H11   S    
C13   N3    S    
Cu1   O3    S    
O9    C21   S    
C8    H4    S    
N3    H7    S    
C12   O4    A    
C11   N5    S    
Cu2   O8    S    
N4    H12   S    
N2    N4    S    
C1    O1    A    
Cu1   O7    S    
C23   H17   S    
N3    H8    S    
C18   C19   A    
C16   H3    S    
C15   C17   S    
C15   O7    A    
C5    C16   A    
C20   O10   S    
C12   O3    A    
Cu1   Cu2   S    
C2    C20   A    
C21   H10   S    
C14   O5    A    
C1    O2    A    
Cu2   O6    S    
C18   H5    S    
C8    C17   A    
N5    H20   S    
C22   H15   S    
