data_mof_unit_43767.cif
_audit_creation_date              2012-12-10T18:10:45-0500
_audit_creation_method            fapswitch 2.2
_symmetry_space_group_name_H-M    P1
_symmetry_Int_Tables_number       1
_space_group_crystal_system       triclinic
_cell_length_a                    12.630345
_cell_length_b                    13.016982
_cell_length_c                    15.739642
_cell_angle_alpha                 89.750836
_cell_angle_beta                  103.128864
_cell_angle_gamma                 81.600682
_cell_volume                      2491.17670643

loop_
_atom_site_label
_atom_site_type_symbol
_atom_type_description
_atom_site_fract_x
_atom_site_fract_y
_atom_site_fract_z
_atom_type_partial_charge
C1    C     C_R   0.438166 0.691813 0.491202 0.878190
C2    C     C_3   0.396715 0.579457 0.030047 0.195919
C3    C     C_3   0.494357 0.499257 0.081902 0.270507
C4    C     C_3   0.477167 0.390095 0.043886 -0.045909
C5    C     C_3   0.489868 0.388969 0.948403 -0.405554
C6    C     C_1   0.494054 0.499407 0.173492 -0.023145
C7    C     C_1   0.503260 0.499701 0.826033 -0.074839
C8    C     C_1   0.503906 0.499808 0.750825 -0.195970
C9    C     C_R   0.665472 0.076461 0.661360 -0.202944
C10   C     C_R   0.598495 0.200501 0.539555 -0.046477
C11   C     C_R   0.305825 0.841315 0.416082 -0.320318
C12   C     C_R   0.501350 0.499838 0.661474 0.884871
C13   C     C_R   0.281746 0.947961 0.393446 0.512894
C14   C     C_R   0.355909 0.013286 0.432188 -0.231007
C15   C     C_R   0.452040 0.973983 0.495672 -0.007266
C16   C     C_R   0.462875 0.871885 0.529409 0.104722
C17   C     C_R   0.533806 0.035166 0.531428 0.060512
C18   C     C_R   0.602250 0.006205 0.615498 0.158667
C19   C     C_R   0.603253 0.909208 0.653860 -0.257004
C20   C     C_R   0.537158 0.841076 0.609751 -0.212511
C21   C     C_R   0.549045 0.125267 0.488211 0.101006
C22   C     C_R   0.656598 0.176010 0.625919 -0.278291
C23   C     C_R   0.561458 0.308655 0.512781 0.867841
C24   C     C_R   0.398173 0.803032 0.482201 -0.157824
C25   C     C_R   0.108948 0.312478 0.425609 -0.288975
C26   C     C_R   0.783053 0.654987 0.566667 0.028931
C27   C     C_R   0.873706 0.701270 0.561293 -0.249537
C28   C     C_R   0.958860 0.644914 0.531196 -0.182985
C29   C     C_R   0.957385 0.539081 0.513405 -0.001459
C30   C     C_R   0.866688 0.493319 0.526654 0.183427
C31   C     C_R   0.042518 0.476632 0.483941 -0.010089
C32   C     C_R   0.029417 0.373489 0.460027 0.133665
C33   C     C_R   0.944934 0.328271 0.481489 -0.268221
C34   C     C_R   0.498737 0.499795 0.338543 0.907905
C35   C     C_R   0.874780 0.384599 0.527350 0.155250
C36   C     C_R   0.143289 0.509606 0.482293 -0.045170
C37   C     C_R   0.205413 0.350330 0.423505 0.028540
C38   C     C_3   0.404226 0.584962 0.932533 -0.044799
C39   C     C_3   0.608740 0.527508 0.971866 -0.489812
C40   C     C_3   0.603507 0.532471 0.068756 -0.360864
C41   C     C_1   0.495636 0.499525 0.249099 -0.179063
C42   C     C_3   0.499208 0.499899 0.916781 0.264592
H1    H     H_    0.317995 0.553649 0.035455 0.101461
H2    H     H_    0.691310 0.234847 0.667075 0.153195
H3    H     H_    0.655978 0.885591 0.717460 0.143687
H4    H     H_    0.713916 0.057469 0.727186 0.142824
H5    H     H_    0.254786 0.788219 0.380657 0.154653
H6    H     H_    0.336374 0.095172 0.413654 0.152126
H7    H     H_    0.431186 0.660993 0.922007 0.157603
H8    H     H_    0.540748 0.765848 0.640825 0.147464
H9    H     H_    0.270245 0.301324 0.401943 0.130058
H10   H     H_    0.945911 0.245042 0.476535 0.157623
H11   H     H_    0.099873 0.233926 0.405994 0.170033
H12   H     H_    0.164393 0.582377 0.508079 0.123740
H13   H     H_    0.715854 0.701265 0.586682 0.154766
H14   H     H_    0.024230 0.685754 0.522392 0.137403
H15   H     H_    0.875699 0.781976 0.576972 0.152782
H16   H     H_    0.679141 0.468450 0.964793 0.188050
H17   H     H_    0.624568 0.603666 0.948961 0.178684
H18   H     H_    0.608303 0.613433 0.090008 0.215957
H19   H     H_    0.677230 0.484713 0.109619 0.176685
H20   H     H_    0.420479 0.357052 0.906291 0.163399
H21   H     H_    0.564381 0.334720 0.942701 0.185896
H22   H     H_    0.389559 0.382428 0.040353 0.099822
N1    N     N_R   0.222200 0.444690 0.455710 -0.103416
N2    N     N_R   0.776960 0.554780 0.543830 -0.139611
O1    O     O_R   0.366740 0.627160 0.478850 -0.616353
O2    O     O_R   0.544830 0.662520 0.507140 -0.619071
O3    O     O_R   0.410920 0.482310 0.608710 -0.600392
O4    O     O_R   0.589010 0.517670 0.637000 -0.633152
O5    O     O_R   0.455170 0.337480 0.492860 -0.618491
O6    O     O_R   0.633260 0.372840 0.521150 -0.640741
O7    O     O_R   0.410990 0.482330 0.363000 -0.612480
O8    O     O_R   0.589080 0.517690 0.391290 -0.595894
Zn1   Zn    Zn3+2 0.381090 0.476390 0.481110 0.940071
Zn2   Zn    Zn3+2 0.618910 0.523610 0.518890 0.925950
O9    O     O_3   0.400224 0.678099 0.066014 -0.777040
H23   H     H_    0.328004 0.720922 0.040741 0.331544
C43   C     C_3   0.290259 0.593915 0.867142 -0.442667
C44   C     C_3   0.236662 0.495437 0.855553 -0.851652
H24   H     H_    0.275131 0.441829 0.812785 0.262559
H25   H     H_    0.241346 0.456045 0.919127 0.241828
H26   H     H_    0.148478 0.516456 0.822397 0.248560
H27   H     H_    0.232887 0.655800 0.888943 0.202340
H28   H     H_    0.297774 0.620946 0.801953 0.218743
C45   C     C_3   0.540399 0.291529 0.099379 -0.383171
C46   C     C_3   0.665453 0.283976 0.126391 -0.848254
H29   H     H_    0.700326 0.304366 0.071063 0.256928
H30   H     H_    0.689224 0.334389 0.182018 0.254059
H31   H     H_    0.701799 0.202927 0.149201 0.244579
H32   H     H_    0.508886 0.285922 0.159432 0.201748
H33   H     H_    0.520533 0.222037 0.061650 0.207116
C47   C     C_3   0.523738 0.138682 0.388806 -0.451017
C48   C     C_3   0.625238 0.156680 0.356372 -0.868564
H34   H     H_    0.649786 0.233120 0.376099 0.253385
H35   H     H_    0.695075 0.094132 0.382754 0.268220
H36   H     H_    0.606491 0.155804 0.283999 0.253713
H37   H     H_    0.497696 0.067846 0.356868 0.231342
H38   H     H_    0.456697 0.204771 0.365843 0.209561
O10   O     O_3   0.189698 0.989733 0.331136 -0.783327
H39   H     H_    0.146010 0.933625 0.310203 0.327859
C49   C     C_3   0.851179 0.328057 0.603217 -0.373355
C50   C     C_3   0.955341 0.298328 0.675349 -0.916906
H40   H     H_    0.017097 0.243449 0.651424 0.271755
H41   H     H_    0.991644 0.368810 0.698532 0.265862
H42   H     H_    0.934528 0.259848 0.731224 0.251140
H43   H     H_    0.791569 0.377703 0.633334 0.239915
H44   H     H_    0.818895 0.256021 0.579854 0.221457

loop_
_geom_bond_atom_site_label_1
_geom_bond_atom_site_label_2
_ccdc_geom_bond_type
C12   O3    A    
C47   C48   S    
C40   H18   S    
C11   H5    S    
C19   C20   A    
O6    Zn2   S    
C3    C6    S    
C26   H13   S    
C28   H14   S    
C7    C8    T    
C38   H7    S    
O9    H23   S    
C10   C22   A    
C33   H10   S    
C26   C27   A    
O8    Zn2   S    
C30   C35   A    
C28   C29   A    
C25   H11   S    
C38   C42   S    
C45   H32   S    
C43   H27   S    
C37   H9    S    
C9    C22   A    
C4    C45   S    
C38   C43   S    
C15   C16   A    
C11   C24   A    
C1    O2    A    
C5    H21   S    
C18   C19   A    
C7    C42   S    
C20   H8    S    
C25   C37   A    
C22   H2    S    
C6    C41   T    
C37   N1    A    
C49   H44   S    
C47   H38   S    
C16   C20   A    
C35   C49   S    
C25   C32   A    
C39   H17   S    
C9    H4    S    
C16   C24   A    
C13   C14   A    
O7    Zn1   S    
C49   C50   S    
C34   C41   S    
C44   H26   S    
C39   C42   S    
C10   C21   A    
C26   N2    A    
C23   O5    A    
C44   H25   S    
C27   H15   S    
C39   C40   S    
C36   N1    A    
C44   H24   S    
C14   H6    S    
C48   H36   S    
C39   H16   S    
C17   C21   A    
C40   H19   S    
C46   H29   S    
C29   C30   A    
C2    C38   S    
C31   C32   A    
C14   C15   A    
C2    H1    S    
C8    C12   S    
N2    Zn2   S    
C17   C18   A    
C49   H43   S    
C50   H41   S    
C48   H35   S    
C30   N2    A    
C34   O8    A    
C3    C40   S    
C46   H30   S    
O4    Zn2   S    
O1    Zn1   S    
C3    C4    S    
C43   H28   S    
C5    C42   S    
C15   C17   A    
C12   O4    A    
C45   C46   S    
C23   O6    A    
C4    C5    S    
C19   H3    S    
C10   C23   S    
O2    Zn2   S    
C4    H22   S    
N1    Zn1   S    
C32   C33   A    
C13   O10   S    
C2    C3    S    
C29   C31   A    
C2    O9    S    
C45   H33   S    
O5    Zn1   S    
C11   C13   A    
C33   C35   A    
C21   C47   S    
O10   H39   S    
C1    O1    A    
C5    H20   S    
O3    Zn1   S    
C50   H42   S    
C48   H34   S    
C36   H12   S    
C34   O7    A    
C43   C44   S    
C9    C18   A    
C1    C24   S    
C46   H31   S    
C50   H40   S    
C31   C36   A    
C47   H37   S    
C27   C28   A    
