data_mof_unit_43693.cif
_audit_creation_date              2012-12-10T20:34:48-0500
_audit_creation_method            fapswitch 2.2
_symmetry_space_group_name_H-M    P1
_symmetry_Int_Tables_number       1
_space_group_crystal_system       triclinic
_cell_length_a                    10.694404
_cell_length_b                    10.710652
_cell_length_c                    9.93605
_cell_angle_alpha                 89.766212
_cell_angle_beta                  89.963524
_cell_angle_gamma                 91.482076
_cell_volume                      1137.72478041

loop_
_atom_site_label
_atom_site_type_symbol
_atom_type_description
_atom_site_fract_x
_atom_site_fract_y
_atom_site_fract_z
_atom_type_partial_charge
C1    C     C_R   0.503267 0.260553 0.499925 0.909678
C2    C     C_3   0.878034 0.492219 0.501089 0.006891
C3    C     C_3   0.932842 0.625402 0.541756 -0.074455
C4    C     C_3   0.927700 0.469441 0.353886 -0.256842
C5    C     C_R   0.546569 0.062494 0.610894 0.105755
C6    C     C_R   0.514132 0.129029 0.496600 -0.110078
C7    C     C_R   0.489910 0.066614 0.375549 -0.231163
C8    C     C_R   0.471312 0.938525 0.375254 -0.051479
C9    C     C_R   0.494403 0.872091 0.496174 -0.171087
C10   C     C_R   0.538889 0.935042 0.609869 0.072262
C11   C     C_3   0.492016 0.929317 0.751879 -0.367986
C12   C     C_R   0.257985 0.497755 0.499967 0.873332
C13   C     C_3   0.500951 0.070789 0.752581 -0.424127
C14   C     C_R   0.419662 0.422474 0.071316 0.140883
C15   C     C_R   0.591239 0.563578 0.068696 0.038844
C16   C     C_R   0.590791 0.561044 0.925596 -0.093238
C17   C     C_R   0.415117 0.429510 0.929854 0.123685
C18   C     C_3   0.275784 0.438626 0.929029 -0.294535
C19   C     C_3   0.280108 0.418174 0.080612 -0.322510
C20   C     C_R   0.493984 0.739417 0.499285 0.921442
C21   C     C_R   0.741737 0.495654 0.500146 0.838041
C22   C     C_3   0.071225 0.390114 0.599792 -0.200905
C23   C     C_3   0.926245 0.383273 0.593789 -0.133887
C24   C     C_3   0.076198 0.621812 0.549507 -0.396105
C25   C     C_3   0.070383 0.470712 0.356198 -0.415507
C26   C     C_3   0.121403 0.493454 0.500589 -0.014762
H1    H     H_    0.099706 0.421262 0.701616 0.148737
H2    H     H_    0.901298 0.551577 0.292252 0.170121
H3    H     H_    0.117781 0.698148 0.485911 0.186095
H4    H     H_    0.910504 0.691881 0.458961 0.165751
H5    H     H_    0.472456 0.117874 0.283794 0.239205
H6    H     H_    0.394324 0.891709 0.759468 0.243979
H7    H     H_    0.559814 0.885203 0.821014 0.217941
H8    H     H_    0.408468 0.115187 0.760871 0.250772
H9    H     H_    0.574280 0.108535 0.821643 0.214032
H10   H     H_    0.661117 0.612988 0.868530 0.160006
H11   H     H_    0.230143 0.361447 0.871917 0.190854
H12   H     H_    0.243668 0.496186 0.140147 0.157525
H13   H     H_    0.896184 0.294399 0.545767 0.205658
H14   H     H_    0.108619 0.639784 0.653884 0.218875
H15   H     H_    0.104171 0.547907 0.289242 0.187192
H16   H     H_    0.106400 0.382640 0.316890 0.244614
N1    N     N_R   0.499150 0.499140 0.142800 -0.142212
N2    N     N_R   0.499150 0.499180 0.857150 -0.094153
O1    O     O_R   0.500020 0.316790 0.614690 -0.615349
O2    O     O_R   0.500000 0.316760 0.385350 -0.602860
O3    O     O_R   0.314800 0.500000 0.614670 -0.613345
O4    O     O_R   0.314790 0.499960 0.385330 -0.621308
O5    O     O_R   0.500000 0.683240 0.614650 -0.610509
O6    O     O_R   0.499980 0.683210 0.385310 -0.557394
O7    O     O_R   0.685210 0.500040 0.614670 -0.608520
O8    O     O_R   0.685200 0.500000 0.385330 -0.615080
Zn1   Zn    Zn3+2 0.500010 0.500020 0.653130 0.996563
Zn2   Zn    Zn3+2 0.499990 0.499980 0.346870 1.027415
C27   C     C_2   0.414106 0.881917 0.252616 1.006220
O9    O     O_2   0.452216 0.913393 0.141105 -0.618235
O10   O     O_R   0.313358 0.796576 0.264528 -0.816713
H17   H     H_    0.282760 0.764625 0.174114 0.342414
C28   C     C_2   0.694915 0.638492 0.129194 0.942222
O11   O     O_2   0.677846 0.705087 0.226003 -0.614394
O12   O     O_R   0.812192 0.640897 0.066396 -0.807131
H18   H     H_    0.874371 0.700507 0.111144 0.338234
C29   C     C_2   0.128582 0.262742 0.580567 0.890765
O13   O     O_2   0.187458 0.216187 0.672577 -0.659750
O14   O     O_R   0.114666 0.198095 0.459552 -0.750750
H19   H     H_    0.158737 0.115402 0.460052 0.357987
C30   C     C_2   0.224654 0.565900 0.897038 0.910453
O15   O     O_2   0.292083 0.650321 0.852513 -0.617189
O16   O     O_R   0.098528 0.586999 0.923024 -0.806422
H20   H     H_    0.074422 0.675879 0.901964 0.345538
C31   C     C_2   0.226357 0.291579 0.119766 0.958279
O17   O     O_2   0.286751 0.220175 0.188543 -0.622327
O18   O     O_R   0.105066 0.257636 0.079264 -0.770434
H21   H     H_    0.078541 0.171092 0.111740 0.362622
N3    N     N_3   0.869664 0.379521 0.729178 -0.420543
H22   H     H_    0.922898 0.429620 0.799507 0.250942
H23   H     H_    0.867862 0.287034 0.763611 0.207445
N4    N     N_3   0.881552 0.680056 0.664723 -0.438912
H24   H     H_    0.878456 0.616427 0.743763 0.249455
H25   H     H_    0.790933 0.710363 0.646503 0.198081
C32   C     C_2   0.874264 0.355788 0.278602 0.998227
O19   O     O_2   0.812247 0.371614 0.176851 -0.594302
O20   O     O_R   0.898568 0.234223 0.320528 -0.786223
H26   H     H_    0.857785 0.168494 0.260629 0.347690

loop_
_geom_bond_atom_site_label_1
_geom_bond_atom_site_label_2
_ccdc_geom_bond_type
C27   O9    D    
C29   O14   S    
O18   H21   S    
C19   C31   S    
C12   O4    A    
C4    C25   S    
C7    C8    A    
O4    Zn2   S    
O6    Zn2   S    
C18   H11   S    
C24   C26   S    
C13   H9    S    
C5    C6    A    
N4    H25   S    
C1    O2    A    
C15   C16   A    
C18   C19   S    
C24   H3    S    
C20   O6    A    
C9    C20   S    
C32   O20   S    
C22   C29   S    
N2    Zn1   S    
C4    C32   S    
C8    C9    A    
C9    C10   A    
C16   N2    A    
C5    C13   S    
O3    Zn1   S    
O1    Zn1   S    
C28   O11   D    
C14   C17   A    
C3    C24   S    
O16   H20   S    
C12   O3    A    
C8    C27   S    
C4    H2    S    
O8    Zn2   S    
C32   O19   D    
C28   O12   S    
C7    H5    S    
C30   O15   D    
C11   H7    S    
C25   H15   S    
C31   O18   S    
N4    H24   S    
C18   C30   S    
C1    C6    S    
C12   C26   S    
O7    Zn1   S    
C3    H4    S    
C2    C4    S    
N3    H22   S    
C20   O5    A    
C19   H12   S    
N1    Zn2   S    
O20   H26   S    
O2    Zn2   S    
C2    C21   S    
C17   C18   S    
N3    H23   S    
C11   H6    S    
C22   H1    S    
C27   O10   S    
C21   O7    A    
C15   C28   S    
C14   C19   S    
C23   N3    S    
C25   H16   S    
C6    C7    A    
C2    C3    S    
C25   C26   S    
C17   N2    A    
C15   N1    A    
C13   H8    S    
C16   H10   S    
C11   C13   S    
C1    O1    A    
O10   H17   S    
C23   H13   S    
C24   H14   S    
O12   H18   S    
O5    Zn1   S    
C10   C11   S    
C29   O13   D    
C5    C10   A    
C31   O17   D    
O14   H19   S    
C22   C26   S    
C2    C23   S    
C22   C23   S    
C30   O16   S    
C3    N4    S    
C21   O8    A    
C14   N1    A    
