data_mof_unit_16818.cif
_audit_creation_date              2013-03-05T16:18:42-0500
_audit_creation_method            fapswitch 2.2
_symmetry_space_group_name_H-M    P1
_symmetry_Int_Tables_number       1
_space_group_crystal_system       triclinic
_cell_length_a                    15.730845
_cell_length_b                    10.631797
_cell_length_c                    9.701724
_cell_angle_alpha                 89.959143
_cell_angle_beta                  90.080539
_cell_angle_gamma                 89.959622
_cell_volume                      1622.58327602

loop_
_atom_site_label
_atom_site_type_symbol
_atom_site_description
_atom_site_fract_x
_atom_site_fract_y
_atom_site_fract_z
_atom_type_partial_charge
O1    O     O_R   0.499980 0.314910 0.616040 -0.634414
O2    O     O_R   0.500040 0.314680 0.383960 -0.637814
C1    C     C_R   0.500188 0.257483 0.499796 0.837107
O3    O     O_R   0.376750 0.500100 0.616020 -0.607047
O4    O     O_R   0.376810 0.499870 0.383940 -0.624379
C2    C     C_R   0.337821 0.500077 0.499883 0.908475
Zn1   Zn    Zn3+2 0.499960 0.500150 0.654960 0.911411
Zn2   Zn    Zn3+2 0.500040 0.499850 0.345040 0.903743
O5    O     O_R   0.499960 0.685320 0.616040 -0.636307
O6    O     O_R   0.500020 0.685090 0.383960 -0.635344
O7    O     O_R   0.623190 0.500130 0.616060 -0.621155
O8    O     O_R   0.623250 0.499900 0.383980 -0.623665
C3    C     C_R   0.500136 0.742501 0.499645 0.835157
C4    C     C_R   0.662190 0.500105 0.500148 0.913708
C5    C     C_3   0.971398 0.396161 0.567831 -0.234210
C6    C     C_3   0.028041 0.396979 0.436877 -0.212568
H1    H     H_    0.052965 0.312731 0.382761 0.158697
H2    H     H_    0.946800 0.312075 0.622684 0.156073
H3    H     H_    0.946625 0.501084 0.264433 0.164245
C7    C     C_1   0.248976 0.500212 0.499869 -0.173991
C8    C     C_1   0.751054 0.500230 0.500570 -0.210341
C9    C     C_3   0.026984 0.500039 0.630239 0.380050
C10   C     C_3   0.082901 0.500407 0.502499 0.095028
C11   C     C_3   0.971291 0.604268 0.568383 -0.234277
C12   C     C_3   0.917098 0.500398 0.502377 0.147051
C13   C     C_3   0.027942 0.604207 0.437426 -0.213393
C14   C     C_3   0.971704 0.500778 0.371455 -0.107768
C15   C     C_1   0.173730 0.500327 0.500759 0.010684
C16   C     C_1   0.826314 0.500330 0.501298 -0.042945
H4    H     H_    0.052788 0.688768 0.383766 0.158351
H5    H     H_    0.946606 0.688030 0.623688 0.155972
C17   C     C_3   0.580003 0.072008 0.575828 -0.402948
H6    H     H_    0.580541 0.106345 0.684238 0.170434
H7    H     H_    0.638752 0.107380 0.525049 0.157346
C18   C     C_3   0.580049 0.927624 0.575537 -0.402673
H8    H     H_    0.638752 0.892449 0.524406 0.156847
H9    H     H_    0.580789 0.892830 0.683823 0.171877
H10   H     H_    0.416298 0.106784 0.679512 0.172823
H11   H     H_    0.416375 0.893148 0.679486 0.172851
C19   C     C_3   0.419057 0.072223 0.571283 -0.399684
C20   C     C_3   0.501807 0.071467 0.348152 -0.398957
C21   C     C_3   0.500267 0.121169 0.498838 0.186842
H12   H     H_    0.445247 0.106050 0.290101 0.170322
H13   H     H_    0.559663 0.105712 0.293694 0.168228
C22   C     C_3   0.500230 0.878788 0.498627 0.186863
C23   C     C_3   0.419061 0.927836 0.571254 -0.399517
C24   C     C_3   0.501646 0.928656 0.348035 -0.396238
H14   H     H_    0.559304 0.894061 0.293234 0.169769
H15   H     H_    0.444886 0.894579 0.290287 0.169834
H16   H     H_    0.361364 0.107571 0.517020 0.159554
H17   H     H_    0.361318 0.892691 0.517122 0.158961
C25   C     C_3   0.483151 0.371387 0.082424 -0.230650
H18   H     H_    0.421422 0.334650 0.121131 0.150114
H19   H     H_    0.533038 0.306069 0.121116 0.144551
C26   C     C_3   0.483432 0.369617 0.919938 -0.238490
H20   H     H_    0.533272 0.303385 0.883235 0.143186
H21   H     H_    0.421717 0.332524 0.881338 0.154473
H22   H     H_    0.367670 0.552390 0.117759 0.166476
H23   H     H_    0.368168 0.549934 0.879503 0.180188
C27   C     C_3   0.431134 0.582645 0.079893 -0.233578
C28   C     C_3   0.580592 0.543642 0.081201 -0.229347
N1    N     N_3   0.498170 0.499750 0.138610 -0.036704
H24   H     H_    0.594347 0.640384 0.118756 0.143193
H25   H     H_    0.633013 0.482846 0.119860 0.157927
N2    N     N_3   0.498850 0.496730 0.861320 -0.039577
C29   C     C_3   0.431537 0.580868 0.917352 -0.223208
C30   C     C_3   0.580997 0.541813 0.918892 -0.229296
H26   H     H_    0.633576 0.480215 0.882662 0.158189
H27   H     H_    0.594927 0.637721 0.878930 0.145225
H28   H     H_    0.440364 0.680632 0.117103 0.141137
H29   H     H_    0.440833 0.678105 0.877815 0.142891
N3    N     N_R   0.056363 0.499647 0.772799 0.200745
O9    O     O_R   0.001263 0.499314 0.872575 -0.412412
O10   O     O_R   0.137147 0.499697 0.801408 -0.413703

loop_
_geom_bond_atom_site_label_1
_geom_bond_atom_site_label_2
_geom_bond_distance
_ccdc_geom_bond_type
C5    H2    1.110192 S    
H10   C19   1.113583 S    
C26   H20   1.112521 S    
C1    C21   1.449307 S    
C20   C21   1.555048 S    
C18   H8    1.113441 S    
C24   H15   1.114335 S    
C22   C23   1.549478 S    
C19   C23   1.535090 S    
C13   C14   1.549923 S    
C4    C8    1.397908 S    
C18   H9    1.113587 S    
C11   C13   1.552922 S    
H23   C29   1.111891 S    
O4    C2    1.281948 A    
O7    C4    1.281768 A    
C5    C12   1.535308 S    
H22   C27   1.111948 S    
C5    C6    1.552846 S    
C27   N1    1.486457 S    
C10   C13   1.536241 S    
C28   H24   1.112694 S    
O5    C3    1.282106 A    
C5    C9    1.533540 S    
C24   H14   1.114341 S    
C6    H1    1.110152 S    
N2    C30   1.486891 S    
H3    C14   1.110214 S    
C25   C26   1.576533 S    
C6    C14   1.549885 S    
C19   C21   1.549099 S    
C27   C29   1.577082 S    
C20   H12   1.114375 S    
O3    Zn1   1.974153 S    
C9    N3    1.457642 S    
C26   N2    1.486058 S    
C25   H19   1.112238 S    
C22   C24   1.554060 S    
C12   C16   1.428141 S    
C30   H26   1.112178 S    
C17   C18   1.535072 S    
C11   C12   1.535307 S    
N3    O10   1.300374 A    
C7    C15   1.183734 T    
C8    C16   1.183906 T    
C23   H17   1.113530 S    
O1    C1    1.282821 A    
C17   H7    1.113440 S    
C28   H25   1.111985 S    
Zn1   O7    1.975428 S    
Zn1   N2    2.002452 S    
C28   C30   1.574831 S    
C29   H29   1.112240 S    
C27   H28   1.112347 S    
Zn2   O8    1.974153 S    
C20   C24   1.518343 S    
C10   C15   1.428942 S    
H11   C23   1.113533 S    
O3    C2    1.281640 A    
O8    C4    1.281990 A    
C13   H4    1.110149 S    
C6    C10   1.536240 S    
C26   H21   1.112655 S    
C20   H13   1.114257 S    
C9    C11   1.533574 S    
C18   C22   1.549754 S    
C25   H18   1.112593 S    
Zn1   O5    2.004309 S    
O1    Zn1   2.005569 S    
O2    Zn2   2.004310 S    
N3    O9    1.300266 A    
O6    C3    1.277966 A    
O4    Zn2   1.975428 S    
C12   C14   1.534368 S    
C2    C7    1.397599 S    
C17   H6    1.113582 S    
O2    C1    1.277400 A    
C11   H5    1.110193 S    
C25   N1    1.488822 S    
C3    C22   1.449003 S    
C19   H16   1.113530 S    
C28   N1    1.487140 S    
Zn2   O6    2.005569 S    
N2    C29   1.489273 S    
C17   C21   1.549288 S    
C9    C10   1.520741 S    
C30   H27   1.112673 S    
Zn2   N1    2.002903 S    
