data_mof_unit_58499.cif
_audit_creation_date              2012-12-11T16:29:25-0500
_audit_creation_method            fapswitch 2.2
_symmetry_space_group_name_H-M    P1
_symmetry_Int_Tables_number       1
_space_group_crystal_system       triclinic
_cell_length_a                    6.952966
_cell_length_b                    17.080464
_cell_length_c                    19.049755
_cell_angle_alpha                 106.082183
_cell_angle_beta                  89.553429
_cell_angle_gamma                 90.44222
_cell_volume                      2173.70814938

loop_
_atom_site_label
_atom_site_type_symbol
_atom_type_description
_atom_site_fract_x
_atom_site_fract_y
_atom_site_fract_z
_atom_type_partial_charge
O1    O     O_R   0.494360 0.415680 0.413760 -0.535007
O2    O     O_R   0.818810 0.432910 0.557230 -0.530220
O3    O     O_R   0.994290 0.584320 0.586240 -0.534496
C1    C     C_R   0.650047 0.418027 0.582337 0.726284
O4    O     O_R   0.823740 0.406440 0.412520 -0.535412
O5    O     O_R   0.999250 0.557660 0.440500 -0.522080
C2    C     C_R   0.655622 0.381640 0.385767 0.740491
O6    O     O_R   0.489400 0.442340 0.559500 -0.519925
O7    O     O_3   0.662500 0.549650 0.509350 -0.360171
V1    V     V_3+5 0.935340 0.490790 0.498270 1.394853
O8    O     O_R   0.329270 0.567090 0.442770 -0.532924
C3    C     C_R   0.161602 0.582238 0.417874 0.716808
O9    O     O_R   0.324340 0.593560 0.587480 -0.533832
C4    C     C_R   0.155057 0.620465 0.611974 0.717819
V2    V     V_3+5 0.435970 0.509210 0.501730 1.396265
O10   O     O_3   0.158940 0.450350 0.490650 -0.358784
C5    C     C_R   0.075252 0.585739 0.744530 -0.160488
C6    C     C_R   0.044076 0.561130 0.807067 0.159053
C7    C     C_R   0.046066 0.618715 0.874209 -0.088652
C8    C     C_R   0.076295 0.701634 0.880227 0.114273
C9    C     C_R   0.098406 0.729792 0.815605 0.043081
C10   C     C_R   0.103791 0.668922 0.746686 0.000746
C11   C     C_R   0.117521 0.814261 0.816617 -0.142535
C12   C     C_R   0.152323 0.835866 0.749938 0.016441
C13   C     C_R   0.179056 0.773426 0.682224 -0.008592
C14   C     C_R   0.144372 0.689583 0.680667 -0.133638
C15   C     C_R   0.165024 0.919467 0.748313 0.093157
C16   C     C_R   0.262512 0.938793 0.691411 -0.156123
C17   C     C_R   0.305877 0.879367 0.627804 0.189653
C18   C     C_R   0.237998 0.798973 0.618940 0.139322
C19   C     C_1   0.110924 0.865934 0.134352 -0.209752
C20   C     C_1   0.118514 0.822926 0.177536 -0.005653
C21   C     C_1   0.128260 0.771894 0.228730 -0.008171
C22   C     C_1   0.136639 0.728820 0.271858 -0.007094
C23   C     C_1   0.146406 0.677677 0.322960 -0.003288
C24   C     C_1   0.154035 0.634501 0.366002 -0.209769
C25   C     C_1   0.641210 0.365862 0.634224 -0.216407
C26   C     C_1   0.636807 0.322839 0.677422 -0.011800
C27   C     C_1   0.633481 0.272144 0.728915 -0.001952
C28   C     C_1   0.631054 0.229479 0.772432 -0.004951
C29   C     C_1   0.627767 0.178917 0.824047 -0.005797
C30   C     C_1   0.623661 0.136179 0.867490 -0.216426
C31   C     C_R   0.603468 0.411685 0.240419 0.141278
C32   C     C_R   0.534236 0.424114 0.175372 -0.100234
C33   C     C_R   0.487578 0.359213 0.116486 -0.163724
C34   C     C_R   0.515166 0.280369 0.120091 -0.148487
C35   C     C_R   0.577552 0.263840 0.185114 0.034395
C36   C     C_R   0.609011 0.330126 0.249019 0.051352
C37   C     C_R   0.612376 0.182279 0.185395 -0.148353
C38   C     C_R   0.659300 0.163931 0.251581 0.023612
C39   C     C_R   0.681513 0.228831 0.317865 -0.012140
C40   C     C_R   0.649027 0.312498 0.317013 -0.156488
C41   C     C_R   0.682153 0.081376 0.254447 0.100592
C42   C     C_R   0.782335 0.066107 0.311961 -0.157592
C43   C     C_R   0.817528 0.127913 0.374830 0.185220
C44   C     C_R   0.738272 0.205739 0.382071 0.141467
H1    H     H_    0.437642 0.370117 0.066337 0.125002
H2    H     H_    0.485563 0.232588 0.070743 0.112593
O11   O     O_R   0.775690 0.057750 0.940570 -0.521512
O12   O     O_R   0.441200 0.093570 0.087490 -0.539963
O13   O     O_R   0.265840 0.942320 0.059480 -0.522459
C45   C     C_R   0.608954 0.116700 0.114845 0.721450
O14   O     O_R   0.446270 0.067110 0.942790 -0.530262
O15   O     O_R   0.270950 0.915660 0.913750 -0.532681
C46   C     C_R   0.615211 0.084170 0.919479 0.718584
O16   O     O_R   0.770580 0.084400 0.086300 -0.530844
O17   O     O_3   0.602640 0.950400 0.990690 -0.359861
V3    V     V_3+5 0.329740 0.009200 0.001730 1.392409
O18   O     O_R   0.940900 0.906360 0.912450 -0.538175
C47   C     C_R   0.109960 0.881079 0.886501 0.742871
O19   O     O_R   0.935830 0.932820 0.057160 -0.532542
C48   C     C_R   0.103436 0.917962 0.082281 0.719763
V4    V     V_3+5 0.829130 0.990680 0.998180 1.390306
O20   O     O_3   0.106100 0.049590 0.009310 -0.359169
C49   C     C_3   0.411056 0.905268 0.568077 -0.789461
H3    H     H_    0.489016 0.963877 0.590227 0.204912
H4    H     H_    0.519881 0.858945 0.541740 0.219333
H5    H     H_    0.307631 0.913626 0.526677 0.210593
C50   C     C_3   0.691243 0.486252 0.293062 -0.758774
H6    H     H_    0.597235 0.510026 0.341209 0.220513
H7    H     H_    0.837294 0.472040 0.308781 0.208775
H8    H     H_    0.711054 0.537208 0.267869 0.190738
H9    H     H_    0.522504 0.484982 0.168937 0.118639
C51   C     C_3   0.581765 0.008361 0.204350 -0.732617
H10   H     H_    0.561753 0.958648 0.231074 0.190736
H11   H     H_    0.434811 0.025025 0.191669 0.205578
H12   H     H_    0.666896 0.982620 0.154106 0.221951
H13   H     H_    0.819155 0.004000 0.310316 0.135296
C52   C     C_3   0.700685 0.256898 0.458614 -0.763288
H14   H     H_    0.678250 0.219376 0.497099 0.205121
H15   H     H_    0.827523 0.296175 0.477309 0.222556
H16   H     H_    0.563226 0.289966 0.462146 0.190094
H17   H     H_    0.078824 0.537330 0.694084 0.128296
C53   C     C_3   0.013238 0.472394 0.801372 -0.787542
H18   H     H_    0.992605 0.461705 0.855868 0.206910
H19   H     H_    0.883336 0.450042 0.768216 0.217564
H20   H     H_    0.139778 0.436846 0.774522 0.214135
H21   H     H_    0.025438 0.598169 0.922752 0.118211
C54   C     C_3   0.088588 0.754777 0.957301 -0.786966
H22   H     H_    0.089515 0.719488 0.998322 0.194713
H23   H     H_    0.225489 0.789626 0.965208 0.205022
H24   H     H_    0.959373 0.793477 0.969563 0.219662
C55   C     C_3   0.055868 0.989228 0.798815 -0.717527
H25   H     H_    0.031480 0.039278 0.773053 0.186730
H26   H     H_    0.910168 0.968440 0.809810 0.208266
H27   H     H_    0.136719 0.016392 0.849685 0.220758
H28   H     H_    0.291680 0.002132 0.694373 0.134547
C56   C     C_3   0.221121 0.745567 0.541830 -0.767051
H29   H     H_    0.217847 0.780266 0.500647 0.206488
H30   H     H_    0.347169 0.705004 0.528880 0.222992
H31   H     H_    0.080959 0.713217 0.534362 0.186507
C57   C     C_3   0.921986 0.106668 0.436301 -0.789393
H32   H     H_    0.018035 0.053549 0.414969 0.206276
H33   H     H_    0.013847 0.158505 0.466178 0.218871
H34   H     H_    0.816901 0.091059 0.474559 0.211119

loop_
_geom_bond_atom_site_label_1
_geom_bond_atom_site_label_2
_ccdc_geom_bond_type
C43   C44   A    
O14   C46   A    
C43   C57   S    
V4    O20   S    
C7    C8    A    
C51   H12   S    
C1    O6    A    
C32   H9    S    
C57   H33   S    
C35   C37   A    
C41   C42   A    
C33   H1    S    
C17   C18   A    
C41   C51   S    
O15   V3    S    
C16   C17   A    
C51   H11   S    
C2    C40   S    
C22   C23   S    
O5    C3    A    
C26   C27   S    
C16   H28   S    
C31   C50   S    
V2    O10   S    
C56   H29   S    
O12   C45   A    
C6    C7    A    
C29   C30   T    
C5    H17   S    
C34   C35   A    
O8    V2    S    
C51   H10   S    
C19   C20   T    
C30   C46   S    
C11   C12   A    
C12   C15   A    
O18   V4    S    
O17   V4    S    
O15   C47   A    
C52   H15   S    
C31   C36   A    
O11   V4    S    
O9    C4    A    
C34   H2    S    
C11   C47   S    
O18   C47   A    
C57   H32   S    
C7    H21   S    
C21   C22   T    
C38   C41   A    
C45   O16   A    
C39   C40   A    
C12   C13   A    
C27   C28   T    
C50   H7    S    
C53   H20   S    
C38   C39   A    
C13   C14   A    
C33   C34   A    
O16   V4    S    
O17   V3    S    
C23   C24   T    
O2    C1    A    
C49   H3    S    
C25   C26   T    
C35   C36   A    
C8    C9    A    
C5    C6    A    
C55   H26   S    
C4    C14   S    
C52   H16   S    
C53   H19   S    
C49   H4    S    
O3    C4    A    
O1    V2    S    
O13   C48   A    
C19   C48   S    
C54   H23   S    
O6    V2    S    
C9    C11   A    
C31   C32   A    
C6    C53   S    
C3    C24   S    
O2    V1    S    
C15   C16   A    
C32   C33   A    
O4    C2    A    
O7    V1    S    
C13   C18   A    
C44   C52   S    
C42   C43   A    
C28   C29   S    
C37   C45   S    
C18   C56   S    
O1    C2    A    
C39   C44   A    
O5    V1    S    
C50   H8    S    
O8    C3    A    
C17   C49   S    
O14   V3    S    
C5    C10   A    
C56   H31   S    
C20   C21   S    
O9    V2    S    
O7    V2    S    
O4    V1    S    
O3    V1    S    
V1    O10   S    
C54   H22   S    
O11   C46   A    
C42   H13   S    
O13   V3    S    
C8    C54   S    
C15   C55   S    
C56   H30   S    
C55   H27   S    
C53   H18   S    
C49   H5    S    
C50   H6    S    
C36   C40   A    
C54   H24   S    
O19   C48   A    
C1    C25   S    
O12   V3    S    
C37   C38   A    
C10   C14   A    
O19   V4    S    
C55   H25   S    
C52   H14   S    
C9    C10   A    
V3    O20   S    
C57   H34   S    
