data_mof_unit_45211.cif
_audit_creation_date              2012-12-11T14:08:18-0500
_audit_creation_method            fapswitch 2.2
_symmetry_space_group_name_H-M    P1
_symmetry_Int_Tables_number       1
_space_group_crystal_system       triclinic
_cell_length_a                    28.196632
_cell_length_b                    7.192246
_cell_length_c                    17.194153
_cell_angle_alpha                 90.014672
_cell_angle_beta                  101.850207
_cell_angle_gamma                 89.993069
_cell_volume                      3412.61050815

loop_
_atom_site_label
_atom_site_type_symbol
_atom_type_description
_atom_site_fract_x
_atom_site_fract_y
_atom_site_fract_z
_atom_type_partial_charge
O1    O     O_R   0.000700 0.436510 0.857920 -0.535774
O2    O     O_R   0.999300 0.563490 0.142080 -0.535593
O3    O     O_R   0.999300 0.936510 0.642080 -0.535776
O4    O     O_R   0.000700 0.063490 0.357920 -0.535567
O5    O     O_R   0.930080 0.766380 0.721890 -0.550980
O6    O     O_R   0.069920 0.233620 0.278110 -0.514766
O7    O     O_R   0.069920 0.266380 0.778110 -0.550994
O8    O     O_R   0.930080 0.733620 0.221890 -0.514772
C1    C     C_R   0.910558 0.597658 0.707996 0.730231
C2    C     C_R   0.089451 0.402113 0.291654 0.719399
C3    C     C_R   0.089435 0.097646 0.792029 0.730259
C4    C     C_R   0.910548 0.902104 0.208313 0.719461
O9    O     O_R   0.996180 0.766230 0.862310 -0.542652
O10   O     O_R   0.003820 0.233770 0.137690 -0.544630
O11   O     O_R   0.003820 0.266230 0.637690 -0.542685
O12   O     O_R   0.996180 0.733770 0.362310 -0.544595
O13   O     O_R   0.065870 0.936460 0.783500 -0.509282
O14   O     O_R   0.934130 0.063540 0.216500 -0.544719
O15   O     O_R   0.934130 0.436460 0.716500 -0.509284
O16   O     O_R   0.065870 0.563540 0.283500 -0.544708
C5    C     C_R   0.998492 0.596468 0.894496 0.767853
C6    C     C_R   0.001504 0.403539 0.105504 0.759010
C7    C     C_R   0.001508 0.096447 0.605510 0.767871
C8    C     C_R   0.998496 0.903560 0.394490 0.759309
O17   O     O_3   0.022790 0.603020 0.723980 -0.376736
O18   O     O_3   0.977210 0.396980 0.276020 -0.375520
O19   O     O_3   0.977210 0.103020 0.776020 -0.376734
O20   O     O_3   0.022790 0.896980 0.223980 -0.375585
V1    V     V_3+5 0.995770 0.877900 0.754830 1.448936
V2    V     V_3+5 0.004230 0.122100 0.245170 1.447056
V3    V     V_3+5 0.004230 0.377900 0.745170 1.448868
V4    V     V_3+5 0.995770 0.622100 0.254830 1.447014
C9    C     C_2   0.001708 0.082670 0.519570 -0.334604
C10   C     C_2   0.998305 0.917354 0.480431 -0.331371
C11   C     C_2   0.998294 0.582683 0.980443 -0.334551
C12   C     C_2   0.001694 0.417341 0.019556 -0.331347
C13   C     C_R   0.683428 0.972094 0.029875 0.575091
C14   C     C_R   0.317288 0.095937 0.976513 0.578676
C15   C     C_R   0.316390 0.478926 0.469896 0.574894
C16   C     C_R   0.682777 0.591471 0.523264 0.578867
O21   O     O_2   0.713166 0.973131 0.977584 -0.516573
O22   O     O_2   0.288143 0.125575 0.028486 -0.510111
O23   O     O_2   0.286545 0.484971 0.521971 -0.516649
O24   O     O_2   0.712040 0.615861 0.471079 -0.510599
N1    N     N_R   0.702561 0.958101 0.109596 -0.553020
N2    N     N_R   0.297545 0.079026 0.897102 -0.554516
N3    N     N_R   0.297377 0.459170 0.390375 -0.553327
N4    N     N_R   0.702399 0.579893 0.602908 -0.554115
C17   C     C_R   0.673104 0.955875 0.163815 0.570903
C18   C     C_R   0.326346 0.049002 0.843148 0.569752
C19   C     C_R   0.326915 0.451908 0.336354 0.571250
C20   C     C_R   0.673449 0.555283 0.657049 0.569364
C21   C     C_R   0.782314 0.096413 0.170251 0.224727
C22   C     C_R   0.222090 0.243846 0.832804 0.232720
C23   C     C_R   0.217646 0.596445 0.329146 0.224098
C24   C     C_R   0.777963 0.744874 0.666799 0.233448
C25   C     C_R   0.832722 0.079617 0.193378 -0.215365
C26   C     C_R   0.171594 0.244128 0.807005 -0.229536
C27   C     C_R   0.167245 0.579463 0.306049 -0.214656
C28   C     C_R   0.828450 0.744782 0.692692 -0.229461
C29   C     C_R   0.828491 0.759037 0.147169 0.189053
C30   C     C_R   0.167141 0.931529 0.858480 0.170149
C31   C     C_R   0.171526 0.259584 0.353100 0.188973
C32   C     C_R   0.832765 0.431378 0.641972 0.169937
C33   C     C_R   0.777747 0.776287 0.125104 -0.134405
C34   C     C_R   0.217833 0.930577 0.882943 -0.157826
C35   C     C_R   0.222261 0.277146 0.375286 -0.134937
C36   C     C_R   0.782066 0.430586 0.617604 -0.157410
C37   C     C_R   0.754432 0.943100 0.136347 0.303726
C38   C     C_R   0.245561 0.084885 0.870421 0.311567
C39   C     C_R   0.245529 0.443740 0.363623 0.304416
C40   C     C_R   0.754392 0.585478 0.629697 0.311021
C41   C     C_R   0.602085 0.988726 0.056903 -0.044523
C42   C     C_R   0.398109 0.053038 0.949745 -0.044661
C43   C     C_R   0.397830 0.490469 0.443041 -0.044585
C44   C     C_R   0.601815 0.554529 0.550191 -0.044617
C45   C     C_R   0.632952 0.985966 0.002083 -0.035642
C46   C     C_R   0.367794 0.082005 0.004320 -0.036104
C47   C     C_R   0.366851 0.493493 0.497690 -0.035695
C48   C     C_R   0.632273 0.577521 0.495434 -0.036451
C49   C     C_R   0.612909 0.998544 0.920861 -0.123079
C50   C     C_R   0.388462 0.096649 0.085283 -0.125798
C51   C     C_R   0.386773 0.512391 0.578720 -0.123117
C52   C     C_R   0.611748 0.586326 0.414260 -0.125255
C53   C     C_R   0.622488 0.974137 0.138625 -0.033509
C54   C     C_R   0.377082 0.038085 0.868274 -0.033530
C55   C     C_R   0.377539 0.470000 0.361513 -0.033200
C56   C     C_R   0.622702 0.545208 0.631869 -0.033312
C57   C     C_R   0.856617 0.912149 0.182815 -0.130737
C58   C     C_R   0.143302 0.089365 0.819129 -0.105453
C59   C     C_R   0.143378 0.412263 0.317082 -0.130449
C60   C     C_R   0.856678 0.589496 0.680953 -0.105594
H1    H     H_    0.756081 0.660492 0.097509 0.134869
H2    H     H_    0.235807 0.809185 0.912672 0.142819
H3    H     H_    0.243951 0.161772 0.403233 0.133888
H4    H     H_    0.764043 0.308902 0.588200 0.143604
H5    H     H_    0.635825 0.999129 0.877405 0.175515
H6    H     H_    0.366121 0.122176 0.128481 0.180355
H7    H     H_    0.363767 0.517700 0.621992 0.175380
H8    H     H_    0.634206 0.607163 0.370870 0.180109
C61   C     C_R   0.479503 0.016499 0.920409 0.036761
C62   C     C_R   0.520499 0.016760 0.086316 0.036724
C63   C     C_R   0.520272 0.524593 0.579595 0.036776
C64   C     C_R   0.479543 0.512454 0.413678 0.036963
C65   C     C_R   0.469675 0.043722 0.059380 0.035264
C66   C     C_R   0.530798 0.010423 0.947164 0.033934
C67   C     C_R   0.530382 0.539362 0.440460 0.034727
C68   C     C_R   0.468986 0.518599 0.552693 0.034024
C69   C     C_R   0.449301 0.037929 0.976612 0.065923
C70   C     C_R   0.550928 0.005442 0.030028 0.065818
C71   C     C_R   0.550617 0.539684 0.523312 0.066081
C72   C     C_R   0.448985 0.507321 0.469901 0.065760
C73   C     C_R   0.457076 0.999943 0.839083 -0.185712
C74   C     C_R   0.542135 0.998327 0.167908 -0.185626
C75   C     C_R   0.542550 0.513990 0.661174 -0.186134
C76   C     C_R   0.458017 0.488063 0.332337 -0.185253
C77   C     C_R   0.406985 0.010096 0.813784 -0.138207
C78   C     C_R   0.592003 0.976822 0.193305 -0.139947
C79   C     C_R   0.592646 0.523539 0.686542 -0.138524
C80   C     C_R   0.408138 0.466769 0.307014 -0.139553
O25   O     O_2   0.305956 0.028256 0.765473 -0.518215
O26   O     O_2   0.692669 0.935546 0.241819 -0.516246
O27   O     O_2   0.693694 0.538913 0.734978 -0.518633
O28   O     O_2   0.307418 0.426892 0.258582 -0.515604
C81   C     C_R   0.562973 0.010168 0.893836 -0.185406
C82   C     C_R   0.438268 0.077735 0.112382 -0.186771
C83   C     C_R   0.436698 0.524442 0.605788 -0.184962
C84   C     C_R   0.561940 0.567375 0.387205 -0.187080
H9    H     H_    0.477150 0.974215 0.793212 0.121596
H10   H     H_    0.521349 0.995364 0.213924 0.122798
H11   H     H_    0.522347 0.493405 0.707260 0.122165
H12   H     H_    0.478894 0.480172 0.286532 0.121980
H13   H     H_    0.550830 0.023099 0.830465 0.123265
H14   H     H_    0.451157 0.094605 0.175447 0.122564
H15   H     H_    0.448749 0.542526 0.668941 0.122543
H16   H     H_    0.549172 0.579431 0.323913 0.123681
H17   H     H_    0.004504 0.211545 0.487897 0.151446
H18   H     H_    0.995512 0.788479 0.512105 0.153274
H19   H     H_    0.995502 0.711562 0.012142 0.151414
H20   H     H_    0.004484 0.288462 0.987856 0.153257
N5    N     N_3   0.851384 0.588677 0.131081 -0.626741
H21   H     H_    0.825462 0.487932 0.108593 0.241274
H22   H     H_    0.870308 0.616113 0.086033 0.217577
N6    N     N_3   0.140219 0.773447 0.875865 -0.637716
H23   H     H_    0.147898 0.753429 0.937409 0.231036
H24   H     H_    0.152589 0.656738 0.849775 0.237789
N7    N     N_3   0.148663 0.089356 0.369382 -0.626683
H25   H     H_    0.174606 0.988767 0.391999 0.240969
H26   H     H_    0.129705 0.117154 0.414357 0.217579
N8    N     N_3   0.859619 0.272838 0.624834 -0.637560
H27   H     H_    0.851879 0.252076 0.563331 0.231265
H28   H     H_    0.847230 0.156627 0.651186 0.237880
H29   H     H_    0.154490 0.366645 0.777067 0.161402
H30   H     H_    0.853248 0.199189 0.219889 0.182653
H31   H     H_    0.845609 0.867524 0.722347 0.161175
H32   H     H_    0.146705 0.698623 0.279146 0.182366
N9    N     N_3   0.248706 0.407854 0.821633 -0.654506
H33   H     H_    0.273318 0.374481 0.785925 0.269909
H34   H     H_    0.268341 0.450662 0.877078 0.233222
N10   N     N_3   0.760277 0.271985 0.179984 -0.655151
H35   H     H_    0.736395 0.254564 0.218489 0.271343
H36   H     H_    0.740232 0.313876 0.124705 0.227100
N11   N     N_3   0.751496 0.909885 0.677149 -0.656417
H37   H     H_    0.726942 0.878531 0.713195 0.271083
H38   H     H_    0.731826 0.951260 0.621519 0.232757
N12   N     N_3   0.239705 0.771478 0.318628 -0.653381
H39   H     H_    0.263778 0.752375 0.280539 0.270109
H40   H     H_    0.259575 0.815002 0.373787 0.227613
H41   H     H_    0.391767 0.995800 0.750869 0.169174
H42   H     H_    0.606602 0.962943 0.256439 0.167307
H43   H     H_    0.607745 0.513877 0.749659 0.169436
H44   H     H_    0.393625 0.448214 0.244080 0.165872

loop_
_geom_bond_atom_site_label_1
_geom_bond_atom_site_label_2
_ccdc_geom_bond_type
C74   H10   S    
O17   V3    S    
C35   H3    S    
O1    C5    A    
N9    H33   S    
C23   C27   A    
O19   V1    S    
O13   V1    S    
O3    C7    A    
N11   H37   S    
C48   C52   A    
C21   C37   A    
C42   C69   A    
O4    V2    S    
C41   C70   A    
C75   H11   S    
O7    C3    A    
C66   C81   A    
C43   C72   A    
C36   H4    S    
C68   C72   A    
C25   C57   A    
C65   C82   A    
C32   C36   A    
C63   C71   A    
N11   H38   S    
O10   V2    S    
C67   C84   A    
C14   O22   S    
N4    C20   A    
N5    H22   S    
C22   C26   A    
O4    C8    A    
C20   O27   S    
C78   H42   S    
C61   C69   A    
O1    V3    S    
C61   C73   A    
C62   C65   A    
O2    V4    S    
O3    V1    S    
C50   C82   A    
C11   H19   S    
C64   C76   A    
C1    O15   A    
N7    H25   S    
C2    O16   A    
C24   C40   A    
C22   C38   A    
O2    C6    A    
C16   C48   A    
C63   C68   A    
O14   V2    S    
C45   C49   A    
C44   C56   A    
O8    C4    A    
C34   H2    S    
C24   N11   S    
O11   C7    A    
O15   V3    S    
O12   C8    A    
C51   H7    S    
N12   H40   S    
C19   O28   S    
C50   H6    S    
C31   C59   A    
C18   O25   S    
C52   C84   A    
N4    C40   S    
C1    C60   S    
C31   N7    S    
C29   C57   A    
O5    V1    S    
C28   C60   A    
C31   C35   A    
O7    V3    S    
C30   C34   A    
N1    C37   S    
O8    V4    S    
C17   C53   A    
C4    C57   S    
C20   C56   A    
N6    H24   S    
C9    H17   S    
C64   C72   A    
C21   C25   A    
O18   V4    S    
C80   H44   S    
C15   O23   S    
C14   C46   A    
C7    C9    S    
C13   C45   A    
C10   H18   S    
C8    C10   S    
C76   C80   A    
O9    V1    S    
C32   N8    S    
C11   C12   D    
C15   C47   A    
N9    H34   S    
C63   C75   A    
O5    C1    A    
C62   C74   A    
C26   H29   S    
C29   C33   A    
C49   C81   A    
C26   C58   A    
C46   C50   A    
C76   H12   S    
N1    C17   A    
C36   C40   A    
N3    C39   S    
C9    C10   D    
O9    C5    A    
C27   C59   A    
C42   C54   A    
C56   C79   A    
C12   H20   S    
C41   C53   A    
C74   C78   A    
C73   H9    S    
C73   C77   A    
C29   N5    S    
O6    V2    S    
C79   H43   S    
C2    C59   S    
C75   C79   A    
C19   C55   A    
N12   H39   S    
N8    H28   S    
C62   C70   A    
C32   C60   A    
C13   N1    A    
N2    C38   S    
C15   N3    A    
O16   V4    S    
C81   H13   S    
C61   C66   A    
C16   N4    A    
C65   C69   A    
C3    O13   A    
C21   N10   S    
N7    H26   S    
C67   C71   A    
C44   C48   A    
C30   N6    S    
N6    H23   S    
O6    C2    A    
C52   H8    S    
N3    C19   A    
C27   H32   S    
O11   V3    S    
C5    C11   S    
O12   V4    S    
C6    C12   S    
C25   H30   S    
N2    C18   A    
N10   H35   S    
O10   C6    A    
C84   H16   S    
C28   H31   S    
C55   C80   A    
N5    H21   S    
C22   N9    S    
C47   C51   A    
C3    C58   S    
C34   C38   A    
C49   H5    S    
C44   C71   A    
C33   C37   A    
C17   O26   S    
C30   C58   A    
O20   V2    S    
C33   H1    S    
C54   C77   A    
C35   C39   A    
C68   C83   A    
C13   O21   S    
C53   C78   A    
C83   H15   S    
C51   C83   A    
C14   N2    A    
C18   C54   A    
C77   H41   S    
C16   O24   S    
C24   C28   A    
C82   H14   S    
C66   C70   A    
C42   C46   A    
C4    O14   A    
C41   C45   A    
N8    H27   S    
C23   N12   S    
C43   C47   A    
C64   C67   A    
C23   C39   A    
C43   C55   A    
N10   H36   S    
