data_mof_unit_65815.cif
_audit_creation_date              2012-10-26T19:37:41-0400
_audit_creation_method            fapswitch 2.2
_symmetry_space_group_name_H-M    P1
_symmetry_Int_Tables_number       1
_space_group_crystal_system       triclinic
_cell_length_a                    11.716596
_cell_length_b                    15.805719
_cell_length_c                    17.09752
_cell_angle_alpha                 96.164447
_cell_angle_beta                  90.266625
_cell_angle_gamma                 92.296025
_cell_volume                      3145.31330582

loop_
_atom_site_label
_atom_site_type_symbol
_atom_type_description
_atom_site_fract_x
_atom_site_fract_y
_atom_site_fract_z
_atom_type_partial_charge
C1    C     C_R   0.496371 0.489759 0.348775 0.530491
C2    C     C_R   0.476618 0.108812 0.483803 0.209177
C3    C     C_R   0.593523 0.848449 0.564505 -0.129308
C4    C     C_R   0.406477 0.151551 0.435495 -0.129308
C5    C     C_R   0.587515 0.759036 0.560415 0.031920
C6    C     C_R   0.412484 0.240964 0.439585 0.031920
C7    C     C_R   0.283797 0.500247 0.499934 0.545611
C8    C     C_R   0.716203 0.499753 0.500066 0.545611
C9    C     C_1   0.162242 0.500611 0.499942 -0.016368
C10   C     C_1   0.837758 0.499389 0.500058 -0.016368
C11   C     C_1   0.059852 0.500310 0.499973 -0.028706
C12   C     C_R   0.503629 0.510241 0.651225 0.530492
C13   C     C_1   0.940148 0.499690 0.500027 -0.028706
C14   C     C_R   0.494393 0.484289 0.262877 -0.023409
C15   C     C_R   0.505607 0.515711 0.737123 -0.023410
C16   C     C_R   0.428445 0.538793 0.222104 -0.017822
C17   C     C_R   0.571552 0.461205 0.777896 -0.017821
C18   C     C_R   0.438224 0.535224 0.140182 -0.043978
C19   C     C_R   0.561773 0.464774 0.859818 -0.043979
C20   C     C_R   0.510731 0.477249 0.098743 0.200621
C21   C     C_R   0.489268 0.522751 0.901257 0.200621
C22   C     C_R   0.571359 0.421703 0.139738 -0.106639
C23   C     C_R   0.563435 0.425061 0.221058 -0.154936
C24   C     C_R   0.428643 0.578298 0.860262 -0.106639
C25   C     C_2   0.654636 0.403581 0.736787 0.225893
C26   C     C_2   0.345359 0.596415 0.263213 0.225892
C27   C     C_R   0.436566 0.574940 0.778942 -0.154937
C28   C     C_R   0.444230 0.751842 0.461890 0.035188
C29   C     C_R   0.555770 0.248158 0.538110 0.035190
C30   C     C_R   0.447520 0.841164 0.464071 -0.104387
C31   C     C_R   0.552481 0.158836 0.535929 -0.104386
C32   C     C_R   0.523381 0.891188 0.516196 0.209177
Cu1   Cu    Cu3+1 0.494550 0.415220 0.496180 0.951492
Cu2   Cu    Cu3+1 0.505450 0.584780 0.503820 0.951492
H1    H     H_    0.612067 0.423172 0.891257 0.186572
H2    H     H_    0.391194 0.870282 0.425348 0.138562
H3    H     H_    0.652896 0.884367 0.605347 0.116202
H4    H     H_    0.347104 0.115633 0.394653 0.116201
H5    H     H_    0.642183 0.727159 0.598063 0.131636
H6    H     H_    0.357817 0.272841 0.401938 0.131637
H7    H     H_    0.680285 0.411155 0.677029 0.117930
H8    H     H_    0.319714 0.588844 0.322972 0.117932
H9    H     H_    0.387928 0.576825 0.108743 0.186573
H10   H     H_    0.626470 0.376405 0.108472 0.136935
H11   H     H_    0.373533 0.623597 0.891528 0.136935
H12   H     H_    0.613769 0.382704 0.251695 0.139243
H13   H     H_    0.386235 0.617298 0.748305 0.139243
H14   H     H_    0.614301 0.285809 0.578151 0.135765
H15   H     H_    0.385699 0.714191 0.421849 0.135764
H16   H     H_    0.608807 0.129718 0.574652 0.138563
N1    N     N_2   0.524552 0.472055 0.016034 -0.242532
N2    N     N_2   0.475447 0.527944 0.983966 -0.242532
N3    N     N_R   0.513630 0.712130 0.509560 -0.225503
N4    N     N_R   0.486370 0.287870 0.490440 -0.225504
N5    N     N_2   0.532405 0.982821 0.522330 -0.232841
N6    N     N_2   0.467595 0.017178 0.477669 -0.232841
O1    O     O_R   0.494910 0.420530 0.382500 -0.500825
O2    O     O_2   0.303003 0.652603 0.230303 -0.506677
O3    O     O_R   0.505090 0.579470 0.617500 -0.500826
O4    O     O_R   0.504100 0.563720 0.388950 -0.504581
O5    O     O_R   0.495900 0.436280 0.611050 -0.504580
O6    O     O_R   0.332600 0.428410 0.496780 -0.490682
O7    O     O_R   0.667400 0.571590 0.503220 -0.490682
O8    O     O_R   0.341800 0.571600 0.503230 -0.504046
O9    O     O_R   0.658200 0.428400 0.496770 -0.504046
O10   O     O_2   0.696985 0.347389 0.769695 -0.506678

loop_
_geom_bond_atom_site_label_1
_geom_bond_atom_site_label_2
_ccdc_geom_bond_type
C14   C23   A    
C2    C4    A    
C28   N3    A    
C24   C27   A    
C7    O6    A    
C14   C16   A    
C1    O1    A    
C9    C11   T    
C28   H15   S    
C32   N5    S    
C15   C27   A    
Cu2   O4    S    
C12   C15   S    
C30   H2    S    
N5    N6    D    
C17   C25   S    
C28   C30   A    
Cu1   Cu2   S    
Cu1   O9    S    
C8    O9    A    
C29   C31   A    
C23   H12   S    
C2    N6    S    
C18   H9    S    
C30   C32   A    
C12   O5    A    
C11   C13   S    
C26   H8    S    
C3    C32   A    
C19   H1    S    
C6    N4    A    
Cu1   O5    S    
C24   H11   S    
C5    N3    A    
Cu2   O7    S    
C17   C19   A    
C4    H4    S    
Cu2   O8    S    
Cu1   O6    S    
C20   N1    S    
C18   C20   A    
C5    H5    S    
C16   C26   S    
Cu2   O3    S    
C6    H6    S    
C7    O8    A    
C1    O4    A    
C4    C6    A    
C29   N4    A    
C29   H14   S    
C27   H13   S    
N1    N2    D    
C7    C9    S    
C21   N2    S    
C3    H3    S    
Cu2   N3    S    
C16   C18   A    
C21   C24   A    
C25   H7    S    
Cu1   N4    S    
C15   C17   A    
C22   C23   A    
C31   H16   S    
Cu1   O1    S    
C1    C14   S    
C8    O7    A    
C19   C21   A    
C12   O3    A    
C26   O2    D    
C8    C10   S    
C22   H10   S    
C25   O10   D    
C20   C22   A    
C2    C31   A    
C3    C5    A    
C10   C13   T    
