data_mof_unit_31136.cif
_audit_creation_date              2012-12-10T17:23:45-0500
_audit_creation_method            fapswitch 2.2
_symmetry_space_group_name_H-M    P1
_symmetry_Int_Tables_number       1
_space_group_crystal_system       triclinic
_cell_length_a                    9.606429
_cell_length_b                    10.828474
_cell_length_c                    17.374876
_cell_angle_alpha                 94.042854
_cell_angle_beta                  85.989624
_cell_angle_gamma                 89.479349
_cell_volume                      1798.29563094

loop_
_atom_site_label
_atom_site_type_symbol
_atom_type_description
_atom_site_fract_x
_atom_site_fract_y
_atom_site_fract_z
_atom_type_partial_charge
C1    C     C_R   0.498858 0.737784 0.496526 0.781713
C2    C     C_R   0.526927 0.504605 0.266260 -0.052387
C3    C     C_R   0.236267 0.891764 0.482549 -0.150925
C4    C     C_R   0.481963 0.499086 0.649648 0.766370
C5    C     C_R   0.111745 0.956514 0.503368 -0.229105
C6    C     C_R   0.113654 0.070032 0.545787 -0.126812
C7    C     C_R   0.240506 0.125235 0.561035 0.434061
C8    C     C_R   0.368032 0.067904 0.528595 -0.002855
C9    C     C_R   0.366053 0.942012 0.501965 0.076641
C10   C     C_R   0.494262 0.873272 0.495681 -0.093342
C11   C     C_R   0.620736 0.936214 0.499358 -0.203726
C12   C     C_R   0.348079 0.466303 0.774401 -0.189322
C13   C     C_R   0.621712 0.063967 0.507454 -0.198683
C14   C     C_R   0.496171 0.131212 0.518803 -0.132744
C15   C     C_R   0.879045 0.304895 0.407692 0.262996
C16   C     C_R   0.499090 0.263905 0.507605 0.832780
C17   C     C_R   0.964506 0.201468 0.379904 0.189907
C18   C     C_R   0.108304 0.213857 0.375775 0.361303
C19   C     C_R   0.163508 0.321331 0.407190 -0.244175
C20   C     C_R   0.083111 0.409852 0.454865 0.081656
C21   C     C_R   0.933659 0.406267 0.455249 0.121926
C22   C     C_R   0.919790 0.586399 0.542566 -0.071443
C23   C     C_R   0.411368 0.504848 0.147379 -0.157858
C24   C     C_R   0.067447 0.585866 0.542890 -0.041766
C25   C     C_R   0.518090 0.500628 0.350329 0.828246
C26   C     C_R   0.474350 0.492036 0.733488 -0.034353
C27   C     C_R   0.596601 0.505484 0.772802 -0.197744
C28   C     C_R   0.592743 0.494613 0.851848 -0.148118
C29   C     C_R   0.466076 0.471450 0.893141 0.192272
C30   C     C_R   0.344449 0.454941 0.853862 -0.171555
C31   C     C_R   0.803629 0.539949 0.104296 0.087154
C32   C     C_R   0.851724 0.455176 0.042977 -0.143350
C33   C     C_R   0.983681 0.468568 0.005431 -0.143976
C34   C     C_R   0.404879 0.497567 0.226717 -0.190181
C35   C     C_R   0.069002 0.565889 0.029117 -0.131026
C36   C     C_R   0.022864 0.649579 0.090649 -0.124260
C37   C     C_R   0.890857 0.636753 0.128234 -0.149767
C38   C     C_R   0.656033 0.518769 0.225325 -0.230249
C39   C     C_R   0.664272 0.525886 0.145051 0.028568
C40   C     C_R   0.540185 0.517992 0.105690 0.140928
C41   C     C_2   0.459412 0.462657 0.977045 -0.253270
C42   C     C_2   0.543225 0.529383 0.021934 -0.234234
Cu1   Cu    Cu3+1 0.359340 0.500010 0.500010 0.964498
Cu2   Cu    Cu3+1 0.640660 0.499990 0.499990 0.981561
H1    H     H_    0.695898 0.523669 0.742512 0.157251
H2    H     H_    0.117318 0.656375 0.578182 0.131745
H3    H     H_    0.750820 0.523995 0.255729 0.165247
H4    H     H_    0.618388 0.591993 0.996818 0.165212
H5    H     H_    0.246612 0.434473 0.884736 0.118734
H6    H     H_    0.314604 0.502893 0.118969 0.142702
H7    H     H_    0.252918 0.453517 0.745015 0.173814
H8    H     H_    0.382652 0.401411 0.002257 0.156830
H9    H     H_    0.689512 0.502448 0.880102 0.130580
H10   H     H_    0.787448 0.378492 0.024528 0.139689
H11   H     H_    0.019757 0.403190 0.958127 0.124932
H12   H     H_    0.719984 0.886937 0.494077 0.161074
H13   H     H_    0.171020 0.576460 0.000060 0.132719
H14   H     H_    0.089372 0.724511 0.109177 0.139135
H15   H     H_    0.856247 0.702715 0.175630 0.136812
H16   H     H_    0.327787 0.236899 0.634582 0.305164
H17   H     H_    0.753331 0.268026 0.326202 0.324244
H18   H     H_    0.810155 0.087756 0.369098 0.341457
H19   H     H_    0.146929 0.052106 0.320466 0.376715
H20   H     H_    0.228569 0.805346 0.448343 0.175582
H21   H     H_    0.013215 0.916438 0.488934 0.158117
H22   H     H_    0.016152 0.115348 0.567123 0.144004
H23   H     H_    0.721284 0.110080 0.504144 0.163907
H24   H     H_    0.859627 0.657309 0.577548 0.128532
H25   H     H_    0.303643 0.487661 0.257078 0.161553
H26   H     H_    0.271924 0.329195 0.393408 0.243107
N1    N     N_R   0.852190 0.498790 0.499250 -0.164237
N2    N     N_R   0.148060 0.498710 0.499220 -0.160862
O1    O     O_R   0.381190 0.680360 0.500010 -0.600346
O2    O     O_3   0.750945 0.310846 0.378737 -0.682648
O3    O     O_3   0.909012 0.092854 0.349341 -0.753533
O4    O     O_3   0.199491 0.124710 0.339803 -0.714843
O5    O     O_R   0.618760 0.680340 0.500000 -0.588959
O6    O     O_R   0.367440 0.500030 0.613600 -0.566331
O7    O     O_R   0.605010 0.500010 0.613590 -0.593310
O8    O     O_R   0.381240 0.319660 0.500000 -0.567109
O9    O     O_R   0.618810 0.319640 0.499990 -0.528603
O10   O     O_R   0.394990 0.499990 0.386410 -0.623567
O11   O     O_R   0.632560 0.499970 0.386400 -0.517746
O12   O     O_3   0.235777 0.228661 0.612361 -0.722120

loop_
_geom_bond_atom_site_label_1
_geom_bond_atom_site_label_2
_ccdc_geom_bond_type
Cu1   O1    S    
C33   H11   S    
Cu1   N2    S    
C1    O5    A    
C41   C42   D    
C35   C36   A    
Cu2   O11   S    
C7    C8    A    
C3    H20   S    
Cu1   O6    S    
C26   C27   A    
C21   N1    A    
Cu2   O5    S    
C36   H14   S    
C5    C6    A    
H19   O4    S    
C23   C40   A    
C11   C13   A    
Cu2   N1    S    
C18   C19   A    
C19   C20   A    
C8    C9    A    
C8    C14   A    
C9    C10   A    
C41   H8    S    
C29   C41   S    
C2    C34   A    
C40   C42   S    
C7    O12   S    
C13   C14   A    
C32   H10   S    
C4    O7    A    
C5    H21   S    
Cu2   O9    S    
C39   C40   A    
C23   H6    S    
Cu1   O8    S    
C31   C37   A    
C12   C26   A    
C16   O8    A    
Cu1   Cu2   S    
C4    O6    A    
C29   C30   A    
C3    C9    A    
C2    C38   A    
C31   C32   A    
C15   C21   A    
C23   C34   A    
C17   C18   A    
C42   H4    S    
C34   H25   S    
C22   H24   S    
C38   H3    S    
C37   H15   S    
C30   H5    S    
C25   O10   A    
C14   C16   S    
H18   O3    S    
C22   N1    A    
C12   H7    S    
C24   N2    A    
C25   O11   A    
C13   H23   S    
C15   C17   A    
C28   C29   A    
C18   O4    S    
C12   C30   A    
Cu2   O7    S    
C1    C10   S    
C3    C5    A    
C4    C26   S    
C28   H9    S    
C6    C7    A    
H17   O2    S    
C35   H13   S    
C1    O1    A    
C32   C33   A    
C24   H2    S    
H16   O12   S    
C27   H1    S    
C38   C39   A    
C16   O9    A    
C33   C35   A    
C31   C39   S    
C2    C25   S    
C22   C24   A    
C10   C11   A    
C6    H22   S    
C15   O2    S    
C20   C21   A    
C36   C37   A    
C27   C28   A    
C17   O3    S    
Cu1   O10   S    
C20   N2    A    
C19   H26   S    
C11   H12   S    
