data_mof_unit_55982.cif
_audit_creation_date              2013-03-05T15:48:14-0500
_audit_creation_method            fapswitch 2.2
_symmetry_space_group_name_H-M    P1
_symmetry_Int_Tables_number       1
_space_group_crystal_system       triclinic
_cell_length_a                    15.624865
_cell_length_b                    15.604361
_cell_length_c                    34.46389
_cell_angle_alpha                 89.690454
_cell_angle_beta                  90.244401
_cell_angle_gamma                 119.205192
_cell_volume                      7334.54105349

loop_
_atom_site_label
_atom_site_type_symbol
_atom_site_description
_atom_site_fract_x
_atom_site_fract_y
_atom_site_fract_z
_atom_type_partial_charge
O1    O     O_R   0.498680 0.159540 0.541860 -0.443950
O2    O     O_R   0.840460 0.339140 0.541860 -0.413887
O3    O     O_R   0.660860 0.501320 0.541860 -0.461232
O4    O     O_R   0.159540 0.498680 0.041860 -0.442020
O5    O     O_R   0.339140 0.840460 0.041860 -0.444049
O6    O     O_R   0.501320 0.660860 0.041860 -0.445398
O7    O     O_R   0.532760 0.358060 0.540030 -0.509967
O8    O     O_R   0.641940 0.174700 0.540030 -0.523313
O9    O     O_R   0.825300 0.467240 0.540030 -0.460203
O10   O     O_R   0.358060 0.532760 0.040030 -0.508312
O11   O     O_R   0.174700 0.641940 0.040030 -0.507096
O12   O     O_R   0.467240 0.825300 0.040030 -0.502776
C1    C     C_R   0.578132 0.441773 0.554727 0.570972
C2    C     C_R   0.558562 0.136005 0.554838 0.576773
C3    C     C_R   0.812676 0.392100 0.559931 0.558906
C4    C     C_R   0.442103 0.577930 0.054756 0.576432
C5    C     C_R   0.135981 0.558241 0.054815 0.579391
C6    C     C_R   0.421914 0.863868 0.054785 0.600030
O13   O     O_R   0.498590 0.161190 0.456930 -0.456628
O14   O     O_R   0.838810 0.337400 0.456930 -0.440062
O15   O     O_R   0.662600 0.501410 0.456930 -0.463065
O16   O     O_R   0.161190 0.498590 0.956930 -0.462350
O17   O     O_R   0.337400 0.838810 0.956930 -0.440368
O18   O     O_R   0.501410 0.662600 0.956930 -0.464439
O19   O     O_R   0.532680 0.359580 0.461300 -0.513124
O20   O     O_R   0.640420 0.173100 0.461300 -0.531446
O21   O     O_R   0.826900 0.467320 0.461300 -0.444933
O22   O     O_R   0.359580 0.532680 0.961300 -0.515664
O23   O     O_R   0.173100 0.640420 0.961300 -0.526046
O24   O     O_R   0.467320 0.826900 0.961300 -0.453148
C7    C     C_R   0.577428 0.442717 0.445678 0.567388
C8    C     C_R   0.557716 0.134554 0.445839 0.577716
C9    C     C_R   0.814462 0.395186 0.439992 0.546965
C10   C     C_R   0.442640 0.577509 0.945745 0.564194
C11   C     C_R   0.134544 0.557872 0.945767 0.569069
C12   C     C_R   0.394710 0.814329 0.940081 0.544175
Cr1   Cr    Cr6+3 0.522350 0.263930 0.500020 1.111552
Cr2   Cr    Cr6+3 0.736070 0.258420 0.500020 1.111559
Cr3   Cr    Cr6+3 0.741580 0.477650 0.500020 1.155105
Cr4   Cr    Cr6+3 0.263930 0.522350 0.000020 1.117738
Cr5   Cr    Cr6+3 0.258420 0.736070 0.000020 1.123091
Cr6   Cr    Cr6+3 0.477650 0.741580 0.000020 1.153724
O25   O     O_3   0.666667 0.333333 0.499990 -0.352709
O26   O     O_3   0.333333 0.666667 0.999990 -0.329652
N1    N     N_R   0.886529 0.389001 0.786021 -0.188377
N2    N     N_R   0.568193 0.564676 0.767855 -0.199941
N3    N     N_R   0.404283 0.936810 0.758909 -0.196625
N4    N     N_R   0.428097 0.973579 0.270824 -0.207632
N5    N     N_R   0.553982 0.566339 0.267719 -0.207083
N6    N     N_R   0.939163 0.407314 0.259586 -0.196936
N7    N     N_R   0.861774 0.373570 0.748708 -0.144826
N8    N     N_R   0.572442 0.561353 0.729398 -0.159599
N9    N     N_R   0.416207 0.957154 0.721221 -0.160212
N10   N     N_R   0.422916 0.966191 0.232396 -0.189585
N11   N     N_R   0.552114 0.569757 0.229212 -0.189855
N12   N     N_R   0.959361 0.418686 0.221924 -0.175882
C13   C     C_R   0.834356 0.407499 0.602012 -0.076490
C14   C     C_R   0.541802 0.462812 0.590760 -0.065549
C15   C     C_R   0.533852 0.069299 0.588523 -0.065220
C16   C     C_R   0.456769 0.918454 0.091424 -0.071129
C17   C     C_R   0.465540 0.540061 0.090208 -0.070681
C18   C     C_R   0.070323 0.533321 0.088734 -0.076565
C19   C     C_R   0.888424 0.370284 0.622303 0.191900
C20   C     C_R   0.578153 0.559438 0.604582 0.174622
C21   C     C_R   0.435553 0.005923 0.599456 0.186219
C22   C     C_R   0.410414 0.967382 0.108333 0.175894
C23   C     C_R   0.560899 0.586179 0.106390 0.168893
C24   C     C_R   0.009475 0.435054 0.100736 0.182816
C25   C     C_R   0.902990 0.384576 0.662599 0.168181
C26   C     C_R   0.556306 0.574603 0.642778 0.157998
C27   C     C_R   0.415054 0.953677 0.634751 0.161642
C28   C     C_R   0.431905 0.999824 0.147036 0.160856
C29   C     C_R   0.575321 0.562306 0.144427 0.139738
C30   C     C_R   0.956138 0.415001 0.135607 0.162986
C31   C     C_R   0.862447 0.434782 0.682883 0.006120
C32   C     C_R   0.497638 0.492517 0.666555 0.014304
C33   C     C_R   0.493197 0.965426 0.658988 0.009036
C34   C     C_R   0.497684 0.980620 0.168815 -0.000670
C35   C     C_R   0.494203 0.492386 0.165946 -0.004340
C36   C     C_R   0.966232 0.493545 0.159004 0.006240
C37   C     C_R   0.809852 0.472742 0.662715 0.231836
C38   C     C_R   0.453315 0.397077 0.651104 0.231389
C39   C     C_R   0.590732 0.021157 0.646277 0.223980
C40   C     C_R   0.547829 0.937109 0.150996 0.244775
C41   C     C_R   0.402400 0.437463 0.147803 0.217427
C42   C     C_R   0.022718 0.591011 0.145950 0.248486
C43   C     C_R   0.794834 0.457202 0.622668 -0.160895
C44   C     C_R   0.477331 0.383118 0.613680 -0.149736
C45   C     C_R   0.610173 0.073898 0.611486 -0.154009
C46   C     C_R   0.529438 0.909686 0.112189 -0.136677
C47   C     C_R   0.388509 0.463108 0.110411 -0.152142
C48   C     C_R   0.071960 0.609796 0.110475 -0.144458
N13   N     N_R   0.915361 0.540857 0.740234 -0.166795
N14   N     N_R   0.404304 0.450664 0.727231 -0.147184
N15   N     N_R   0.518603 0.887396 0.717111 -0.119014
N16   N     N_R   0.592578 0.029196 0.229400 -0.101777
N17   N     N_R   0.452875 0.399302 0.227215 -0.131764
N18   N     N_R   0.887589 0.519241 0.216508 -0.088360
N19   N     N_R   0.940312 0.556275 0.777547 -0.200294
N20   N     N_R   0.400097 0.454015 0.765645 -0.198301
N21   N     N_R   0.506078 0.866366 0.754884 -0.179409
N22   N     N_R   0.597712 0.036529 0.267838 -0.198540
N23   N     N_R   0.454668 0.395916 0.265739 -0.197063
N24   N     N_R   0.866703 0.507258 0.254278 -0.179527
C49   C     C_R   0.927645 0.480873 0.801087 0.351214
C50   C     C_R   0.482066 0.510274 0.786753 0.345970
C51   C     C_R   0.449408 0.891674 0.776523 0.342661
C52   C     C_R   0.515560 0.008563 0.289311 0.337941
C53   C     C_R   0.504740 0.479400 0.286751 0.343662
C54   C     C_R   0.893030 0.451733 0.276556 0.333092
C55   C     C_R   0.877098 0.449467 0.725041 0.418308
C56   C     C_R   0.490540 0.504218 0.708443 0.428779
C57   C     C_R   0.473875 0.933337 0.699694 0.420256
C58   C     C_R   0.505120 0.994483 0.211012 0.394570
C59   C     C_R   0.501880 0.486316 0.208267 0.410712
C60   C     C_R   0.934342 0.475016 0.199729 0.390794
C61   C     C_R   0.952040 0.421389 0.865533 -0.077150
C62   C     C_R   0.560792 0.572994 0.851335 -0.091165
C63   C     C_R   0.419644 0.936017 0.842182 -0.085398
C64   C     C_R   0.438272 0.999867 0.353538 -0.085269
C65   C     C_R   0.569367 0.559706 0.350841 -0.091224
C66   C     C_R   0.937758 0.423277 0.342686 -0.087617
C67   C     C_R   0.000253 0.438226 0.901431 0.198901
C68   C     C_R   0.553914 0.585851 0.891230 0.196239
C69   C     C_R   0.410799 0.922674 0.882428 0.208572
C70   C     C_R   0.446074 0.026184 0.392748 0.195246
C71   C     C_R   0.584354 0.553558 0.390680 0.195746
C72   C     C_R   0.923994 0.413897 0.382891 0.209563
C73   C     C_R   0.078788 0.613971 0.888634 -0.152236
C74   C     C_R   0.377754 0.475814 0.887232 -0.154245
C75   C     C_R   0.440672 0.784115 0.875638 -0.165212
C76   C     C_R   0.622804 0.092146 0.388558 -0.153467
C77   C     C_R   0.473141 0.377310 0.387727 -0.153354
C78   C     C_R   0.784026 0.441186 0.375172 -0.165625
C79   C     C_R   0.029110 0.596266 0.853431 -0.103403
C80   C     C_R   0.385861 0.462461 0.847942 -0.114220
C81   C     C_R   0.452522 0.800292 0.835736 -0.104815
C82   C     C_R   0.613864 0.064453 0.349951 -0.111483
C83   C     C_R   0.457949 0.384656 0.348473 -0.114470
C84   C     C_R   0.800571 0.453547 0.335291 -0.102753
C85   C     C_R   0.967848 0.499781 0.840917 -0.003074
C86   C     C_R   0.476541 0.514513 0.829261 -0.011748
C87   C     C_R   0.440057 0.875104 0.818667 -0.002360
C88   C     C_R   0.522271 0.022464 0.331601 -0.005820
C89   C     C_R   0.509545 0.474938 0.329292 -0.012259
C90   C     C_R   0.876309 0.442582 0.318698 -0.002810
C91   C     C_R   0.068002 0.535741 0.912281 0.008396
C92   C     C_R   0.460096 0.541717 0.908772 0.006455
C93   C     C_R   0.418008 0.843369 0.899201 0.008452
C94   C     C_R   0.540390 0.078617 0.409698 0.011012
C95   C     C_R   0.540655 0.460006 0.408698 0.005194
C96   C     C_R   0.843804 0.419480 0.399182 0.008204
H1    H     H_    0.750000 0.482287 0.607723 0.144438
H2    H     H_    0.450227 0.308633 0.603584 0.172803
H3    H     H_    0.685660 0.123205 0.603613 0.184886
H4    H     H_    0.567527 0.874640 0.099267 0.194061
H5    H     H_    0.315107 0.426697 0.098333 0.182990
H6    H     H_    0.115847 0.685273 0.100987 0.183870
H7    H     H_    0.902402 0.346619 0.856765 0.187899
H8    H     H_    0.631956 0.609790 0.837483 0.186341
H9    H     H_    0.413755 0.996458 0.829336 0.183490
H10   H     H_    0.366556 0.963410 0.340023 0.185887
H11   H     H_    0.606083 0.630629 0.336581 0.186316
H12   H     H_    0.998836 0.418506 0.330228 0.181127
H13   H     H_    0.129720 0.689238 0.896426 0.153385
H14   H     H_    0.305198 0.439970 0.899977 0.168368
H15   H     H_    0.446565 0.723317 0.888040 0.118168
H16   H     H_    0.695794 0.130898 0.400939 0.160728
H17   H     H_    0.437375 0.304914 0.400857 0.171496
H18   H     H_    0.722518 0.445819 0.387206 0.116802
H19   H     H_    0.042562 0.658348 0.835219 0.172718
H20   H     H_    0.319844 0.415035 0.831883 0.175304
H21   H     H_    0.468645 0.752612 0.818144 0.162158
H22   H     H_    0.679760 0.081007 0.334002 0.174771
H23   H     H_    0.409472 0.318361 0.332821 0.176189
H24   H     H_    0.752421 0.468746 0.317339 0.164669
N25   N     N_R   0.933575 0.322724 0.602166 0.140378
O27   O     O_R   0.027870 0.369014 0.596598 -0.221839
O28   O     O_R   0.883417 0.229257 0.594838 -0.304233
N26   N     N_R   0.632952 0.641508 0.579346 0.129077
O29   O     O_R   0.590630 0.653933 0.548902 -0.235024
O30   O     O_R   0.727794 0.692555 0.582708 -0.267674
N27   N     N_R   0.356665 0.992058 0.574288 0.134753
O31   O     O_R   0.342460 0.943978 0.542045 -0.217926
O32   O     O_R   0.309153 0.039706 0.580572 -0.255048
N28   N     N_R   0.344118 0.986751 0.085998 0.126786
O33   O     O_R   0.376183 0.044249 0.055838 -0.235419
O34   O     O_R   0.250127 0.934632 0.091728 -0.256257
N29   N     N_R   0.643140 0.655518 0.084131 0.134707
O35   O     O_R   0.670261 0.626248 0.053617 -0.222904
O36   O     O_R   0.680057 0.749093 0.090442 -0.248025
N30   N     N_R   0.998735 0.355340 0.077013 0.136909
O37   O     O_R   0.921123 0.308790 0.055408 -0.198855
O38   O     O_R   0.058895 0.320616 0.081193 -0.254687
N31   N     N_R   0.978553 0.356176 0.926508 0.100701
O39   O     O_R   0.967054 0.362321 0.963577 -0.228697
O40   O     O_R   0.955682 0.270978 0.911815 -0.270204
N32   N     N_R   0.641884 0.643971 0.913250 0.103086
O41   O     O_R   0.649875 0.618384 0.948513 -0.232965
O42   O     O_R   0.718788 0.714500 0.896576 -0.279670
N33   N     N_R   0.398762 0.992287 0.905647 0.107906
O43   O     O_R   0.452290 0.029139 0.936547 -0.222690
O44   O     O_R   0.347027 0.031101 0.892620 -0.282222
N34   N     N_R   0.358485 0.000036 0.414626 0.098582
O45   O     O_R   0.351689 0.970750 0.450467 -0.219294
O46   O     O_R   0.280698 0.992221 0.397419 -0.281853
N35   N     N_R   0.644218 0.641935 0.412126 0.101637
O47   O     O_R   0.620510 0.651206 0.447399 -0.229684
O48   O     O_R   0.714416 0.718087 0.394894 -0.280158
N36   N     N_R   0.993934 0.402776 0.406564 0.106378
O49   O     O_R   0.029292 0.455720 0.437640 -0.221144
O50   O     O_R   0.034315 0.352505 0.393881 -0.284560
N37   N     N_R   0.961879 0.350616 0.682552 0.116302
O51   O     O_R   0.037285 0.411282 0.703016 -0.269588
O52   O     O_R   0.942967 0.260081 0.678937 -0.242589
N38   N     N_R   0.590321 0.672532 0.656988 0.092442
O53   O     O_R   0.530714 0.693967 0.675407 -0.288538
O54   O     O_R   0.681333 0.739915 0.652674 -0.312434
N39   N     N_R   0.315273 0.887371 0.645759 0.111347
O55   O     O_R   0.291387 0.800640 0.659402 -0.260626
O56   O     O_R   0.248772 0.914488 0.643755 -0.227948
N40   N     N_R   0.389778 0.054915 0.163844 0.100153
O57   O     O_R   0.445387 0.136728 0.181903 -0.288986
O58   O     O_R   0.295504 0.021276 0.163048 -0.267674
N41   N     N_R   0.672226 0.606935 0.160939 0.112913
O59   O     O_R   0.702981 0.552888 0.178445 -0.252127
O60   O     O_R   0.727803 0.701812 0.160656 -0.223655
N42   N     N_R   0.892128 0.315014 0.147414 0.119238
O61   O     O_R   0.805467 0.289461 0.161174 -0.251993
O62   O     O_R   0.920550 0.249497 0.145175 -0.200886
O63   O     O_3   0.764281 0.515430 0.683137 -0.552814
C97   C     C_3   0.807454 0.615677 0.673113 -0.037554
H25   H     H_    0.787430 0.625379 0.643111 0.167552
H26   H     H_    0.888669 0.653771 0.676566 0.161833
H27   H     H_    0.778897 0.651443 0.692998 0.203735
O64   O     O_3   0.398980 0.316461 0.674711 -0.534898
C98   C     C_3   0.300660 0.268524 0.661924 -0.028742
H28   H     H_    0.292904 0.231814 0.633556 0.150800
H29   H     H_    0.270447 0.320014 0.660117 0.163743
H30   H     H_    0.255862 0.210667 0.683342 0.189983
O65   O     O_3   0.667232 0.035942 0.670712 -0.532939
C99   C     C_3   0.717441 0.990104 0.654666 0.001970
H31   H     H_    0.758580 0.029244 0.628173 0.163106
H32   H     H_    0.666611 0.911330 0.648161 0.190264
H33   H     H_    0.771651 0.992958 0.676238 0.198030
O66   O     O_3   0.614325 0.920218 0.171712 -0.489440
C100  C     C_3   0.570145 0.819482 0.181259 -0.046540
H34   H     H_    0.556802 0.773616 0.154953 0.127008
H35   H     H_    0.500595 0.794736 0.197607 0.098158
H36   H     H_    0.620936 0.807711 0.200297 0.210718
O67   O     O_3   0.322397 0.369357 0.168710 -0.542178
C101  C     C_3   0.295949 0.274650 0.154952 -0.000778
H37   H     H_    0.358815 0.259857 0.156366 0.185968
H38   H     H_    0.266309 0.263782 0.124903 0.151435
H39   H     H_    0.237172 0.219821 0.173817 0.201872
O68   O     O_3   0.030135 0.668044 0.168155 -0.491211
C102  C     C_3   0.124105 0.716974 0.185316 -0.049844
H40   H     H_    0.182022 0.756799 0.163220 0.129668
H41   H     H_    0.140261 0.665423 0.202200 0.105842
H42   H     H_    0.126204 0.772406 0.205883 0.201262

loop_
_geom_bond_atom_site_label_1
_geom_bond_atom_site_label_2
_geom_bond_distance
_ccdc_geom_bond_type
N21   C51   1.358766 A    
O7    C1    1.251361 A    
N24   C54   1.359186 A    
O20   C8    1.246854 A    
C35   C59   1.469274 S    
C28   C34   1.414598 A    
C61   H7    1.082980 S    
C3    C13   1.481869 S    
N33   O43   1.301512 A    
C62   H8    1.082818 S    
Cr2   O25   1.944099 S    
C77   C95   1.405538 A    
C52   C88   1.470465 S    
N16   C58   1.355126 A    
C63   H9    1.083432 S    
N42   O62   1.301001 A    
C41   C47   1.394543 A    
C66   H12   1.083414 S    
O67   C101  1.410505 S    
N37   O51   1.301319 A    
O21   C9    1.279945 A    
N4    N10   1.328709 A    
O16   C11   1.244076 A    
C68   C92   1.416515 A    
C69   N33   1.437270 S    
Cr6   O26   1.969473 S    
C42   O68   1.384644 S    
C10   C92   1.472864 S    
C48   H6    1.083465 S    
C64   C88   1.404457 A    
N38   O54   1.300329 A    
C102  H40   1.112185 S    
C28   N40   1.438298 S    
N16   N22   1.328982 A    
N27   O32   1.300997 A    
C78   C84   1.394522 A    
C20   N26   1.433122 S    
C64   C70   1.401876 A    
C12   C93   1.469465 S    
C45   H3    1.082419 S    
N1    N7    1.330240 A    
C24   C30   1.409531 A    
C65   H11   1.082774 S    
C68   N32   1.438663 S    
O9    Cr3   1.956648 S    
C27   N39   1.439351 S    
O64   C98   1.410726 S    
C40   O66   1.384755 S    
O65   C99   1.410130 S    
C15   C45   1.400904 A    
N29   O36   1.300982 A    
C71   N35   1.438505 S    
C80   C86   1.400283 A    
O13   Cr1   2.086531 S    
C72   N36   1.437330 S    
C73   C79   1.391777 A    
C83   H23   1.082945 S    
C72   C96   1.416253 A    
C83   C89   1.399208 A    
N18   C60   1.357997 A    
O4    Cr4   2.074254 S    
O21   Cr3   1.952206 S    
N25   O28   1.300772 A    
C75   H15   1.082486 S    
C18   C48   1.402087 A    
C4    C17   1.475015 S    
C82   H22   1.082929 S    
N15   N21   1.332483 A    
C30   N42   1.440124 S    
C43   H1    1.082416 S    
N22   C52   1.357831 A    
N32   O41   1.301567 A    
C23   C29   1.407862 A    
C79   H19   1.082815 S    
N17   C59   1.355155 A    
N13   N19   1.330811 A    
O3    C1    1.248683 A    
C78   H18   1.082777 S    
O1    Cr1   2.064162 S    
N3    N9    1.327575 A    
C18   C24   1.414248 A    
C71   C95   1.415632 A    
C100  H35   1.113935 S    
C81   C87   1.400095 A    
C16   C22   1.412501 A    
C30   C36   1.413557 A    
C98   H28   1.111718 S    
C38   O64   1.384839 S    
N28   O34   1.300908 A    
C66   C72   1.399026 A    
C31   C55   1.471583 S    
N33   O44   1.301369 A    
C67   N31   1.438072 S    
C34   C58   1.467181 S    
O8    Cr2   1.973317 S    
N6    C54   1.355606 A    
N19   C49   1.358520 A    
O13   C8    1.245708 A    
N15   C57   1.357696 A    
N13   C55   1.355968 A    
C77   H17   1.083440 S    
N42   O61   1.301511 A    
N1    C49   1.357919 A    
N26   O30   1.300594 A    
C25   C31   1.413429 A    
C13   C19   1.417490 A    
N37   O52   1.301108 A    
C14   C20   1.411605 A    
C63   C87   1.402982 A    
C39   C45   1.398481 A    
C53   C89   1.470727 S    
N17   N23   1.329190 A    
C99   H33   1.109223 S    
C47   H5    1.083517 S    
C79   C85   1.402193 A    
O12   Cr6   1.965513 S    
N35   O47   1.301538 A    
C80   H20   1.082856 S    
N3    C51   1.355750 A    
C25   N37   1.437649 S    
C17   C23   1.414143 A    
C16   C46   1.401311 A    
C84   C90   1.400397 A    
N39   O55   1.301431 A    
O3    Cr3   2.069376 S    
O16   Cr4   2.079566 S    
C31   C37   1.405359 A    
C66   C90   1.403158 A    
Cr3   O25   1.967005 S    
O5    C6    1.241116 A    
N12   C60   1.355012 A    
C70   N34   1.438244 S    
N5    N11   1.328667 A    
C74   C92   1.404574 A    
C97   H27   1.109041 S    
O18   C10   1.251997 A    
C19   N25   1.432059 S    
C13   C43   1.402413 A    
C102  H41   1.114123 S    
C44   H2    1.083560 S    
Cr1   O25   1.968357 S    
C61   C85   1.404575 A    
N27   O31   1.300533 A    
O22   Cr4   1.954454 S    
C81   H21   1.083382 S    
C75   C81   1.393507 A    
C5    C18   1.478579 S    
N39   O56   1.300620 A    
O14   Cr2   2.090716 S    
C74   H14   1.083415 S    
N9    C57   1.354952 A    
C99   H32   1.113902 S    
O15   Cr3   2.071382 S    
N14   N20   1.328379 A    
C32   C56   1.467537 S    
C78   C96   1.403900 A    
O68   C102  1.411396 S    
O15   C7    1.253091 A    
C97   H26   1.114077 S    
C7    C95   1.472553 S    
O7    Cr1   1.967772 S    
C62   C68   1.402706 A    
N38   O53   1.301394 A    
N40   O58   1.300514 A    
O2    C3    1.271710 A    
C77   C83   1.386266 A    
C37   C43   1.401441 A    
C69   C93   1.416342 A    
N7    C55   1.356363 A    
C101  H39   1.109240 S    
O14   C9    1.275049 A    
C63   C69   1.398845 A    
C6    C16   1.472986 S    
C33   C57   1.469199 S    
N34   O46   1.301450 A    
C41   O67   1.383529 S    
C20   C26   1.411182 A    
C22   N28   1.432870 S    
C37   O63   1.385015 S    
C76   C94   1.405206 A    
Cr5   O26   1.944241 S    
C65   C89   1.404650 A    
C75   C93   1.403527 A    
C32   C38   1.407130 A    
O4    C5    1.240326 A    
C26   C32   1.414812 A    
C46   H4    1.083555 S    
C42   C48   1.398831 A    
C27   C33   1.413012 A    
N26   O29   1.301053 A    
C101  H38   1.112149 S    
C21   N27   1.432191 S    
C100  H36   1.109299 S    
O5    Cr5   2.080479 S    
O66   C100  1.411796 S    
O11   C5    1.247331 A    
C50   C86   1.471640 S    
O8    C2    1.247775 A    
N41   O59   1.301419 A    
N20   C50   1.357167 A    
O19   C7    1.253888 A    
C24   N30   1.431771 S    
C74   C80   1.386856 A    
C76   H16   1.083528 S    
C33   C39   1.406731 A    
C67   C91   1.416583 A    
C62   C86   1.403939 A    
C9    C96   1.470445 S    
C14   C44   1.399603 A    
N10   C58   1.356087 A    
C100  H34   1.112397 S    
C23   N29   1.432851 S    
C65   C71   1.402481 A    
C1    C14   1.471211 S    
O17   C12   1.275001 A    
C64   H10   1.082839 S    
C29   C35   1.413030 A    
O23   C11   1.247443 A    
C39   O65   1.384055 S    
N36   O50   1.301381 A    
O17   Cr5   2.087506 S    
C73   H13   1.083667 S    
N23   C53   1.358058 A    
C102  H42   1.109244 S    
O20   Cr2   1.961447 S    
O2    Cr2   2.078676 S    
C101  H37   1.114130 S    
C49   C85   1.477174 S    
C98   H29   1.114291 S    
C61   C67   1.403400 A    
N5    C53   1.355982 A    
C26   N38   1.439004 S    
C19   C25   1.407579 A    
O24   C12   1.279716 A    
O10   C4    1.254472 A    
N30   O37   1.300453 A    
N2    N8    1.329877 A    
C29   N41   1.438520 S    
C70   C94   1.415468 A    
N4    C52   1.356402 A    
N25   O27   1.300648 A    
N11   C59   1.356635 A    
C82   C88   1.399645 A    
C38   C44   1.392381 A    
N2    C50   1.357387 A    
N14   C56   1.354979 A    
C97   H25   1.109801 S    
N41   O60   1.300511 A    
C35   C41   1.407656 A    
O11   Cr5   1.971919 S    
C11   C91   1.475068 S    
C21   C27   1.408795 A    
O22   C10   1.255758 A    
O9    C3    1.284861 A    
N29   O35   1.300782 A    
C51   C87   1.469248 S    
N6    N12   1.327449 A    
C73   C91   1.404416 A    
O18   Cr6   2.081599 S    
C22   C28   1.409163 A    
C40   C46   1.391889 A    
O6    C4    1.247827 A    
N31   O39   1.301441 A    
C99   H31   1.111615 S    
C34   C40   1.407048 A    
C36   C42   1.407315 A    
Cr4   O26   1.965743 S    
C8    C94   1.471360 S    
N34   O45   1.301350 A    
N36   O49   1.301480 A    
O6    Cr6   2.057438 S    
C98   H30   1.109243 S    
O12   C6    1.242854 A    
O63   C97   1.409893 S    
N35   O48   1.301452 A    
N8    C56   1.356366 A    
O23   Cr5   1.962203 S    
O24   Cr6   1.941129 S    
O10   Cr4   1.960326 S    
N32   O42   1.301463 A    
O1    C2    1.241108 A    
C36   C60   1.470658 S    
C2    C15   1.476086 S    
N28   O33   1.300820 A    
C54   C90   1.470589 S    
C76   C82   1.386497 A    
N40   O57   1.301387 A    
N18   N24   1.333150 A    
C15   C21   1.413378 A    
C17   C47   1.401101 A    
O19   Cr1   1.944150 S    
C84   H24   1.083338 S    
N31   O40   1.301402 A    
N30   O38   1.301150 A    
