data_mof_unit_15354.cif
_audit_creation_date              2012-12-10T20:31:06-0500
_audit_creation_method            fapswitch 2.2
_symmetry_space_group_name_H-M    P1
_symmetry_Int_Tables_number       1
_space_group_crystal_system       triclinic
_cell_length_a                    14.935033
_cell_length_b                    10.774732
_cell_length_c                    9.939152
_cell_angle_alpha                 89.903791
_cell_angle_beta                  90.452246
_cell_angle_gamma                 90.775663
_cell_volume                      1599.21970039

loop_
_atom_site_label
_atom_site_type_symbol
_atom_type_description
_atom_site_fract_x
_atom_site_fract_y
_atom_site_fract_z
_atom_type_partial_charge
C1    C     C_R   0.499170 0.259782 0.498826 0.939454
C2    C     C_R   0.906447 0.577830 0.578425 0.129759
C3    C     C_R   0.956089 0.277994 0.404326 -0.071190
C4    C     C_R   0.050593 0.284362 0.402056 -0.077685
C5    C     C_R   0.095307 0.391777 0.451231 0.025541
C6    C     C_R   0.047324 0.487486 0.514077 0.081704
C7    C     C_R   0.092908 0.590638 0.574586 0.046590
C8    C     C_R   0.043445 0.683732 0.637880 -0.179598
C9    C     C_R   0.951252 0.676329 0.641057 -0.145627
C10   C     C_R   0.187995 0.403107 0.445182 -0.242169
C11   C     C_R   0.232033 0.505024 0.500444 -0.032527
C12   C     C_R   0.327441 0.502686 0.499771 0.959027
C13   C     C_R   0.186530 0.599461 0.567352 -0.078729
C14   C     C_R   0.532531 0.062608 0.608072 0.126850
C15   C     C_R   0.506147 0.127019 0.492563 -0.116850
C16   C     C_R   0.494111 0.059596 0.369773 -0.048344
C17   C     C_R   0.496982 0.931370 0.374329 -0.110216
C18   C     C_R   0.513117 0.869943 0.495715 -0.094827
C19   C     C_R   0.540523 0.936546 0.608067 0.074786
C20   C     C_3   0.517598 0.923000 0.753382 -0.566412
C21   C     C_3   0.504169 0.063415 0.753362 -0.102358
C22   C     C_R   0.421722 0.489490 0.069414 0.263937
C23   C     C_R   0.503203 0.739099 0.499645 0.965822
C24   C     C_R   0.573337 0.540478 0.072883 -0.050770
C25   C     C_R   0.573382 0.540512 0.928484 -0.045634
C26   C     C_R   0.422084 0.488644 0.928409 0.181562
C27   C     C_3   0.351530 0.390722 0.919841 -0.484314
C28   C     C_3   0.349742 0.391560 0.073677 -0.291123
C29   C     C_R   0.672777 0.496117 0.500390 0.916955
C30   C     C_R   0.814405 0.576485 0.576550 -0.178061
C31   C     C_R   0.768406 0.487230 0.502765 -0.118798
C32   C     C_R   0.813061 0.392565 0.433820 -0.093145
C33   C     C_R   0.907110 0.382273 0.450256 -0.049398
C34   C     C_R   0.953700 0.481675 0.514983 0.066907
H1    H     H_    0.778032 0.649864 0.626053 0.153200
H2    H     H_    0.482597 0.879504 0.283040 0.219174
H3    H     H_    0.455575 0.866512 0.769212 0.230775
H4    H     H_    0.575928 0.891231 0.813872 0.210522
H5    H     H_    0.289753 0.425199 0.869763 0.202447
H6    H     H_    0.377440 0.304318 0.877613 0.246659
H7    H     H_    0.372155 0.304138 0.121198 0.180760
H8    H     H_    0.228150 0.331308 0.400618 0.120087
H9    H     H_    0.074708 0.764356 0.683700 0.159374
H10   H     H_    0.914707 0.749874 0.689649 0.168699
N1    N     N_R   0.499390 0.499140 0.142800 -0.158350
N2    N     N_R   0.499390 0.499180 0.857150 -0.137841
O1    O     O_R   0.500010 0.316790 0.614690 -0.591321
O2    O     O_R   0.500000 0.316760 0.385350 -0.666047
O3    O     O_R   0.367850 0.499990 0.614680 -0.627817
O4    O     O_R   0.367840 0.499950 0.385340 -0.592965
O5    O     O_R   0.500000 0.683240 0.614650 -0.649245
O6    O     O_R   0.499990 0.683210 0.385310 -0.581884
O7    O     O_R   0.632160 0.500050 0.614660 -0.624127
O8    O     O_R   0.632150 0.500010 0.385320 -0.623136
Zn1   Zn    Zn3+2 0.500010 0.500020 0.653130 0.991571
Zn2   Zn    Zn3+2 0.499990 0.499980 0.346870 1.009747
C35   C     C_2   0.406746 0.092196 0.777734 0.418259
H11   H     H_    0.379501 0.078202 0.877600 0.126263
O9    O     O_2   0.357458 0.128090 0.687499 -0.564638
C36   C     C_2   0.569713 0.134281 0.842551 0.945568
O10   O     O_2   0.650206 0.116789 0.832795 -0.581314
O11   O     O_R   0.538746 0.220817 0.935073 -0.840733
H12   H     H_    0.589216 0.262811 0.987316 0.348500
C37   C     C_2   0.648620 0.600812 0.144638 0.542908
H13   H     H_    0.714895 0.561046 0.141147 0.121719
O12   O     O_2   0.637853 0.698593 0.203661 -0.571822
C38   C     C_2   0.648282 0.600804 0.856744 0.455167
H14   H     H_    0.634623 0.669356 0.779709 0.082310
O13   O     O_2   0.725797 0.574394 0.882468 -0.579032
C39   C     C_2   0.261277 0.436145 0.125645 0.460168
H15   H     H_    0.205310 0.371295 0.131557 0.057213
O14   O     O_2   0.250751 0.544066 0.158747 -0.521768
C40   C     C_2   0.761930 0.314319 0.336696 0.873054
O15   O     O_2   0.780408 0.318294 0.217093 -0.585824
O16   O     O_R   0.693875 0.235254 0.382366 -0.823568
H16   H     H_    0.666363 0.183884 0.307015 0.335991
C41   C     C_2   0.909764 0.158984 0.369620 0.539904
H17   H     H_    0.857370 0.122887 0.434450 0.069668
O17   O     O_2   0.927744 0.102724 0.266960 -0.502338
C42   C     C_2   0.103099 0.176664 0.354236 0.533801
H18   H     H_    0.152585 0.189017 0.275891 0.040442
O18   O     O_2   0.092868 0.074141 0.404812 -0.511056
C43   C     C_2   0.236752 0.706372 0.628035 0.429604
H19   H     H_    0.219523 0.740422 0.726985 0.067806
O19   O     O_2   0.297209 0.758183 0.566901 -0.549725
C44   C     C_2   0.474564 0.114657 0.235789 0.404189
H20   H     H_    0.512627 0.193374 0.198497 0.119027
O20   O     O_2   0.417587 0.067959 0.162182 -0.581145

loop_
_geom_bond_atom_site_label_1
_geom_bond_atom_site_label_2
_ccdc_geom_bond_type
C8    C9    A    
C10   H8    S    
C40   O15   D    
C19   C20   S    
C25   C38   S    
C8    H9    S    
C12   O3    A    
C35   H11   S    
C7    C8    A    
C41   H17   S    
C26   C27   S    
C30   H1    S    
C24   N1    A    
C14   C21   S    
C4    C42   S    
C5    C6    A    
C44   O20   D    
C35   O9    D    
C29   O8    A    
C3    C33   A    
C15   C16   A    
C28   H7    S    
C36   O11   S    
C18   C19   A    
C31   C32   A    
N1    Zn2   S    
C27   H5    S    
C16   C17   A    
N2    Zn1   S    
C39   H15   S    
C1    C15   S    
C17   H2    S    
C2    C34   A    
C41   O17   D    
C24   C37   S    
C22   C28   S    
C16   C44   S    
C40   O16   S    
C17   C18   A    
O7    Zn1   S    
O8    Zn2   S    
C38   H14   S    
C24   C25   A    
C21   C36   S    
C42   O18   D    
C32   C40   S    
C44   H20   S    
C1    O1    A    
O3    Zn1   S    
O4    Zn2   S    
C18   C23   S    
C36   O10   D    
C38   O13   D    
C37   O12   D    
O16   H16   S    
C21   C35   S    
O11   H12   S    
C20   H4    S    
C23   O5    A    
C43   H19   S    
C7    C13   A    
C27   H6    S    
C33   C34   A    
C43   O19   D    
C3    C4    A    
C3    C41   S    
O1    Zn1   S    
O2    Zn2   S    
C9    H10   S    
C14   C19   A    
C28   C39   S    
C42   H18   S    
C12   O4    A    
C11   C12   S    
C1    O2    A    
C6    C7    A    
C13   C43   S    
C2    C30   A    
C37   H13   S    
C5    C10   A    
C29   C31   S    
C32   C33   A    
C20   H3    S    
C11   C13   A    
C23   O6    A    
C30   C31   A    
C29   O7    A    
O5    Zn1   S    
C10   C11   A    
C26   N2    A    
C6    C34   A    
C4    C5    A    
C22   N1    A    
C20   C21   S    
C22   C26   A    
C27   C28   S    
C14   C15   A    
C39   O14   D    
C2    C9    A    
C25   N2    A    
O6    Zn2   S    
