data_mof_unit_60387.cif
_audit_creation_date              2012-12-10T17:57:05-0500
_audit_creation_method            fapswitch 2.2
_symmetry_space_group_name_H-M    P1
_symmetry_Int_Tables_number       1
_space_group_crystal_system       triclinic
_cell_length_a                    18.581116
_cell_length_b                    18.634609
_cell_length_c                    18.756538
_cell_angle_alpha                 109.321806
_cell_angle_beta                  109.417564
_cell_angle_gamma                 109.120751
_cell_volume                      5033.29469414

loop_
_atom_site_label
_atom_site_type_symbol
_atom_type_description
_atom_site_fract_x
_atom_site_fract_y
_atom_site_fract_z
_atom_type_partial_charge
C1    C     C_R   0.379474 0.379984 0.499695 0.895674
C2    C     C_3   0.809341 0.501904 0.810633 0.021744
C3    C     C_3   0.848942 0.581592 0.798547 -0.398282
C4    C     C_3   0.738610 0.506584 0.835108 -0.384989
C5    C     C_R   0.237159 0.249443 0.421300 -0.172235
C6    C     C_R   0.172868 0.185682 0.421254 -0.159153
C7    C     C_R   0.186817 0.185763 0.499272 -0.000761
C8    C     C_R   0.264313 0.249647 0.577428 -0.085189
C9    C     C_R   0.327352 0.314948 0.577844 -0.105609
C10   C     C_R   0.313515 0.314074 0.499708 0.004802
C11   C     C_R   0.323650 0.578839 0.315898 -0.182168
C12   C     C_R   0.618940 0.497667 0.620332 0.942195
C13   C     C_R   0.260621 0.578281 0.250171 -0.123338
C14   C     C_R   0.185162 0.499142 0.183943 -0.025322
C15   C     C_R   0.173200 0.420423 0.182335 -0.188840
C16   C     C_R   0.237657 0.420694 0.246470 -0.166000
C17   C     C_R   0.312235 0.499966 0.313296 -0.002557
C18   C     C_R   0.758757 0.755119 0.578701 -0.099912
C19   C     C_R   0.823504 0.818457 0.578783 -0.161655
C20   C     C_R   0.813705 0.813211 0.499754 -0.015197
C21   C     C_R   0.740621 0.744327 0.420592 -0.159130
C22   C     C_R   0.677139 0.679641 0.420424 -0.180151
C23   C     C_R   0.619670 0.620105 0.499386 0.901401
C24   C     C_R   0.686142 0.685918 0.499500 0.002768
C25   C     C_R   0.997951 0.379702 0.877469 0.877828
C26   C     C_R   0.876777 0.502216 0.878693 0.859013
C27   C     C_R   0.999195 0.619851 0.119651 0.939981
C28   C     C_R   0.118368 0.499055 0.117367 0.911648
C29   C     C_R   0.001559 0.880489 0.380641 0.876113
C30   C     C_R   0.120328 0.119580 0.499333 0.909475
C31   C     C_R   0.000787 0.121801 0.618911 0.933835
C32   C     C_R   0.879815 0.879653 0.499880 0.848351
C33   C     C_R   0.017101 0.331991 0.750662 -0.257464
C34   C     C_R   0.378955 0.500030 0.379396 0.836258
C35   C     C_R   0.018160 0.269632 0.686024 0.403448
C36   C     C_R   0.000574 0.189010 0.683659 -0.135501
C37   C     C_R   0.981593 0.171365 0.744030 -0.235577
C38   C     C_R   0.979303 0.233525 0.807120 -0.160678
C39   C     C_R   0.997773 0.313871 0.810630 -0.078623
C40   C     C_R   0.996103 0.754852 0.177781 -0.243555
C41   C     C_R   0.995681 0.818909 0.240813 -0.164720
C42   C     C_R   0.002066 0.814377 0.315200 -0.085383
C43   C     C_R   0.007690 0.746010 0.326828 -0.243032
C44   C     C_R   0.006219 0.679987 0.263276 0.450036
C45   C     C_3   0.689097 0.408399 0.652976 0.279537
C46   C     C_R   0.000789 0.685344 0.188268 -0.155897
C47   C     C_3   0.767519 0.416379 0.724742 -0.412476
C48   C     C_3   0.778650 0.575329 0.720734 0.224088
C49   C     C_3   0.670604 0.511327 0.765719 -0.429930
C50   C     C_3   0.687197 0.496804 0.687127 -0.109890
H1    H     H_    0.698936 0.396803 0.595805 0.159193
H2    H     H_    0.769207 0.565084 0.899648 0.157215
H3    H     H_    0.775220 0.636759 0.744169 0.098682
H4    H     H_    0.874366 0.643064 0.858536 0.145830
H5    H     H_    0.227088 0.249317 0.360911 0.135715
H6    H     H_    0.113132 0.135853 0.360612 0.147476
H7    H     H_    0.275045 0.249920 0.637975 0.163747
H8    H     H_    0.387217 0.365039 0.638306 0.148443
H9    H     H_    0.381812 0.640121 0.367623 0.148543
H10   H     H_    0.269666 0.639425 0.251887 0.168095
H11   H     H_    0.114921 0.359077 0.130969 0.149979
H12   H     H_    0.229046 0.359650 0.244816 0.139726
H13   H     H_    0.765679 0.759178 0.639826 0.151153
H14   H     H_    0.880184 0.872078 0.640068 0.147539
H15   H     H_    0.733538 0.740165 0.359403 0.152430
H16   H     H_    0.620543 0.625798 0.359201 0.145849
H17   H     H_    0.031001 0.394704 0.754466 0.189753
H18   H     H_    0.967773 0.109135 0.741641 0.154859
H19   H     H_    0.964681 0.219587 0.853898 0.159129
H20   H     H_    0.991398 0.758686 0.120102 0.161729
H21   H     H_    0.747413 0.359109 0.735016 0.228913
H22   H     H_    0.991431 0.872366 0.232175 0.154284
H23   H     H_    0.011954 0.744014 0.385104 0.200085
H24   H     H_    0.817301 0.416290 0.704352 0.186075
H25   H     H_    0.906107 0.585401 0.789637 0.251066
H26   H     H_    0.676132 0.576798 0.795537 0.184398
H27   H     H_    0.603263 0.462735 0.744770 0.233511
H28   H     H_    0.705541 0.448263 0.840147 0.241776
O1    O     O_R   0.408680 0.356690 0.448540 -0.593505
O2    O     O_R   0.049540 0.460010 0.906120 -0.617164
O3    O     O_R   0.853500 0.448290 0.905220 -0.621619
O4    O     O_R   0.956960 0.551660 0.905160 -0.630943
O5    O     O_R   0.945110 0.539900 0.088450 -0.564836
O6    O     O_R   0.048570 0.643270 0.088390 -0.629050
O7    O     O_R   0.037700 0.448250 0.089410 -0.594421
O8    O     O_R   0.141150 0.551620 0.089350 -0.628408
O9    O     O_R   0.948590 0.908340 0.356800 -0.633950
O10   O     O_R   0.052580 0.908350 0.460820 -0.610923
O11   O     O_R   0.039640 0.091520 0.447910 -0.591579
O12   O     O_R   0.408060 0.460070 0.551440 -0.622503
O13   O     O_R   0.143620 0.091540 0.551930 -0.628550
O14   O     O_R   0.947420 0.091470 0.539000 -0.569396
O15   O     O_R   0.051410 0.091490 0.643030 -0.627323
O16   O     O_R   0.856380 0.908290 0.447890 -0.627016
O17   O     O_R   0.960370 0.908300 0.551910 -0.614488
O18   O     O_R   0.592410 0.448290 0.540650 -0.558582
O19   O     O_R   0.591790 0.551670 0.643550 -0.651179
O20   O     O_R   0.591940 0.539930 0.448560 -0.579732
O21   O     O_R   0.591320 0.643310 0.551460 -0.640933
O22   O     O_R   0.408210 0.448330 0.356450 -0.635333
O23   O     O_R   0.407590 0.551710 0.459350 -0.611025
O24   O     O_R   0.946090 0.356640 0.906180 -0.628292
Zn1   Zn    Zn3+2 0.500420 0.430970 0.431290 1.052892
Zn2   Zn    Zn3+2 0.499580 0.569030 0.568710 0.992633
Zn3   Zn    Zn3+2 0.928250 0.430930 0.997320 1.047915
Zn4   Zn    Zn3+2 0.066410 0.568980 0.997240 0.994861
Zn5   Zn    Zn3+2 0.930570 0.999900 0.430450 1.035321
Zn6   Zn    Zn3+2 0.069430 0.999920 0.569370 1.014115
S1    S     S_3+6 0.589392 0.311639 0.616170 0.011939
O25   O     O_2   0.581780 0.307168 0.692068 -0.278643
O26   O     O_2   0.509129 0.309385 0.558566 -0.313024
O27   O     O_3   0.593554 0.223174 0.559792 -0.505404
H29   H     H_    0.594449 0.227277 0.508740 0.353838
S2    S     S_3+6 0.047130 0.296841 0.613841 0.040101
O28   O     O_2   0.124650 0.285523 0.618745 -0.306868
O29   O     O_2   0.972052 0.237754 0.522227 -0.278780
O30   O     O_3   0.074026 0.401161 0.640598 -0.513335
H30   H     H_    0.017381 0.400579 0.617552 0.363487
S3    S     S_3+6 0.015832 0.595756 0.282626 0.037321
O31   O     O_2   0.031528 0.614738 0.372479 -0.282565
O32   O     O_2   0.933212 0.509981 0.217378 -0.266039
O33   O     O_3   0.100758 0.589481 0.273793 -0.589032
H31   H     H_    0.107572 0.547590 0.293263 0.390438
S4    S     S_3+6 0.814640 0.573216 0.641543 -0.015870
O34   O     O_2   0.744181 0.554667 0.558721 -0.296812
O35   O     O_2   0.891738 0.661413 0.679996 -0.290360
O36   O     O_3   0.846370 0.497575 0.618997 -0.591425
H32   H     H_    0.870242 0.505167 0.580402 0.403869

loop_
_geom_bond_atom_site_label_1
_geom_bond_atom_site_label_2
_ccdc_geom_bond_type
C43   H23   S    
C32   O16   A    
C1    O12   A    
C29   C42   S    
C25   O2    A    
C41   C42   A    
C23   O21   A    
C35   C36   A    
S2    O28   D    
C7    C8    A    
C13   H10   S    
C40   C46   A    
C33   C39   A    
C40   H20   S    
C4    H2    S    
C18   C24   A    
C36   C37   A    
C9    H8    S    
S1    O26   D    
O15   Zn6   S    
C5    C6    A    
O10   Zn6   S    
C3    H4    S    
C45   S1    S    
C25   O24   A    
C45   H1    S    
C15   C16   A    
C37   H18   S    
O2    Zn4   S    
C3    C48   S    
C35   S2    S    
C18   C19   A    
C22   H16   S    
C29   O10   A    
O24   Zn3   S    
C11   C17   A    
C19   C20   A    
C16   C17   A    
O6    Zn4   S    
C23   C24   S    
C3    H25   S    
C9    C10   A    
S3    O32   D    
O21   Zn2   S    
C38   H19   S    
C26   O4    A    
C7    C30   S    
C13   C14   A    
O1    Zn1   S    
C23   O20   A    
O8    Zn4   S    
C16   H12   S    
C30   O11   A    
C11   H9    S    
O27   H29   S    
C44   C46   A    
C45   C47   S    
C48   H3    S    
O3    Zn3   S    
O16   Zn5   S    
C34   O23   A    
S2    O30   S    
S1    O27   S    
C8    C9    A    
O7    Zn3   S    
C44   S3    S    
C31   O15   A    
O22   Zn1   S    
O5    Zn3   S    
C2    C4    S    
C43   C44   A    
C4    H28   S    
C37   C38   A    
C8    H7    S    
O14   Zn5   S    
C34   O22   A    
C19   H14   S    
O12   Zn2   S    
O11   Zn5   S    
C15   H11   S    
C49   H26   S    
C2    C26   S    
C47   H21   S    
C12   O19   A    
C41   H22   S    
C27   C46   S    
C40   C41   A    
C49   C50   S    
C26   O3    A    
S4    O36   S    
C28   O8    A    
C1    O1    A    
C22   C24   A    
C42   C43   A    
O36   H32   S    
C33   H17   S    
S4    O35   D    
C20   C32   S    
S3    O33   S    
C27   O6    A    
C21   H15   S    
C14   C15   A    
O13   Zn6   S    
C5    H5    S    
C1    C10   S    
C47   H24   S    
C6    H6    S    
C30   O13   A    
C48   S4    S    
S2    O29   D    
S3    O31   D    
C6    C7    A    
C2    C47   S    
O23   Zn2   S    
O30   H30   S    
C4    C49   S    
C27   O5    A    
C2    C3    S    
C5    C10   A    
S1    O25   D    
C25   C39   S    
C11   C13   A    
C38   C39   A    
C45   C50   S    
C48   C50   S    
C33   C35   A    
C49   H27   S    
O4    Zn4   S    
C18   H13   S    
C29   O9    A    
O19   Zn2   S    
O17   Zn6   S    
C32   O17   A    
O9    Zn5   S    
C20   C21   A    
C31   O14   A    
C17   C34   S    
O18   Zn1   S    
C28   O7    A    
C31   C36   S    
C12   O18   A    
C14   C28   S    
O33   H31   S    
C21   C22   A    
C12   C50   S    
O20   Zn1   S    
S4    O34   D    
