data_mof_unit_42684.cif
_audit_creation_date              2012-12-11T14:44:33-0500
_audit_creation_method            fapswitch 2.2
_symmetry_space_group_name_H-M    P1
_symmetry_Int_Tables_number       1
_space_group_crystal_system       triclinic
_cell_length_a                    19.971771
_cell_length_b                    7.217866
_cell_length_c                    19.653934
_cell_angle_alpha                 90.725054
_cell_angle_beta                  98.476056
_cell_angle_gamma                 91.277811
_cell_volume                      2801.17842573

loop_
_atom_site_label
_atom_site_type_symbol
_atom_type_description
_atom_site_fract_x
_atom_site_fract_y
_atom_site_fract_z
_atom_type_partial_charge
O1    O     O_R   0.673210 0.377390 0.686390 -0.539500
O2    O     O_R   0.326790 0.622610 0.313610 -0.539497
O3    O     O_R   0.826790 0.877390 0.813610 -0.531679
O4    O     O_R   0.173210 0.122610 0.186390 -0.531676
O5    O     O_R   0.810750 0.706450 0.681250 -0.540750
O6    O     O_R   0.189250 0.293550 0.318750 -0.540749
O7    O     O_R   0.689250 0.206450 0.818750 -0.540604
O8    O     O_R   0.310750 0.793550 0.181250 -0.540600
C1    C     C_R   0.831156 0.538868 0.665382 0.693337
C2    C     C_R   0.168844 0.461132 0.334618 0.693327
C3    C     C_R   0.668563 0.038001 0.834308 0.693596
C4    C     C_R   0.331437 0.961999 0.165692 0.693604
O9    O     O_R   0.672750 0.707060 0.678240 -0.535641
O10   O     O_R   0.327250 0.292940 0.321760 -0.535642
O11   O     O_R   0.827250 0.207060 0.821760 -0.541282
O12   O     O_R   0.172750 0.792940 0.178240 -0.541287
O13   O     O_R   0.687800 0.877990 0.810580 -0.540137
O14   O     O_R   0.312200 0.122010 0.189420 -0.540136
O15   O     O_R   0.812200 0.377990 0.689420 -0.537802
O16   O     O_R   0.187800 0.622010 0.310580 -0.537808
C5    C     C_R   0.647531 0.535246 0.662520 0.718008
C6    C     C_R   0.352470 0.464754 0.337479 0.718024
C7    C     C_R   0.852112 0.041482 0.838302 0.720326
C8    C     C_R   0.147887 0.958517 0.161699 0.720310
O17   O     O_3   0.755100 0.544060 0.793420 -0.374292
O18   O     O_3   0.244900 0.455940 0.206580 -0.374289
O19   O     O_3   0.744900 0.044060 0.706580 -0.376582
O20   O     O_3   0.255100 0.955940 0.293420 -0.376584
V1    V     V_3+5 0.749050 0.818670 0.741950 1.412323
V2    V     V_3+5 0.250950 0.181330 0.258050 1.412329
V3    V     V_3+5 0.750950 0.318670 0.758050 1.405914
V4    V     V_3+5 0.249050 0.681330 0.241950 1.405920
C9    C     C_R   0.085691 0.957437 0.109203 -0.178799
C10   C     C_R   0.914309 0.042558 0.890795 -0.178798
C11   C     C_R   0.415151 0.489238 0.388679 -0.176909
C12   C     C_R   0.584850 0.510763 0.611320 -0.176904
C13   C     C_R   0.029823 0.153999 0.933815 0.380090
C14   C     C_R   0.970178 0.846002 0.066182 0.380077
C15   C     C_R   0.477552 0.345975 0.569563 0.376244
C16   C     C_R   0.522449 0.654031 0.430437 0.376236
C17   C     C_R   0.972155 0.152701 0.882978 0.253183
C18   C     C_R   0.027845 0.847301 0.117019 0.253170
C19   C     C_R   0.533458 0.378494 0.621038 0.253641
C20   C     C_R   0.466542 0.621514 0.378963 0.253664
C21   C     C_R   0.915378 0.935599 0.950087 -0.244391
C22   C     C_R   0.084625 0.064388 0.049909 -0.244372
C23   C     C_R   0.578833 0.607445 0.549449 -0.248260
C24   C     C_R   0.421170 0.392550 0.450549 -0.248265
C25   C     C_R   0.970951 0.945163 0.004122 -0.036397
C26   C     C_R   0.029052 0.054827 0.995874 -0.036410
C27   C     C_R   0.525709 0.565815 0.494941 -0.036146
C28   C     C_R   0.474294 0.434184 0.505058 -0.036142
H1    H     H_    0.128446 0.152483 0.046351 0.148435
H2    H     H_    0.871559 0.847497 0.953645 0.148444
H3    H     H_    0.382496 0.288879 0.456102 0.151056
H4    H     H_    0.617508 0.711113 0.543897 0.151050
C29   C     C_R   0.574392 0.873427 0.882147 -0.149014
C30   C     C_R   0.425607 0.126579 0.117853 -0.149023
C31   C     C_R   0.924278 0.679190 0.608296 -0.109061
C32   C     C_R   0.075721 0.320811 0.391703 -0.109083
C33   C     C_R   0.618578 0.027397 0.883250 -0.111801
C34   C     C_R   0.381421 0.972604 0.116749 -0.111794
C35   C     C_R   0.880042 0.529468 0.615207 -0.123058
C36   C     C_R   0.119958 0.470532 0.384793 -0.123040
C37   C     C_R   0.614671 0.171519 0.930824 -0.161573
C38   C     C_R   0.385324 0.828483 0.069172 -0.161559
C39   C     C_R   0.883468 0.368626 0.575065 -0.166898
C40   C     C_R   0.116533 0.631372 0.424936 -0.166892
C41   C     C_R   0.566663 0.165411 0.976878 0.011114
C42   C     C_R   0.433332 0.834595 0.023117 0.011094
C43   C     C_R   0.928960 0.357301 0.526619 0.013002
C44   C     C_R   0.071041 0.642695 0.473383 0.012994
C45   C     C_R   0.523313 0.006634 0.976291 -0.055211
C46   C     C_R   0.476683 0.993372 0.023706 -0.055212
C47   C     C_R   0.975566 0.506318 0.522510 -0.075218
C48   C     C_R   0.024434 0.493680 0.477491 -0.075214
C49   C     C_R   0.526784 0.860838 0.928208 0.043791
C50   C     C_R   0.473213 0.139174 0.071789 0.043724
C51   C     C_R   0.973158 0.668150 0.563532 0.055685
C52   C     C_R   0.026843 0.331847 0.436468 0.055678
C53   C     C_R   0.562288 0.312092 0.024756 0.270095
C54   C     C_R   0.437702 0.687925 0.975234 0.270112
C55   C     C_R   0.929846 0.198602 0.483270 0.261123
C56   C     C_R   0.070159 0.801385 0.516736 0.261154
C57   C     C_R   0.516567 0.296531 0.073072 0.310438
C58   C     C_R   0.483424 0.703499 0.926920 0.310321
C59   C     C_R   0.979992 0.184294 0.439627 0.337800
C60   C     C_R   0.020012 0.815696 0.560377 0.337831
H5    H     H_    0.577289 0.763102 0.844911 0.160717
H6    H     H_    0.422711 0.236902 0.155090 0.160724
H7    H     H_    0.921823 0.802428 0.639784 0.162939
H8    H     H_    0.078176 0.197573 0.360215 0.162932
H9    H     H_    0.650936 0.285446 0.932446 0.140398
H10   H     H_    0.349058 0.714557 0.067549 0.140386
H11   H     H_    0.850234 0.252523 0.582292 0.143570
H12   H     H_    0.149767 0.747474 0.417709 0.143561
N1    N     N_2   0.024885 0.742432 0.177511 -0.492566
H13   H     H_    0.064183 0.653320 0.190029 0.262134
C61   C     C_3   0.008855 0.847916 0.235818 -0.437543
H14   H     H_    0.050172 0.950314 0.254009 0.163993
H15   H     H_    0.002879 0.752597 0.278564 0.206700
H16   H     H_    0.960576 0.921281 0.221658 0.218632
N2    N     N_2   0.975109 0.257593 0.822493 -0.492571
H17   H     H_    0.935823 0.346753 0.810006 0.262145
C62   C     C_3   0.991099 0.152128 0.764170 -0.437643
H18   H     H_    0.949780 0.049757 0.745989 0.163986
H19   H     H_    0.039368 0.078734 0.778286 0.218648
H20   H     H_    0.997052 0.247464 0.721443 0.206721
N3    N     N_2   0.464482 0.722757 0.316943 -0.493606
H21   H     H_    0.425032 0.812541 0.306765 0.264932
C63   C     C_3   0.478879 0.618438 0.257777 -0.424297
H22   H     H_    0.437599 0.515440 0.240572 0.168630
H23   H     H_    0.527609 0.546343 0.270307 0.218795
H24   H     H_    0.483142 0.714705 0.214933 0.203956
N4    N     N_2   0.535511 0.277278 0.683063 -0.493606
H25   H     H_    0.574965 0.187508 0.693252 0.264923
C64   C     C_3   0.521116 0.381648 0.742217 -0.424175
H26   H     H_    0.562408 0.484684 0.759416 0.168581
H27   H     H_    0.516849 0.285391 0.785075 0.203969
H28   H     H_    0.472377 0.453754 0.729668 0.218772
O21   O     O_3   0.085764 0.255873 0.920877 -0.619028
H29   H     H_    0.126784 0.186196 0.938035 0.286934
O22   O     O_3   0.914234 0.744149 0.079122 -0.619041
H30   H     H_    0.873217 0.813841 0.061964 0.286925
O23   O     O_3   0.427619 0.223812 0.584175 -0.620432
H31   H     H_    0.383152 0.273694 0.564986 0.283998
O24   O     O_3   0.572379 0.776205 0.415825 -0.620439
H32   H     H_    0.616846 0.726337 0.435014 0.284008
O25   O     O_3   0.602381 0.470979 0.026439 -0.650599
H33   H     H_    0.605056 0.507749 0.978593 0.299040
O26   O     O_3   0.397605 0.529038 0.973542 -0.650590
H34   H     H_    0.394919 0.492259 0.021385 0.299040
O27   O     O_3   0.882686 0.055403 0.482322 -0.649482
H35   H     H_    0.837941 0.109527 0.484554 0.288554
O28   O     O_3   0.117327 0.944563 0.517695 -0.649484
H36   H     H_    0.162067 0.890434 0.515448 0.288562
O29   O     O_3   0.511565 0.435677 0.121086 -0.671217
H37   H     H_    0.543367 0.539762 0.115758 0.332516
O30   O     O_3   0.488416 0.564381 0.878900 -0.671302
H38   H     H_    0.456600 0.460398 0.884196 0.332604
O31   O     O_3   0.983272 0.029932 0.397728 -0.655491
H39   H     H_    0.949661 0.933987 0.406708 0.329689
O32   O     O_3   0.016735 0.970049 0.602280 -0.655480
H40   H     H_    0.050341 0.066001 0.593296 0.329699

loop_
_geom_bond_atom_site_label_1
_geom_bond_atom_site_label_2
_ccdc_geom_bond_type
O17   V3    S    
C24   H3    S    
C55   C59   A    
C56   O28   S    
C30   C34   A    
C15   O23   S    
O19   V1    S    
O13   V1    S    
C45   C46   A    
C62   H18   S    
O3    C7    A    
C63   H22   S    
C44   C48   A    
O15   V3    S    
N1    H13   S    
O22   H30   S    
C14   C25   A    
C38   C42   A    
O1    C5    A    
C6    C11   S    
C62   H19   S    
C40   H12   S    
C29   H5    S    
C9    C18   A    
C36   C40   A    
O9    V1    S    
C14   C18   A    
C52   C59   A    
N3    C63   S    
O4    C8    A    
O32   H40   S    
O1    V3    S    
C12   C23   A    
O2    V4    S    
O3    V1    S    
C42   C46   A    
C19   N4    S    
C1    O15   A    
C32   C52   A    
C2    O16   A    
N4    C64   S    
O2    C6    A    
C41   C45   A    
O14   V2    S    
C60   O32   S    
C43   C55   A    
C14   O22   S    
C40   C44   A    
C38   H10   S    
C20   N3    S    
O11   C7    A    
C15   C28   A    
O12   C8    A    
C39   H11   S    
C9    C22   A    
C10   C17   A    
O10   V2    S    
C11   C24   A    
C51   C60   A    
N1    C61   S    
O5    V1    S    
C32   H8    S    
C62   H20   S    
C35   C39   A    
O7    V3    S    
C34   C38   A    
C27   C28   A    
O8    V4    S    
C29   C49   A    
O28   H36   S    
C24   C28   A    
C63   H23   S    
C18   N1    S    
C31   C51   A    
C5    C12   S    
O18   V4    S    
C23   C27   A    
C54   C58   A    
C16   O24   S    
C17   N2    S    
C56   C60   A    
O7    C3    A    
C47   C48   A    
O5    C1    A    
C4    C34   S    
C53   O25   S    
C61   H14   S    
C21   C25   A    
O8    C4    A    
C7    C10   S    
O9    C5    A    
N2    C62   S    
C10   C21   A    
C31   H7    S    
C59   O31   S    
O11   V3    S    
C11   C20   A    
C30   H6    S    
O21   H29   S    
C44   C56   A    
C58   O30   S    
C13   O21   S    
C50   C57   A    
C61   H15   S    
C21   H2    S    
O23   H31   S    
C64   H28   S    
C4    O14   A    
O24   H32   S    
C57   O29   S    
O25   H33   S    
O16   V4    S    
C3    O13   A    
O6    V2    S    
C1    C35   S    
C2    C36   S    
C48   C52   A    
C3    C33   S    
C49   C58   A    
C15   C19   A    
O30   H38   S    
C29   C33   A    
O12   V4    S    
C16   C27   A    
O29   H37   S    
C22   C26   A    
C31   C35   A    
C8    C9    S    
C32   C36   A    
O10   C6    A    
C64   H27   S    
C64   H26   S    
C43   C47   A    
C13   C26   A    
N4    H25   S    
O27   H35   S    
C37   C41   A    
C22   H1    S    
O20   V2    S    
C37   H9    S    
C63   H24   S    
C39   C43   A    
C13   C17   A    
C42   C54   A    
O4    V2    S    
C55   O27   S    
C41   C53   A    
O6    C2    A    
C30   C50   A    
C33   C37   A    
C16   C20   A    
C61   H16   S    
C25   C26   A    
C46   C50   A    
N3    H21   S    
N2    H17   S    
C45   C49   A    
C12   C19   A    
C54   O26   S    
O31   H39   S    
C47   C51   A    
C53   C57   A    
O26   H34   S    
C23   H4    S    
