data_mof_unit_62567.cif
_audit_creation_date              2012-12-10T18:10:27-0500
_audit_creation_method            fapswitch 2.2
_symmetry_space_group_name_H-M    P1
_symmetry_Int_Tables_number       1
_space_group_crystal_system       triclinic
_cell_length_a                    18.376793
_cell_length_b                    18.376886
_cell_length_c                    38.946281
_cell_angle_alpha                 89.999273
_cell_angle_beta                  90.000176
_cell_angle_gamma                 90.000621
_cell_volume                      13152.47962

loop_
_atom_site_label
_atom_site_type_symbol
_atom_type_description
_atom_site_fract_x
_atom_site_fract_y
_atom_site_fract_z
_atom_type_partial_charge
C1    C     C_R   0.500000 0.139784 0.500023 0.858415
C2    C     C_R   0.860216 0.500000 0.499976 0.858442
C3    C     C_R   0.500000 0.860216 0.500022 0.858427
C4    C     C_R   0.139784 0.500000 0.499977 0.858433
C5    C     C_R   0.000001 0.639784 0.999979 0.858421
C6    C     C_R   0.360216 1.000000 0.000023 0.858489
C7    C     C_R   0.999999 0.360216 0.999979 0.858432
C8    C     C_R   0.639784 0.000000 0.000023 0.858496
C9    C     C_R   0.499997 0.999997 0.215876 0.461057
C10   C     C_R   0.000005 0.500003 0.214224 0.459776
C11   C     C_R   0.500000 0.000010 0.785776 0.459792
C12   C     C_R   0.000001 0.499996 0.784122 0.461050
C13   C     C_R   0.000001 0.499996 0.714224 0.459792
C14   C     C_R   0.500000 0.000014 0.715878 0.461049
C15   C     C_R   0.000008 0.500003 0.284123 0.461034
C16   C     C_R   0.499999 0.999997 0.285775 0.459805
C17   C     C_R   0.500000 0.000001 0.433951 0.913273
C18   C     C_R   0.000001 0.500000 0.433569 0.839975
C19   C     C_R   0.500000 0.000003 0.566431 0.839907
C20   C     C_R   0.000000 0.499999 0.566049 0.913276
C21   C     C_R   1.000000 0.499999 0.933569 0.839938
C22   C     C_R   0.500000 0.000001 0.933951 0.913285
C23   C     C_R   1.000000 0.500000 0.066049 0.913270
C24   C     C_R   0.500000 1.000000 0.066431 0.840264
C25   C     C_1   0.499997 0.217212 0.500032 -0.178354
C26   C     C_1   0.782788 0.500001 0.499966 -0.178392
C27   C     C_1   0.500003 0.782788 0.500031 -0.178346
C28   C     C_1   0.217212 0.499999 0.499967 -0.178382
C29   C     C_1   0.000006 0.717212 0.999970 -0.178275
C30   C     C_1   0.282788 0.999997 0.000033 -0.178340
C31   C     C_1   0.999994 0.282788 0.999969 -0.178276
C32   C     C_1   0.717212 0.000003 0.000033 -0.178342
C33   C     C_1   0.499942 0.282437 0.500008 -0.173761
C34   C     C_1   0.717563 0.500057 0.499992 -0.173770
C35   C     C_1   0.500058 0.717563 0.500007 -0.173759
C36   C     C_1   0.282437 0.499943 0.499992 -0.173768
C37   C     C_1   0.000061 0.782437 0.999994 -0.173723
C38   C     C_1   0.217563 0.999942 0.000008 -0.173742
C39   C     C_1   0.999939 0.217563 0.999993 -0.173731
C40   C     C_1   0.782437 0.000058 0.000008 -0.173747
C41   C     C_R   0.481436 0.063616 0.378260 0.363400
C42   C     C_R   0.989798 0.434457 0.376562 0.380402
C43   C     C_R   0.518562 0.936383 0.378261 0.363430
C44   C     C_R   0.010215 0.565547 0.376562 0.380407
C45   C     C_R   0.434447 0.989861 0.623440 0.380409
C46   C     C_R   0.936361 0.518479 0.621739 0.363416
C47   C     C_R   0.565553 0.010164 0.623439 0.380428
C48   C     C_R   0.063639 0.481514 0.621739 0.363438
C49   C     C_R   0.934448 0.510158 0.876561 0.380412
C50   C     C_R   0.436365 0.981506 0.878261 0.363420
C51   C     C_R   0.065552 0.489835 0.876562 0.380415
C52   C     C_R   0.563636 0.018502 0.878262 0.363419
C53   C     C_R   0.981345 0.436412 0.121740 0.363399
C54   C     C_R   0.489652 0.065522 0.123435 0.380370
C55   C     C_R   0.018657 0.563590 0.121738 0.363404
C56   C     C_R   0.510347 0.934476 0.123435 0.380366
C57   C     C_R   0.483195 0.063698 0.342215 -0.241294
C58   C     C_R   0.988358 0.435417 0.340550 -0.247495
C59   C     C_R   0.516803 0.936299 0.342216 -0.241330
C60   C     C_R   0.011658 0.564588 0.340550 -0.247506
C61   C     C_R   0.435404 0.988424 0.659452 -0.247461
C62   C     C_R   0.936279 0.516716 0.657783 -0.241300
C63   C     C_R   0.564596 0.011606 0.659451 -0.247500
C64   C     C_R   0.063722 0.483277 0.657784 -0.241318
C65   C     C_R   0.935407 0.511597 0.840549 -0.247488
C66   C     C_R   0.436282 0.983270 0.842217 -0.241318
C67   C     C_R   0.064594 0.488395 0.840549 -0.247492
C68   C     C_R   0.563718 0.016743 0.842217 -0.241317
C69   C     C_R   0.983106 0.436326 0.157784 -0.241314
C70   C     C_R   0.488210 0.064558 0.159448 -0.247627
C71   C     C_R   0.016898 0.563678 0.157783 -0.241309
C72   C     C_R   0.511785 0.935437 0.159448 -0.247623
C73   C     C_R   0.499999 0.999998 0.323869 -0.064692
C74   C     C_R   0.000008 0.500003 0.322223 -0.067045
C75   C     C_R   0.500000 0.000015 0.677778 -0.067063
C76   C     C_R   0.000001 0.499996 0.676131 -0.064708
C77   C     C_R   0.000000 0.499996 0.822222 -0.067053
C78   C     C_R   0.500000 0.000008 0.823870 -0.064698
C79   C     C_R   0.000003 0.500003 0.176131 -0.064690
C80   C     C_R   0.499997 0.999997 0.177775 -0.066929
C81   C     C_R   0.359873 0.499924 0.500000 0.844546
C82   C     C_R   0.499924 0.359873 0.500000 0.844535
C83   C     C_R   0.640127 0.500075 0.500000 0.844549
C84   C     C_R   0.500076 0.640127 0.499999 0.844532
C85   C     C_R   0.859873 0.000076 1.000000 0.844540
C86   C     C_R   0.000077 0.859873 0.000000 0.844509
C87   C     C_R   0.140127 0.999924 1.000000 0.844538
C88   C     C_R   0.999923 0.140127 0.000000 0.844511
C89   C     C_R   0.499999 0.000000 0.396278 -0.190403
C90   C     C_R   0.000005 0.500001 0.395182 -0.229405
C91   C     C_R   0.500000 0.000009 0.604818 -0.229444
C92   C     C_R   0.000000 0.499998 0.603722 -0.190412
C93   C     C_R   1.000000 0.499997 0.895182 -0.229433
C94   C     C_R   0.500000 0.000002 0.896278 -0.190394
C95   C     C_R   1.000000 0.500001 0.103722 -0.190427
C96   C     C_R   0.499999 0.999999 0.104816 -0.229206
Cu1   Cu    Cu3+1 0.572410 0.000000 0.500000 0.964650
Cu2   Cu    Cu3+1 1.000000 0.572410 0.500000 0.964650
Cu3   Cu    Cu3+1 0.427590 0.000000 0.500000 0.964643
Cu4   Cu    Cu3+1 0.000000 0.427590 0.500000 0.964663
Cu5   Cu    Cu3+1 0.072410 0.500000 0.000000 0.964603
Cu6   Cu    Cu3+1 0.500000 0.072410 0.000000 0.964605
Cu7   Cu    Cu3+1 0.927590 0.500000 0.000000 0.964609
Cu8   Cu    Cu3+1 0.500000 0.927590 0.000000 0.964605
Cu9   Cu    Cu3+1 0.500000 0.500000 0.465910 0.972517
Cu10  Cu    Cu3+1 0.500000 0.500000 0.534090 0.972478
Cu11  Cu    Cu3+1 1.000000 0.000000 0.965910 0.972478
Cu12  Cu    Cu3+1 1.000000 0.000000 0.034090 0.972601
H1    H     H_    0.471384 0.113814 0.328702 0.173294
H2    H     H_    0.978325 0.384918 0.327020 0.176051
H3    H     H_    0.528612 0.886183 0.328704 0.173276
H4    H     H_    0.021693 0.615087 0.327020 0.176046
H5    H     H_    0.384894 0.978439 0.672981 0.176066
H6    H     H_    0.886147 0.528462 0.671296 0.173299
H7    H     H_    0.615104 0.021595 0.672981 0.176051
H8    H     H_    0.113854 0.471530 0.671297 0.173288
H9    H     H_    0.884900 0.521594 0.827019 0.176055
H10   H     H_    0.386154 0.971511 0.828704 0.173289
H11   H     H_    0.115101 0.478397 0.827020 0.176054
H12   H     H_    0.613847 0.028503 0.828705 0.173291
H13   H     H_    0.971223 0.386228 0.171297 0.173291
H14   H     H_    0.478060 0.115032 0.172978 0.175990
H15   H     H_    0.028786 0.613777 0.171295 0.173290
H16   H     H_    0.521936 0.884962 0.172979 0.175989
N1    N     N_R   0.513948 0.938040 0.267926 -0.242589
N2    N     N_R   0.013891 0.561975 0.266271 -0.242472
N3    N     N_R   0.486048 0.061954 0.267925 -0.242590
N4    N     N_R   0.986123 0.438030 0.266272 -0.242473
N5    N     N_R   0.561991 0.013815 0.733729 -0.242474
N6    N     N_R   0.061993 0.486198 0.732073 -0.242578
N7    N     N_R   0.438009 0.986212 0.733729 -0.242474
N8    N     N_R   0.938009 0.513794 0.732073 -0.242578
N9    N     N_R   0.062000 0.486230 0.766272 -0.242480
N10   N     N_R   0.561984 0.013846 0.767928 -0.242581
N11   N     N_R   0.938002 0.513761 0.766271 -0.242479
N12   N     N_R   0.438016 0.986177 0.767927 -0.242580
N13   N     N_R   0.013923 0.561968 0.232073 -0.242572
N14   N     N_R   0.513916 0.938033 0.233727 -0.242492
N15   N     N_R   0.986088 0.438038 0.232073 -0.242572
N16   N     N_R   0.486079 0.061961 0.233726 -0.242492
O1    O     O_R   0.561130 0.105710 0.500120 -0.571463
O2    O     O_R   0.894290 0.561130 0.500120 -0.601954
O3    O     O_R   0.438870 0.894290 0.500120 -0.571458
O4    O     O_R   0.105710 0.438870 0.500120 -0.601968
O5    O     O_R   0.561130 0.894290 0.499880 -0.601973
O6    O     O_R   0.894290 0.438870 0.499880 -0.571444
O7    O     O_R   0.438870 0.105710 0.499880 -0.601962
O8    O     O_R   0.105710 0.561130 0.499880 -0.571444
O9    O     O_R   0.061130 0.605710 0.000120 -0.601989
O10   O     O_R   0.394290 0.061130 0.000120 -0.571459
O11   O     O_R   0.938870 0.394290 0.000120 -0.601973
O12   O     O_R   0.605710 0.938870 0.000120 -0.571461
O13   O     O_R   0.061130 0.394290 0.999880 -0.571489
O14   O     O_R   0.394290 0.938870 0.999880 -0.601963
O15   O     O_R   0.938870 0.605710 0.999880 -0.571486
O16   O     O_R   0.605710 0.061130 0.999880 -0.601955
O17   O     O_R   0.561130 0.999920 0.450200 -0.590636
O18   O     O_R   0.000080 0.561130 0.450200 -0.559331
O19   O     O_R   0.438870 0.000080 0.450200 -0.590666
O20   O     O_R   0.999920 0.438870 0.450200 -0.559330
O21   O     O_R   0.561130 0.000080 0.549800 -0.559294
O22   O     O_R   0.000080 0.438870 0.549800 -0.590633
O23   O     O_R   0.438870 0.999920 0.549800 -0.559310
O24   O     O_R   0.999920 0.561130 0.549800 -0.590657
O25   O     O_R   0.061130 0.499920 0.950200 -0.559295
O26   O     O_R   0.500080 0.061130 0.950200 -0.590659
O27   O     O_R   0.938870 0.500080 0.950200 -0.559296
O28   O     O_R   0.499920 0.938870 0.950200 -0.590652
O29   O     O_R   0.061130 0.500080 0.049800 -0.590664
O30   O     O_R   0.500080 0.938870 0.049800 -0.559383
O31   O     O_R   0.938870 0.499920 0.049800 -0.590666
O32   O     O_R   0.499920 0.061130 0.049800 -0.559380
O33   O     O_R   0.394020 0.499870 0.471240 -0.582876
O34   O     O_R   0.500130 0.394020 0.471240 -0.583939
O35   O     O_R   0.605980 0.500130 0.471240 -0.582874
O36   O     O_R   0.499870 0.605980 0.471240 -0.583942
O37   O     O_R   0.394020 0.500130 0.528760 -0.583959
O38   O     O_R   0.500130 0.605980 0.528760 -0.582885
O39   O     O_R   0.605980 0.499870 0.528760 -0.583960
O40   O     O_R   0.499870 0.394020 0.528760 -0.582885
O41   O     O_R   0.894020 0.999870 0.971240 -0.583967
O42   O     O_R   0.000130 0.894020 0.971240 -0.582894
O43   O     O_R   0.105980 0.000130 0.971240 -0.583966
O44   O     O_R   0.999870 0.105980 0.971240 -0.582895
O45   O     O_R   0.894020 0.000130 0.028760 -0.582860
O46   O     O_R   0.000130 0.105980 0.028760 -0.583913
O47   O     O_R   0.105980 0.999870 0.028760 -0.582860
O48   O     O_R   0.999870 0.894020 0.028760 -0.583912
O49   O     O_3   0.468021 0.127341 0.396084 -0.610657
C97   C     C_3   0.392971 0.143333 0.394361 0.055652
H17   H     H_    0.359917 0.096304 0.403599 0.151782
H18   H     H_    0.376840 0.157031 0.367563 0.143196
C98   C     C_3   0.377075 0.208878 0.417301 -0.293811
H19   H     H_    0.393524 0.196193 0.444074 0.230772
H20   H     H_    0.409254 0.256439 0.408324 0.229978
C99   C     C_3   0.296416 0.228401 0.416900 -0.946133
H21   H     H_    0.278679 0.242406 0.390446 0.260249
H22   H     H_    0.286767 0.276099 0.433804 0.260244
H23   H     H_    0.263520 0.181959 0.426509 0.262673
O50   O     O_3   0.975801 0.369716 0.393385 -0.585250
C100  C     C_3   0.040066 0.327551 0.393805 0.086332
H24   H     H_    0.086267 0.359000 0.405036 0.142093
H25   H     H_    0.054708 0.309872 0.367330 0.130594
C101  C     C_3   0.027164 0.259984 0.415843 -0.292743
H26   H     H_    0.008375 0.276783 0.441796 0.231086
H27   H     H_    0.984019 0.225994 0.403884 0.219162
C102  C     C_3   0.096422 0.214923 0.419548 -0.954287
H28   H     H_    0.116929 0.198019 0.393928 0.262180
H29   H     H_    0.084807 0.165415 0.434943 0.259828
H30   H     H_    0.138933 0.247138 0.432945 0.264980
O51   O     O_3   0.531975 0.872660 0.396089 -0.610663
C103  C     C_3   0.607018 0.856641 0.394350 0.055669
H31   H     H_    0.640103 0.903676 0.403556 0.151740
H32   H     H_    0.623104 0.842882 0.367554 0.143217
C104  C     C_3   0.622923 0.791138 0.417316 -0.293832
H33   H     H_    0.606521 0.803885 0.444088 0.230784
H34   H     H_    0.590710 0.743571 0.408373 0.229990
C105  C     C_3   0.703573 0.771581 0.416897 -0.946130
H35   H     H_    0.721264 0.757512 0.390444 0.260255
H36   H     H_    0.713230 0.723916 0.433822 0.260243
H37   H     H_    0.736504 0.818031 0.426471 0.262668
O52   O     O_3   0.024211 0.630287 0.393387 -0.585250
C106  C     C_3   0.959950 0.672457 0.393801 0.086329
H38   H     H_    0.913738 0.641006 0.405020 0.142076
H39   H     H_    0.945331 0.690154 0.367325 0.130610
C107  C     C_3   0.972841 0.740009 0.415850 -0.292721
H40   H     H_    0.991599 0.723191 0.441806 0.231077
H41   H     H_    0.016007 0.773997 0.403907 0.219167
C108  C     C_3   0.903588 0.785082 0.419544 -0.954294
H42   H     H_    0.883116 0.802011 0.393921 0.262179
H43   H     H_    0.915192 0.834575 0.434950 0.259824
H44   H     H_    0.861054 0.752866 0.432923 0.264976
O53   O     O_3   0.369692 0.975922 0.606618 -0.585246
C109  C     C_3   0.327609 0.040239 0.606179 0.086340
H45   H     H_    0.359110 0.086380 0.594925 0.142109
H46   H     H_    0.309967 0.054952 0.632651 0.130572
C110  C     C_3   0.260011 0.027380 0.584158 -0.292725
H47   H     H_    0.276768 0.008505 0.558212 0.231097
H48   H     H_    0.225968 0.984312 0.596145 0.219143
C111  C     C_3   0.215048 0.096692 0.580422 -0.954331
H49   H     H_    0.198195 0.117284 0.606034 0.262184
H50   H     H_    0.165513 0.085108 0.565043 0.259834
H51   H     H_    0.247316 0.139123 0.566996 0.264981
O54   O     O_3   0.872623 0.531829 0.603913 -0.610653
C112  C     C_3   0.856548 0.606861 0.605643 0.055588
H52   H     H_    0.903542 0.639971 0.596410 0.151769
H53   H     H_    0.842828 0.622965 0.632442 0.143214
C113  C     C_3   0.790989 0.622698 0.582703 -0.293804
H54   H     H_    0.803696 0.606277 0.555929 0.230745
H55   H     H_    0.743461 0.590463 0.591675 0.230002
C114  C     C_3   0.771382 0.703335 0.583110 -0.946098
H56   H     H_    0.757357 0.721045 0.609566 0.260251
H57   H     H_    0.723676 0.712943 0.566205 0.260259
H58   H     H_    0.817793 0.736282 0.573506 0.262671
O55   O     O_3   0.630306 0.024103 0.606615 -0.585244
C115  C     C_3   0.672412 0.959801 0.606194 0.086330
H59   H     H_    0.640919 0.913626 0.594968 0.142064
H60   H     H_    0.690086 0.945149 0.632669 0.130611
C116  C     C_3   0.739984 0.972640 0.584152 -0.292726
H61   H     H_    0.723192 0.991431 0.558198 0.231081
H62   H     H_    0.774011 0.015763 0.596104 0.219165
C117  C     C_3   0.784989 0.903346 0.580452 -0.954315
H63   H     H_    0.801893 0.882844 0.606073 0.262180
H64   H     H_    0.834496 0.914913 0.565050 0.259827
H65   H     H_    0.752732 0.860851 0.567066 0.264985
O56   O     O_3   0.127376 0.468159 0.603913 -0.610656
C118  C     C_3   0.143460 0.393130 0.605653 0.055591
H66   H     H_    0.096458 0.360007 0.596440 0.151741
H67   H     H_    0.157215 0.377051 0.632452 0.143227
C119  C     C_3   0.208991 0.377282 0.582697 -0.293826
H68   H     H_    0.196244 0.393674 0.555924 0.230753
H69   H     H_    0.256524 0.409536 0.591647 0.230012
C120  C     C_3   0.228614 0.296648 0.583118 -0.946078
H70   H     H_    0.242679 0.278968 0.609574 0.260245
H71   H     H_    0.276298 0.287031 0.566200 0.260261
H72   H     H_    0.182195 0.263683 0.573537 0.262682
O57   O     O_3   0.869697 0.524110 0.893384 -0.585248
C121  C     C_3   0.827581 0.459813 0.893810 0.086332
H73   H     H_    0.859061 0.413646 0.905050 0.142094
H74   H     H_    0.809923 0.445140 0.867335 0.130593
C122  C     C_3   0.759995 0.472678 0.915838 -0.292734
H75   H     H_    0.776769 0.491502 0.941790 0.231077
H76   H     H_    0.725976 0.515787 0.903869 0.219155
C123  C     C_3   0.714985 0.403388 0.919551 -0.954309
H77   H     H_    0.698108 0.382849 0.893933 0.262180
H78   H     H_    0.665462 0.414977 0.934939 0.259823
H79   H     H_    0.747228 0.360914 0.932959 0.264977
O58   O     O_3   0.372630 0.968139 0.896087 -0.610658
C124  C     C_3   0.356560 0.893107 0.894350 0.055614
H80   H     H_    0.403568 0.859994 0.903564 0.151743
H81   H     H_    0.342807 0.877024 0.867552 0.143226
C125  C     C_3   0.291032 0.877247 0.917306 -0.293826
H82   H     H_    0.303773 0.893648 0.944079 0.230759
H83   H     H_    0.243490 0.909485 0.908354 0.230001
C126  C     C_3   0.271430 0.796608 0.916891 -0.946097
H84   H     H_    0.257361 0.778920 0.890437 0.260250
H85   H     H_    0.223753 0.786981 0.933812 0.260254
H86   H     H_    0.317859 0.763657 0.926471 0.262669
O59   O     O_3   0.130303 0.475883 0.893385 -0.585248
C127  C     C_3   0.172421 0.540179 0.893809 0.086333
H87   H     H_    0.140940 0.586351 0.905044 0.142089
H88   H     H_    0.190083 0.554845 0.867333 0.130597
C128  C     C_3   0.240003 0.527318 0.915841 -0.292731
H89   H     H_    0.223223 0.508503 0.941793 0.231077
H90   H     H_    0.274022 0.484204 0.903876 0.219155
C129  C     C_3   0.285015 0.596607 0.919550 -0.954309
H91   H     H_    0.301900 0.617136 0.893931 0.262179
H92   H     H_    0.334533 0.585022 0.934941 0.259823
H93   H     H_    0.252771 0.639088 0.932952 0.264979
O60   O     O_3   0.627371 0.031863 0.896088 -0.610657
C130  C     C_3   0.643443 0.106896 0.894353 0.055608
H94   H     H_    0.596442 0.140006 0.903577 0.151754
H95   H     H_    0.657177 0.122990 0.867554 0.143216
C131  C     C_3   0.708989 0.122745 0.917300 -0.293820
H96   H     H_    0.696267 0.106336 0.944074 0.230749
H97   H     H_    0.756523 0.090508 0.908338 0.230002
C132  C     C_3   0.728596 0.203382 0.916885 -0.946095
H98   H     H_    0.742636 0.221080 0.890429 0.260248
H99   H     H_    0.776292 0.213000 0.933795 0.260260
H100  H     H_    0.682178 0.236333 0.926479 0.262669
O61   O     O_3   0.967838 0.372708 0.103914 -0.610662
C133  C     C_3   0.892767 0.356814 0.105642 0.055754
H101  H     H_    0.859770 0.403897 0.096420 0.151776
H102  H     H_    0.876635 0.343109 0.132439 0.143186
C134  C     C_3   0.876770 0.291316 0.082688 -0.293831
H103  H     H_    0.893223 0.304005 0.055916 0.230812
H104  H     H_    0.908891 0.243704 0.091651 0.229949
C135  C     C_3   0.796084 0.271899 0.083096 -0.946157
H105  H     H_    0.778345 0.257898 0.109551 0.260268
H106  H     H_    0.786361 0.224226 0.066186 0.260209
H107  H     H_    0.763241 0.318391 0.073501 0.262595
O62   O     O_3   0.475514 0.130225 0.106604 -0.585265
C136  C     C_3   0.539639 0.172607 0.106248 0.086305
H108  H     H_    0.586023 0.141287 0.095106 0.141963
H109  H     H_    0.554038 0.190417 0.132733 0.130729
C137  C     C_3   0.526656 0.240059 0.084143 -0.292807
H110  H     H_    0.508211 0.223106 0.058157 0.231027
H111  H     H_    0.483232 0.273880 0.095982 0.219276
C138  C     C_3   0.595745 0.285430 0.080572 -0.954210
H112  H     H_    0.615881 0.302533 0.106228 0.262174
H113  H     H_    0.584075 0.334821 0.065103 0.259822
H114  H     H_    0.638558 0.253363 0.067312 0.264956
O63   O     O_3   0.032169 0.627292 0.103911 -0.610663
C139  C     C_3   0.107242 0.643173 0.105637 0.055760
H115  H     H_    0.140235 0.596076 0.096428 0.151758
H116  H     H_    0.123373 0.656906 0.132431 0.143202
C140  C     C_3   0.123252 0.708642 0.082666 -0.293857
H117  H     H_    0.106804 0.695922 0.055896 0.230831
H118  H     H_    0.091134 0.756269 0.091613 0.229955
C141  C     C_3   0.203939 0.728049 0.083072 -0.946163
H119  H     H_    0.221667 0.742098 0.109523 0.260272
H120  H     H_    0.213675 0.775687 0.066141 0.260209
H121  H     H_    0.236780 0.681533 0.073501 0.262600
O64   O     O_3   0.524490 0.869773 0.106605 -0.585267
C142  C     C_3   0.460366 0.827390 0.106246 0.086305
H122  H     H_    0.413984 0.858708 0.095101 0.141974
H123  H     H_    0.445960 0.809583 0.132731 0.130719
C143  C     C_3   0.473357 0.759935 0.084146 -0.292812
H124  H     H_    0.491819 0.776885 0.058161 0.231034
H125  H     H_    0.516771 0.726112 0.095992 0.219269
C144  C     C_3   0.404267 0.714569 0.080566 -0.954206
H126  H     H_    0.384108 0.697477 0.106220 0.262173
H127  H     H_    0.415945 0.665172 0.065104 0.259823
H128  H     H_    0.361468 0.746636 0.067295 0.264959

loop_
_geom_bond_atom_site_label_1
_geom_bond_atom_site_label_2
_ccdc_geom_bond_type
C133  H102  S    
C53   C95   A    
C100  H25   S    
C106  H38   S    
C48   C92   A    
C53   C69   A    
C42   C58   A    
C106  C107  S    
C128  H90   S    
C136  H108  S    
C122  C123  S    
C20   C92   S    
C43   C89   A    
Cu11  O41   S    
Cu3   O3    S    
C123  H77   S    
N4    N15   A    
C62   H6    S    
C99   H23   S    
C133  C134  S    
C4    O8    A    
C115  C116  S    
C120  H72   S    
C5    O9    A    
O54   C112  S    
C30   C38   T    
C143  C144  S    
Cu1   Cu3   S    
C57   H1    S    
C82   O34   A    
C56   C72   A    
Cu9   O36   S    
C102  H30   S    
C59   H3    S    
C13   N6    A    
C43   O51   S    
C59   C73   A    
Cu10  O37   S    
C98   H19   S    
C22   O28   A    
C45   C61   A    
Cu5   Cu7   S    
C112  H52   S    
C72   H16   S    
C109  H46   S    
C113  H55   S    
Cu6   O32   S    
C144  H128  S    
C65   C77   A    
C17   C89   S    
Cu4   O4    S    
C99   H21   S    
C27   C35   T    
C131  H96   S    
C5    O15   A    
C109  C110  S    
C132  H100  S    
C104  H33   S    
C108  H42   S    
C9    N14   A    
C128  H89   S    
C54   C70   A    
C129  H91   S    
C2    C26   S    
C55   C95   A    
C6    C30   S    
C46   C62   A    
C119  H69   S    
C104  C105  S    
C127  H87   S    
C136  C137  S    
Cu12  O46   S    
Cu3   O7    S    
C58   H2    S    
Cu1   O5    S    
Cu12  O48   S    
C123  H79   S    
C137  H110  S    
C116  H62   S    
C4    O4    A    
C35   C84   S    
N1    N14   A    
C41   O49   S    
Cu8   O12   S    
C24   C96   S    
C11   N12   A    
C21   C93   S    
C125  H83   S    
C13   N8    A    
C23   C95   S    
C141  H119  S    
C22   O26   A    
C23   O31   A    
C103  H31   S    
O61   C133  S    
C112  C113  S    
C49   C93   A    
C55   C71   A    
C41   C89   A    
Cu7   O27   S    
C97   H17   S    
Cu3   O19   S    
C67   C77   A    
C71   C79   A    
C126  H85   S    
C71   H15   S    
C8    O12   A    
C108  H44   S    
C87   O43   A    
C9    N16   A    
C88   O44   A    
C140  H118  S    
C57   C73   A    
C134  H104  S    
C52   O60   S    
C115  H60   S    
Cu11  Cu12  S    
C49   O57   S    
C17   O17   A    
O53   C109  S    
C127  C128  S    
C43   C59   A    
Cu6   O26   S    
Cu9   O33   S    
O57   C121  S    
Cu2   O2    S    
Cu7   O31   S    
C22   C94   S    
C134  H103  S    
C137  C138  S    
Cu10  O40   S    
C85   O45   A    
C37   C86   S    
C19   C91   S    
O62   C136  S    
N7    N12   A    
C11   N10   A    
C66   H10   S    
C50   C94   A    
C114  H58   S    
C87   O47   A    
C12   N11   A    
C42   C90   A    
C81   O33   A    
Cu6   Cu8   S    
C70   H14   S    
C105  H36   S    
C23   O29   A    
C103  C104  S    
C56   O64   S    
C36   C81   S    
C98   C99   S    
C20   O22   A    
C12   C77   S    
C124  H80   S    
C19   O23   A    
C143  H125  S    
C51   C93   A    
Cu3   O23   S    
C142  H123  S    
C3    O5    A    
Cu1   O21   S    
C130  H95   S    
C2    O2    A    
C1    O7    A    
C44   O52   S    
N3    N16   A    
Cu6   O16   S    
C58   C74   A    
C105  H37   S    
Cu8   O30   S    
C142  H122  S    
C85   O41   A    
C101  H27   S    
C135  H105  S    
C118  H66   S    
C106  H39   S    
C117  H63   S    
C122  H76   S    
C83   O39   A    
Cu11  O44   S    
C12   N9    A    
C3    C27   S    
C81   O37   A    
C72   C80   A    
C68   H12   S    
C140  C141  S    
C51   C67   A    
C63   C75   A    
C63   H7    S    
C111  H49   S    
C120  H71   S    
C17   O19   A    
C16   N3    A    
C69   C79   A    
C138  H114  S    
C139  H115  S    
C107  H40   S    
Cu9   O35   S    
C110  C111  S    
C102  H29   S    
C65   H9    S    
C121  H73   S    
Cu4   O22   S    
C67   H11   S    
Cu10  O38   S    
C116  H61   S    
C25   C33   T    
N2    N13   A    
C86   O48   A    
C64   H8    S    
C46   O54   S    
C130  H94   S    
C117  H65   S    
C51   O59   S    
C44   C90   A    
C114  H56   S    
C144  H127  S    
C54   O62   S    
C45   O53   S    
C47   C63   A    
C48   C64   A    
C46   C92   A    
C131  H97   S    
C20   O24   A    
C124  C125  S    
C21   O25   A    
C19   O21   A    
C132  H99   S    
C97   C98   S    
Cu2   O18   S    
C121  C122  S    
C129  H92   S    
Cu5   O29   S    
C33   C82   S    
Cu7   O11   S    
C131  C132  S    
C133  H101  S    
C55   O63   S    
C119  C120  S    
C62   C76   A    
C39   C88   S    
C135  H107  S    
C127  H88   S    
C128  C129  S    
C14   N7    A    
C136  H109  S    
C68   C78   A    
C66   C78   A    
C129  H93   S    
Cu11  O42   S    
C70   C80   A    
C102  H28   S    
C18   C90   S    
Cu12  O45   S    
C137  H111  S    
C140  H117  S    
C141  H121  S    
C111  H51   S    
C40   C85   S    
O59   C127  S    
C47   O55   S    
C18   O18   A    
C138  H112  S    
C101  C102  S    
C48   O56   S    
C3    O3    A    
C141  H120  S    
Cu1   O1    S    
C6    O14   A    
Cu6   O10   S    
C7    O11   A    
Cu7   O15   S    
C103  H32   S    
Cu2   Cu4   S    
C15   N4    A    
C112  H53   S    
N6    N9    A    
C109  H45   S    
C126  H84   S    
C113  H54   S    
C56   C96   A    
O60   C130  S    
C97   H18   S    
C50   O58   S    
C47   C91   A    
C10   C79   S    
C53   O61   S    
Cu9   Cu10  S    
C21   O27   A    
C38   C87   S    
C14   C75   S    
C41   C57   A    
C108  H43   S    
C118  H67   S    
Cu2   O8    S    
C44   C60   A    
C123  H78   S    
C118  C119  S    
O49   C97   S    
C45   C91   A    
C1    O1    A    
N5    N10   A    
C6    O10   A    
C15   C74   S    
C28   C36   T    
C29   C37   T    
C86   O42   A    
C119  H68   S    
Cu8   O14   S    
C84   O36   A    
C14   N5    A    
O63   C139  S    
C83   O35   A    
C100  H24   S    
Cu12  O47   S    
C116  C117  S    
C61   C75   A    
C49   C65   A    
C132  H98   S    
C125  H82   S    
C104  H34   S    
C114  H57   S    
C60   C74   A    
C26   C34   T    
O51   C103  S    
Cu4   O6    S    
O50   C100  S    
C98   H20   S    
C15   N2    A    
C139  C140  S    
C52   C94   A    
C10   N13   A    
C54   C96   A    
C52   C68   A    
C113  C114  S    
C88   O46   A    
C1    C25   S    
C143  H124  S    
C24   O32   A    
C4    C28   S    
C126  H86   S    
C5    C29   S    
C7    C31   S    
C16   C73   S    
C8    C32   S    
C18   O20   A    
C135  H106  S    
C117  H64   S    
C122  H75   S    
Cu11  O43   S    
C9    C80   S    
Cu1   O17   S    
C134  C135  S    
Cu5   O25   S    
C60   H4    S    
C11   C78   S    
Cu8   O28   S    
Cu4   O20   S    
C7    O13   A    
C13   C76   S    
C69   H13   S    
C115  H59   S    
C111  H50   S    
C120  H70   S    
C64   C76   A    
C101  H26   S    
C84   O38   A    
C50   C66   A    
C138  H113  S    
C139  H116  S    
O64   C142  S    
C107  H41   S    
Cu9   O34   S    
C110  H48   S    
C61   H5    S    
C100  C101  S    
C121  H74   S    
C34   C83   S    
Cu5   O13   S    
O55   C115  S    
Cu10  O39   S    
C24   O30   A    
C16   N1    A    
C125  C126  S    
Cu2   O24   S    
C2    O6    A    
C107  C108  S    
C144  H126  S    
O58   C124  S    
C42   O50   S    
C105  H35   S    
N8    N11   A    
Cu5   O9    S    
C124  H81   S    
C31   C39   T    
C32   C40   T    
O52   C106  S    
C8    O16   A    
C99   H22   S    
O56   C118  S    
C142  C143  S    
C10   N15   A    
C130  C131  S    
C82   O40   A    
C110  H47   S    
