data_mof_unit_16135.cif
_audit_creation_date              2013-03-05T15:51:03-0500
_audit_creation_method            fapswitch 2.2
_symmetry_space_group_name_H-M    P1
_symmetry_Int_Tables_number       1
_space_group_crystal_system       triclinic
_cell_length_a                    19.375311
_cell_length_b                    11.060595
_cell_length_c                    18.728382
_cell_angle_alpha                 90.18881
_cell_angle_beta                  90.856529
_cell_angle_gamma                 90.354099
_cell_volume                      4012.99034543

loop_
_atom_site_label
_atom_site_type_symbol
_atom_site_description
_atom_site_fract_x
_atom_site_fract_y
_atom_site_fract_z
_atom_type_partial_charge
O1    O     O_R   0.784290 0.290360 0.830540 -0.505998
O2    O     O_R   0.215710 0.290360 0.169460 -0.492394
O3    O     O_R   0.284290 0.790360 0.830540 -0.507371
O4    O     O_R   0.715710 0.790360 0.169460 -0.500183
O5    O     O_R   0.762610 0.041070 0.825230 -0.489532
O6    O     O_R   0.237390 0.041070 0.174770 -0.469250
O7    O     O_R   0.262610 0.541070 0.825230 -0.477908
O8    O     O_R   0.737390 0.541070 0.174770 -0.463724
C1    C     C_R   0.708891 0.003884 0.860458 0.552944
C2    C     C_R   0.287639 0.995060 0.138793 0.564191
C3    C     C_R   0.208717 0.503967 0.860596 0.556121
C4    C     C_R   0.774562 0.461528 0.144515 0.568978
O9    O     O_R   0.667390 0.924160 0.829970 -0.425577
O10   O     O_R   0.332610 0.924160 0.170030 -0.431528
O11   O     O_R   0.167390 0.424160 0.829970 -0.403058
O12   O     O_R   0.832610 0.424160 0.170030 -0.444223
O13   O     O_R   0.553980 0.081420 0.821780 -0.460000
O14   O     O_R   0.446020 0.081420 0.178220 -0.462785
O15   O     O_R   0.053980 0.581420 0.821780 -0.458392
O16   O     O_R   0.946020 0.581420 0.178220 -0.446087
C5    C     C_R   0.531730 0.176471 0.852109 0.561901
C6    C     C_R   0.473325 0.176245 0.151654 0.594571
C7    C     C_R   0.029243 0.676908 0.850399 0.559347
C8    C     C_R   0.970679 0.676252 0.149407 0.604923
O17   O     O_R   0.543210 0.283170 0.826740 -0.448665
O18   O     O_R   0.456790 0.283170 0.173260 -0.436265
O19   O     O_R   0.043210 0.783170 0.826740 -0.442856
O20   O     O_R   0.956790 0.783170 0.173260 -0.431549
O21   O     O_R   0.678350 0.375000 0.822720 -0.462284
O22   O     O_R   0.321650 0.375000 0.177280 -0.465418
O23   O     O_R   0.178350 0.875000 0.822720 -0.454563
O24   O     O_R   0.821650 0.875000 0.177280 -0.451503
C9    C     C_R   0.738622 0.366442 0.850976 0.550412
C10   C     C_R   0.260306 0.368868 0.149728 0.556106
C11   C     C_R   0.239063 0.867450 0.850354 0.558189
C12   C     C_R   0.760800 0.865671 0.148078 0.591139
O25   O     O_R   0.785060 0.289300 0.670580 -0.520852
O26   O     O_R   0.214940 0.289300 0.329420 -0.471092
O27   O     O_R   0.285060 0.789300 0.670580 -0.522385
O28   O     O_R   0.714940 0.789300 0.329420 -0.521806
O29   O     O_R   0.763330 0.040090 0.676940 -0.466147
O30   O     O_R   0.236670 0.040090 0.323060 -0.438303
O31   O     O_R   0.263330 0.540090 0.676940 -0.485017
O32   O     O_R   0.736670 0.540090 0.323060 -0.459543
C13   C     C_R   0.727112 0.954004 0.648310 0.594765
C14   C     C_R   0.273282 0.959696 0.354013 0.562458
C15   C     C_R   0.226684 0.456099 0.647494 0.603858
C16   C     C_R   0.772504 0.458203 0.353370 0.561276
O33   O     O_R   0.668160 0.923110 0.670000 -0.488065
O34   O     O_R   0.331840 0.923110 0.330000 -0.510220
O35   O     O_R   0.168160 0.423110 0.670000 -0.465237
O36   O     O_R   0.831840 0.423110 0.330000 -0.515209
O37   O     O_R   0.554690 0.080440 0.673480 -0.531157
O38   O     O_R   0.445310 0.080440 0.326520 -0.530043
O39   O     O_R   0.054690 0.580440 0.673480 -0.524083
O40   O     O_R   0.945310 0.580440 0.326520 -0.510606
C17   C     C_R   0.530771 0.176129 0.644902 0.561724
C18   C     C_R   0.470439 0.175532 0.354102 0.540399
C19   C     C_R   0.027940 0.676135 0.646655 0.544986
C20   C     C_R   0.937001 0.680168 0.361987 0.537185
O41   O     O_R   0.543980 0.282110 0.666770 -0.418712
O42   O     O_R   0.456020 0.282110 0.333230 -0.429798
O43   O     O_R   0.043980 0.782110 0.666770 -0.479980
O44   O     O_R   0.956020 0.782110 0.333230 -0.492439
O45   O     O_R   0.679070 0.374030 0.674430 -0.438949
O46   O     O_R   0.320930 0.374030 0.325570 -0.459064
O47   O     O_R   0.179070 0.874030 0.674430 -0.465342
O48   O     O_R   0.820930 0.874030 0.325570 -0.456928
C21   C     C_R   0.739691 0.364928 0.647590 0.548951
C22   C     C_R   0.262292 0.362707 0.353882 0.547697
C23   C     C_R   0.239950 0.863639 0.647450 0.561850
C24   C     C_R   0.761784 0.863264 0.353601 0.550601
Cr1   Cr    Cr6+3 0.769260 0.163750 0.750730 1.074086
Cr2   Cr    Cr6+3 0.230740 0.163750 0.249270 1.111802
Cr3   Cr    Cr6+3 0.269260 0.663750 0.750730 1.067222
Cr4   Cr    Cr6+3 0.730740 0.663750 0.249270 1.082837
Cr5   Cr    Cr6+3 0.612640 0.009910 0.748780 1.121185
Cr6   Cr    Cr6+3 0.387360 0.009910 0.251220 1.116271
Cr7   Cr    Cr6+3 0.112640 0.509910 0.748780 1.140985
Cr8   Cr    Cr6+3 0.887360 0.509910 0.251220 1.123883
Cr9   Cr    Cr6+3 0.614190 0.322400 0.747710 1.192329
Cr10  Cr    Cr6+3 0.385810 0.322400 0.252290 1.173967
Cr11  Cr    Cr6+3 0.114190 0.822400 0.747710 1.160714
Cr12  Cr    Cr6+3 0.885810 0.822400 0.252290 1.164214
O49   O     O_3   0.665360 0.165350 0.749070 -0.350276
O50   O     O_3   0.334640 0.165350 0.250930 -0.338234
O51   O     O_3   0.165360 0.665350 0.749070 -0.347500
O52   O     O_3   0.834640 0.665350 0.250930 -0.335670
C25   C     C_2   0.507468 0.163419 0.926604 -0.120959
C26   C     C_2   0.513741 0.161046 0.085155 -0.077268
C27   C     C_2   0.995217 0.664883 0.920554 -0.125097
C28   C     C_2   0.003694 0.661061 0.078621 -0.107768
C29   C     C_2   0.508708 0.056887 0.046119 0.131554
C30   C     C_2   0.505417 0.056828 0.964155 0.111605
C31   C     C_2   0.996626 0.557343 0.039071 0.110460
C32   C     C_2   0.995904 0.559444 0.957945 0.115937
H1    H     H_    0.533969 0.243177 0.062176 0.116494
H2    H     H_    0.504930 0.248112 0.953937 0.174324
H3    H     H_    0.022284 0.742492 0.053649 0.132863
H4    H     H_    0.981562 0.748399 0.946438 0.177446
C33   C     C_R   0.761795 0.442828 0.068684 0.089084
C34   C     C_R   0.221998 0.484203 0.936336 0.074948
C35   C     C_R   0.271878 0.968644 0.064196 0.097666
C36   C     C_R   0.718145 0.993826 0.938008 -0.014785
C37   C     C_R   0.695878 0.429125 0.037556 -0.073676
C38   C     C_R   0.287144 0.452762 0.961081 0.037791
C39   C     C_R   0.204668 0.945076 0.036921 -0.016463
C40   C     C_R   0.774851 0.040045 0.976165 -0.000069
C41   C     C_R   0.689464 0.428196 0.963109 -0.057911
C42   C     C_R   0.298474 0.435030 0.033109 0.028178
C43   C     C_R   0.194853 0.937144 0.963018 -0.051208
C44   C     C_R   0.785829 0.011070 0.047307 -0.011739
C45   C     C_R   0.812037 0.442151 0.950440 -0.049648
C46   C     C_R   0.180440 0.463570 0.058597 -0.086844
C47   C     C_R   0.316148 0.952481 0.944102 -0.057864
C48   C     C_R   0.677970 0.908344 0.049153 -0.062775
C49   C     C_R   0.818268 0.459717 0.023597 -0.005211
C50   C     C_R   0.169221 0.494181 0.986408 -0.078009
C51   C     C_R   0.326338 0.977832 0.016214 -0.033447
C52   C     C_R   0.666614 0.939579 0.977954 -0.104940
C53   C     C_3   0.633473 0.507781 0.044607 0.157976
C54   C     C_3   0.355798 0.512824 0.951789 0.157114
C55   C     C_3   0.139371 0.017310 0.043524 0.148488
C56   C     C_3   0.850045 0.049281 0.961453 0.188260
C57   C     C_3   0.636690 0.526474 0.963900 0.403256
C58   C     C_3   0.363841 0.504562 0.032970 0.390515
C59   C     C_3   0.140543 0.032544 0.962466 0.381507
C60   C     C_3   0.861671 0.027917 0.041979 0.400367
C61   C     C_R   0.747223 0.423366 0.919946 0.035531
C62   C     C_R   0.246718 0.433209 0.082737 0.032532
C63   C     C_R   0.250218 0.929687 0.917399 0.035765
C64   C     C_R   0.741585 0.933700 0.083483 0.018633
H5    H     H_    0.856978 0.443718 0.917806 0.196113
H6    H     H_    0.138825 0.466734 0.095677 0.176317
H7    H     H_    0.358557 0.952928 0.908580 0.192506
H8    H     H_    0.639975 0.851486 0.073404 0.224431
H9    H     H_    0.867051 0.487698 0.045712 0.174696
H10   H     H_    0.120779 0.529233 0.969508 0.125619
H11   H     H_    0.376034 0.009133 0.034370 0.157033
H12   H     H_    0.620854 0.909294 0.951670 0.231342
H13   H     H_    0.591063 0.447869 0.062829 0.149573
H14   H     H_    0.389528 0.449972 0.921275 0.157919
H15   H     H_    0.098507 0.955032 0.063645 0.140467
H16   H     H_    0.865958 0.971051 0.927675 0.141476
C65   C     C_R   0.490753 0.161736 0.426265 0.037913
C66   C     C_R   0.514283 0.169406 0.571347 0.049238
C67   C     C_R   0.951559 0.672427 0.437092 -0.008061
C68   C     C_R   0.989461 0.671843 0.580585 0.044943
C69   C     C_R   0.549961 0.218177 0.451908 0.123404
C70   C     C_R   0.561983 0.219499 0.524419 0.117616
C71   C     C_R   0.972788 0.777076 0.470521 0.047227
C72   C     C_R   0.990573 0.777616 0.540664 0.100070
C73   C     C_R   0.452549 0.119767 0.546353 -0.134449
C74   C     C_R   0.440641 0.116492 0.473286 -0.127905
C75   C     C_R   0.962549 0.565574 0.549805 -0.158895
C76   C     C_R   0.945027 0.565588 0.476871 -0.166835
C77   C     C_3   0.623023 0.185792 0.436476 -0.295524
C78   C     C_3   0.635724 0.185684 0.516108 -0.299134
C79   C     C_3   0.033229 0.853092 0.450831 -0.198220
C80   C     C_3   0.050684 0.859878 0.528749 -0.214537
H17   H     H_    0.414348 0.084691 0.582658 0.149324
H18   H     H_    0.391641 0.082243 0.453243 0.134710
H19   H     H_    0.961313 0.481947 0.579634 0.140850
H20   H     H_    0.932030 0.481997 0.450418 0.151966
H21   H     H_    0.017406 0.939793 0.426862 0.272899
H22   H     H_    0.101451 0.818823 0.542369 0.103654
H23   H     H_    0.651590 0.257880 0.408831 0.188665
H24   H     H_    0.647454 0.096799 0.539029 0.118149
H25   H     H_    0.628900 0.097185 0.410378 0.123432
H26   H     H_    0.671517 0.256476 0.534055 0.131672
H27   H     H_    0.072042 0.801841 0.419817 0.147955
H28   H     H_    0.040315 0.949127 0.552667 0.260269
C81   C     C_R   0.755809 0.434018 0.428169 -0.041806
C82   C     C_R   0.241655 0.419588 0.575025 -0.012994
C83   C     C_R   0.258034 0.937099 0.429253 -0.041406
C84   C     C_R   0.743289 0.913282 0.576939 -0.000469
C85   C     C_R   0.811141 0.394020 0.468388 -0.077651
C86   C     C_R   0.185393 0.406403 0.528400 0.060387
C87   C     C_R   0.310505 0.881434 0.467332 -0.068631
C88   C     C_R   0.689692 0.877708 0.531430 -0.019482
C89   C     C_R   0.810244 0.387883 0.541252 -0.052548
C90   C     C_R   0.192896 0.403640 0.456015 0.055554
C91   C     C_R   0.309266 0.871265 0.539574 -0.053108
C92   C     C_R   0.694695 0.882743 0.460376 -0.052635
C93   C     C_R   0.698892 0.485020 0.540972 0.165436
C94   C     C_R   0.316651 0.428113 0.471759 0.121666
C95   C     C_R   0.210787 0.002834 0.545153 0.145019
C96   C     C_R   0.813447 0.949358 0.470273 0.131602
C97   C     C_R   0.696797 0.480560 0.464222 0.138993
C98   C     C_R   0.308548 0.424513 0.547113 0.138057
C99   C     C_R   0.207587 0.004004 0.468461 0.149788
C100  C     C_R   0.807813 0.939220 0.546716 0.155516
C101  C     C_3   0.845162 0.275929 0.460115 -0.201086
C102  C     C_3   0.121107 0.479462 0.522644 -0.243583
C103  C     C_3   0.341396 0.760412 0.456608 -0.208357
C104  C     C_3   0.613937 0.848907 0.527901 -0.208946
C105  C     C_3   0.845552 0.267798 0.539966 -0.188773
C106  C     C_3   0.130070 0.477848 0.442605 -0.264028
C107  C     C_3   0.340005 0.747489 0.536823 -0.198063
C108  C     C_3   0.621286 0.847927 0.446578 -0.237278
C109  C     C_R   0.752706 0.424440 0.578917 -0.012250
C110  C     C_R   0.256966 0.413778 0.425687 -0.054898
C111  C     C_R   0.255688 0.919924 0.579058 -0.017582
C112  C     C_R   0.755239 0.910928 0.426041 -0.028083
H29   H     H_    0.897449 0.282514 0.436869 0.206213
H30   H     H_    0.127115 0.571275 0.546350 0.104397
H31   H     H_    0.394513 0.766650 0.435219 0.205929
H32   H     H_    0.581120 0.923697 0.547379 0.138229
H33   H     H_    0.808719 0.211077 0.434106 0.182837
H34   H     H_    0.075829 0.426170 0.540354 0.188353
H35   H     H_    0.305453 0.697545 0.427948 0.161452
H36   H     H_    0.600447 0.759248 0.549628 0.241426
H37   H     H_    0.812017 0.192569 0.558066 0.183707
H38   H     H_    0.088739 0.426320 0.413848 0.194200
H39   H     H_    0.303648 0.675791 0.554193 0.157019
H40   H     H_    0.617256 0.758298 0.421122 0.233188
H41   H     H_    0.898254 0.272106 0.564161 0.202201
H42   H     H_    0.142126 0.568315 0.420011 0.117995
H43   H     H_    0.392348 0.745601 0.561862 0.204388
H44   H     H_    0.589542 0.917229 0.419480 0.129335
N1    N     N_R   0.506910 0.944225 0.085406 0.089838
O53   O     O_R   0.456892 0.866646 0.076009 -0.250623
O54   O     O_R   0.546458 0.932354 0.141744 -0.395723
N2    N     N_R   0.495639 0.942879 0.925840 0.070876
O55   O     O_R   0.509973 0.839810 0.955423 -0.314207
O56   O     O_R   0.466745 0.939980 0.862712 -0.369557
N3    N     N_R   0.992742 0.441449 0.074904 0.094761
O57   O     O_R   0.961461 0.349764 0.045144 -0.255958
O58   O     O_R   0.025957 0.423580 0.134752 -0.378242
N4    N     N_R   0.999647 0.446362 0.919234 0.103668
O59   O     O_R   0.042698 0.362689 0.938760 -0.270993
O60   O     O_R   0.964286 0.431297 0.860244 -0.372434
N5    N     N_R   0.644540 0.539545 0.580873 0.089615
O61   O     O_R   0.584098 0.487773 0.582493 -0.215852
O62   O     O_R   0.660986 0.616674 0.631037 -0.323813
N6    N     N_R   0.384287 0.449003 0.443087 0.117817
O63   O     O_R   0.393528 0.531252 0.394616 -0.314688
O64   O     O_R   0.438260 0.398847 0.471938 -0.239116
N7    N     N_R   0.173464 0.087024 0.589024 0.097552
O65   O     O_R   0.110527 0.119112 0.574079 -0.287470
O66   O     O_R   0.202966 0.130836 0.646495 -0.294689
N8    N     N_R   0.874338 0.005469 0.439850 0.056914
O67   O     O_R   0.871917 0.053963 0.376673 -0.332200
O68   O     O_R   0.925304 0.039355 0.481099 -0.332387
N9    N     N_R   0.633665 0.507350 0.424522 0.083938
O69   O     O_R   0.621139 0.456394 0.362912 -0.334638
O70   O     O_R   0.582918 0.564007 0.454013 -0.272172
N10   N     N_R   0.367065 0.429331 0.595237 0.114950
O71   O     O_R   0.371752 0.352339 0.647444 -0.308868
O72   O     O_R   0.411513 0.517672 0.592172 -0.267125
N11   N     N_R   0.152489 0.065298 0.431090 0.102852
O73   O     O_R   0.121270 0.014160 0.376844 -0.357756
O74   O     O_R   0.136614 0.175783 0.446722 -0.281947
N12   N     N_R   0.867006 0.941927 0.594099 0.107673
O75   O     O_R   0.877450 0.848942 0.635140 -0.331602
O76   O     O_R   0.894682 0.044552 0.613379 -0.298844
O77   O     O_3   0.148009 0.126876 0.081341 -0.527086
C113  C     C_3   0.085380 0.155505 0.114383 0.032704
H45   H     H_    0.070420 0.084897 0.153549 0.140940
H46   H     H_    0.043707 0.168943 0.073803 0.224687
H47   H     H_    0.092394 0.240041 0.145019 0.202869
O78   O     O_3   0.867767 0.166236 0.937753 -0.537284
C114  C     C_3   0.918931 0.159072 0.885025 0.043573
H48   H     H_    0.914246 0.079085 0.848966 0.120305
H49   H     H_    0.970743 0.162769 0.910705 0.239842
H50   H     H_    0.913343 0.237149 0.849112 0.199440
O79   O     O_3   0.645071 0.614718 0.084629 -0.536841
C115  C     C_3   0.586423 0.639050 0.125997 -0.001387
H51   H     H_    0.574565 0.562778 0.162535 0.146680
H52   H     H_    0.541587 0.661634 0.090927 0.226787
H53   H     H_    0.596604 0.717976 0.160911 0.183387
O80   O     O_3   0.351140 0.632285 0.925866 -0.535769
C116  C     C_3   0.407390 0.654684 0.880788 0.034783
H54   H     H_    0.406072 0.593726 0.833371 0.132090
H55   H     H_    0.456993 0.646372 0.910354 0.230351
H56   H     H_    0.404352 0.747980 0.860784 0.207358
N13   N     N_R   0.573843 0.495147 0.923257 0.051681
O81   O     O_R   0.517837 0.465775 0.955831 -0.403012
O82   O     O_R   0.570408 0.514070 0.854761 -0.261930
N14   N     N_R   0.419647 0.426563 0.054842 0.097594
O83   O     O_R   0.418050 0.314982 0.033084 -0.435356
O84   O     O_R   0.472093 0.467256 0.091573 -0.333759
N15   N     N_R   0.077822 0.996473 0.922593 0.049274
O85   O     O_R   0.023330 0.959531 0.955330 -0.393124
O86   O     O_R   0.072994 0.015325 0.854163 -0.266507
N16   N     N_R   0.902232 0.919954 0.055713 0.079123
O87   O     O_R   0.879982 0.814562 0.033907 -0.400242
O88   O     O_R   0.966670 0.933204 0.074092 -0.323031
N17   N     N_R   0.665796 0.644465 0.942892 0.109069
O89   O     O_R   0.635940 0.708088 0.893216 -0.249214
O90   O     O_R   0.725024 0.681516 0.968805 -0.327207
N18   N     N_R   0.359028 0.619509 0.073034 0.122908
O91   O     O_R   0.390280 0.632803 0.134569 -0.259880
O92   O     O_R   0.311421 0.697059 0.055759 -0.324068
N19   N     N_R   0.168055 0.150929 0.939604 0.122399
O93   O     O_R   0.139357 0.209097 0.887001 -0.213154
O94   O     O_R   0.225199 0.193848 0.967295 -0.344133
N20   N     N_R   0.883510 0.132878 0.085036 0.133198
O95   O     O_R   0.922093 0.118785 0.141845 -0.291469
O96   O     O_R   0.847301 0.230680 0.080511 -0.306169

loop_
_geom_bond_atom_site_label_1
_geom_bond_atom_site_label_2
_geom_bond_distance
_ccdc_geom_bond_type
C93   N5    1.435103 S    
O4    C12   1.273232 A    
C77   C78   1.507910 S    
C92   C112  1.380630 A    
O39   C19   1.282112 A    
Cr7   O51   1.994327 S    
C87   C103  1.483943 S    
C85   C101  1.475433 S    
O25   C21   1.287616 A    
O21   C9    1.279035 A    
C116  H56   1.100600 S    
C94   C110  1.440120 A    
C25   C30   1.375436 D    
C1    O9    1.313148 A    
O44   Cr12  2.072991 S    
N12   O76   1.300134 A    
C77   H25   1.101012 S    
C27   C32   1.362320 D    
C66   C70   1.398130 A    
C3    O11   1.312835 A    
C4    O12   1.286507 A    
O80   C116  1.409765 S    
N8    O68   1.297352 A    
C80   H22   1.112472 S    
C27   H4    1.078052 S    
C103  C107  1.510169 S    
C88   C104  1.500472 S    
O2    C10   1.280459 A    
C45   H5    1.071358 S    
N9    O69   1.301379 A    
O17   Cr9   2.080393 S    
C46   C62   1.398286 A    
C106  H42   1.112532 S    
C40   C56   1.489719 S    
N10   O72   1.300433 A    
O31   Cr3   1.942840 S    
O16   Cr8   1.956780 S    
N11   O73   1.300592 A    
O13   C5    1.273871 A    
O28   Cr4   2.068959 S    
C73   H17   1.083447 S    
O12   Cr8   2.065616 S    
O22   Cr10  1.954339 S    
O15   C7    1.281665 A    
O46   Cr10  1.960906 S    
N3    O57   1.298050 A    
O48   C24   1.272686 A    
C80   H28   1.103496 S    
N4    O60   1.300940 A    
C86   C90   1.365849 A    
C115  H52   1.111371 S    
C108  H44   1.105639 S    
N20   O95   1.301480 A    
C106  H38   1.111575 S    
C26   C29   1.364620 D    
C59   N19   1.477818 S    
C114  H49   1.107106 S    
C98   N10   1.438408 S    
C89   C109  1.389653 A    
Cr12  O52   1.994656 S    
C83   C87   1.382088 A    
C17   O41   1.263847 A    
C19   O43   1.265511 A    
C20   O44   1.304606 A    
N18   O92   1.301501 A    
C51   H11   1.071404 S    
Cr8   O52   2.005211 S    
N16   O88   1.297414 A    
O46   C22   1.266605 A    
C32   N4    1.446370 S    
C31   N3    1.450928 S    
C15   C82   1.448745 S    
C104  H36   1.104524 S    
C79   H21   1.103387 S    
C16   O36   1.297458 A    
C75   C76   1.402560 A    
O27   C23   1.275754 A    
C35   C39   1.414103 A    
C81   C85   1.377078 A    
C50   H10   1.061985 S    
O31   C15   1.283771 A    
C57   N17   1.475436 S    
C88   C92   1.337010 A    
C22   C110  1.462212 S    
O47   Cr11  1.959014 S    
C89   C105  1.498072 S    
C53   O79   1.413198 S    
N19   O94   1.301875 A    
C55   O77   1.409448 S    
C53   C57   1.528408 S    
C107  H39   1.110225 S    
O24   C12   1.295619 A    
C12   C64   1.471141 S    
O8    Cr4   1.949266 S    
N6    O63   1.300769 A    
O77   C113  1.407695 S    
O32   Cr4   1.950241 S    
O11   Cr7   2.076211 S    
C92   C108  1.489854 S    
C99   N11   1.441809 S    
C52   H12   1.059623 S    
C68   C75   1.401682 A    
O27   Cr3   2.073052 S    
O3    Cr3   2.061113 S    
N5    O61   1.301221 A    
Cr5   O49   1.994327 S    
N13   O81   1.293039 A    
C30   N2    1.458186 S    
C8    C28   1.490021 S    
C94   N6    1.441243 S    
C101  H29   1.110693 S    
O22   C10   1.289944 A    
C107  H43   1.111310 S    
N14   O83   1.298448 A    
C2    O10   1.308680 A    
C78   H26   1.091608 S    
C75   H19   1.082472 S    
C96   C112  1.450047 A    
C48   C52   1.393200 A    
C71   C79   1.488983 S    
C104  H32   1.110451 S    
C67   C71   1.372052 A    
O5    C1    1.305683 A    
N1    O53   1.300031 A    
C102  H34   1.109342 S    
C55   C59   1.528450 S    
C48   C64   1.407878 A    
O3    C11   1.284323 A    
O8    C4    1.276924 A    
C38   C54   1.495923 S    
N17   O89   1.299489 A    
C46   H6    1.072642 S    
N7    O66   1.301863 A    
Cr1   O49   2.013060 S    
C42   C58   1.477687 S    
C45   C49   1.386555 A    
C65   C74   1.411057 A    
Cr3   O51   2.013060 S    
N3    O58   1.300387 A    
C47   C51   1.389382 A    
C41   C61   1.391473 A    
C58   N18   1.478291 S    
O26   Cr2   2.068959 S    
C43   C63   1.384011 A    
C5    O17   1.292901 A    
O29   C13   1.289834 A    
O28   C24   1.293918 A    
O14   C6    1.277457 A    
C39   C43   1.396666 A    
C74   H18   1.081530 S    
C68   C72   1.390716 A    
O79   C115  1.411605 S    
C93   C97   1.438056 A    
O78   C114  1.412045 S    
O40   Cr8   1.947465 S    
C56   C60   1.540740 S    
C25   H2    1.067774 S    
C96   C100  1.442101 A    
C33   C49   1.404032 A    
C113  H45   1.113248 S    
C4    C33   1.451850 S    
O41   Cr9   2.067219 S    
C102  C106  1.511667 S    
C47   H7    1.064932 S    
C85   C89   1.366906 A    
C116  H55   1.106456 S    
O33   Cr5   2.075245 S    
O5    Cr1   1.954551 S    
O35   Cr7   2.075245 S    
O29   Cr1   1.942840 S    
O32   C16   1.274356 A    
C84   C88   1.387774 A    
N15   O85   1.293544 A    
C14   C83   1.466041 S    
O38   Cr6   1.947465 S    
Cr9   O49   2.005445 S    
C28   H3    1.078642 S    
C18   O42   1.274483 A    
Cr11  O51   2.005445 S    
O26   C22   1.298702 A    
O20   Cr12  2.081905 S    
C96   N8    1.454337 S    
N7    O65   1.298884 A    
C39   C55   1.506898 S    
N2    O55   1.298918 A    
C77   H23   1.102725 S    
C18   C65   1.411000 S    
C78   H24   1.097758 S    
C114  H48   1.113661 S    
C5    C25   1.486072 S    
C86   C102  1.491661 S    
C79   H27   1.113729 S    
C2    C35   1.453924 S    
O38   C18   1.262016 A    
C95   C111  1.413574 A    
O30   C14   1.276259 A    
C93   C109  1.425045 A    
C37   C41   1.397946 A    
C71   C72   1.353106 A    
C82   C86   1.393135 A    
C26   H1    1.080398 S    
C54   O80   1.412124 S    
C24   C112  1.461466 S    
O42   Cr10  2.072991 S    
O18   Cr10  2.081905 S    
C17   C66   1.411069 S    
N20   O96   1.295285 A    
C105  H41   1.111627 S    
O34   Cr6   2.073587 S    
O6    Cr2   1.949266 S    
O24   Cr12  1.954339 S    
C49   H9    1.069834 S    
O30   Cr2   1.950241 S    
O48   Cr12  1.960906 S    
C8    O20   1.294029 A    
N19   O93   1.298414 A    
O37   C17   1.274280 A    
C15   O35   1.267583 A    
Cr10  O50   1.994656 S    
C40   C44   1.385046 A    
N2    O56   1.300766 A    
C23   C111  1.461418 S    
O21   Cr9   1.946996 S    
N12   O75   1.301016 A    
C53   H13   1.110821 S    
O39   Cr7   1.956725 S    
O45   Cr9   1.959014 S    
C79   C80   1.494556 S    
C13   O33   1.263483 A    
O13   Cr5   1.958811 S    
N8    O67   1.301025 A    
C6    C26   1.490611 S    
C44   C64   1.392242 A    
O15   Cr7   1.958811 S    
C67   C76   1.405074 A    
C82   C98   1.405557 A    
N9    O70   1.298486 A    
O23   C11   1.281362 A    
C11   C63   1.442757 S    
C36   C40   1.395105 A    
C105  H37   1.109607 S    
N10   O71   1.301245 A    
C9    C61   1.442067 S    
C70   C78   1.489412 S    
C90   C110  1.376954 A    
O6    C2    1.297820 A    
C95   N7    1.444358 S    
C48   H8    1.072330 S    
O1    Cr1   2.061113 S    
O19   Cr11  2.080393 S    
C69   C70   1.374415 A    
C66   C73   1.387335 A    
C57   N13   1.465450 S    
C1    C36   1.465429 S    
O45   C21   1.288854 A    
N6    O64   1.298290 A    
C42   C62   1.377541 A    
C3    C34   1.455296 S    
O47   C23   1.295773 A    
N4    O59   1.299474 A    
C44   C60   1.484954 S    
N11   O74   1.295629 A    
O40   C20   1.297851 A    
C103  H31   1.111764 S    
C115  H51   1.113024 S    
C6    O18   1.292459 A    
O43   Cr11  2.067219 S    
C94   C98   1.422956 A    
O36   Cr8   2.073587 S    
C69   C77   1.494508 S    
C65   C69   1.381709 A    
C36   C52   1.390840 A    
C114  H50   1.101211 S    
C72   C80   1.493357 S    
C21   C109  1.471131 S    
C29   C30   1.535431 S    
N15   O86   1.301207 A    
O37   Cr5   1.956725 S    
C31   C32   1.519464 S    
C90   C106  1.491005 S    
C104  C108  1.531818 S    
O1    C9    1.286383 A    
C47   C63   1.386213 A    
O7    C3    1.309441 A    
C45   C61   1.385972 A    
N18   O91   1.301290 A    
N14   O84   1.296074 A    
C83   C99   1.438399 A    
N16   O87   1.302644 A    
C84   C100  1.408340 A    
O23   Cr11  1.946996 S    
C59   N15   1.469186 S    
C108  H40   1.100433 S    
O16   C8    1.274705 A    
C20   C67   1.433407 S    
C7    O19   1.286091 A    
Cr4   O52   2.012840 S    
C95   C99   1.436842 A    
C34   C50   1.402375 A    
O14   Cr6   1.956780 S    
C19   C68   1.435552 S    
Cr6   O50   2.005211 S    
C87   C91   1.358568 A    
C33   C37   1.403110 A    
C102  H30   1.111720 S    
O9    Cr5   2.076211 S    
C97   N9    1.454494 S    
C13   C84   1.448485 S    
O7    Cr3   1.954551 S    
C58   N14   1.442844 S    
C28   C31   1.368527 D    
C91   C107  1.497379 S    
C54   C58   1.529138 S    
C113  H46   1.111536 S    
C103  H35   1.112201 S    
C101  H33   1.109722 S    
C115  H53   1.103994 S    
C56   O78   1.411080 S    
C116  H54   1.113112 S    
C37   C53   1.501099 S    
Cr2   O50   2.012840 S    
N5    O62   1.301666 A    
C10   C62   1.465668 S    
C46   C50   1.408858 A    
C41   C57   1.497135 S    
C100  N12   1.439691 S    
N13   O82   1.301241 A    
C43   C59   1.494751 S    
C7    C27   1.484793 S    
C113  H47   1.102043 S    
C54   H14   1.118540 S    
C16   C81   1.467500 S    
C38   C42   1.378328 A    
O25   Cr1   2.073052 S    
C35   C51   1.399618 A    
O2    Cr2   2.070230 S    
C60   N20   1.467865 S    
C14   O34   1.293446 A    
C91   C111  1.393312 A    
C60   N16   1.455108 S    
N1    O54   1.302156 A    
C101  C105  1.498390 S    
C81   C97   1.433976 A    
N17   O90   1.302533 A    
C34   C38   1.384893 A    
O10   Cr6   2.065616 S    
O4    Cr4   2.070230 S    
C76   H20   1.074266 S    
C55   H15   1.116791 S    
C56   H16   1.117799 S    
C29   N1    1.449705 S    
C73   C74   1.384667 A    
