data_mof_unit_34390.cif
_audit_creation_date              2012-12-10T19:53:44-0500
_audit_creation_method            fapswitch 2.2
_symmetry_space_group_name_H-M    P1
_symmetry_Int_Tables_number       1
_space_group_crystal_system       triclinic
_cell_length_a                    15.01925
_cell_length_b                    14.157681
_cell_length_c                    10.49315
_cell_angle_alpha                 90.008405
_cell_angle_beta                  90.071245
_cell_angle_gamma                 90.122408
_cell_volume                      2231.23296831

loop_
_atom_site_label
_atom_site_type_symbol
_atom_type_description
_atom_site_fract_x
_atom_site_fract_y
_atom_site_fract_z
_atom_type_partial_charge
C1    C     C_R   0.327773 0.500004 0.500258 0.926480
C2    C     C_R   0.422510 0.795249 0.520035 -0.144028
C3    C     C_R   0.498912 0.053578 0.500791 -0.051204
C4    C     C_R   0.499083 0.947042 0.500387 -0.038632
C5    C     C_R   0.499288 0.499827 0.257124 0.851369
C6    C     C_R   0.499322 0.500195 0.742865 0.849085
C7    C     C_3   0.420390 0.534854 0.042195 -0.185344
C8    C     C_3   0.576038 0.465462 0.957985 -0.193104
C9    C     C_3   0.488069 0.589553 0.959670 -0.130216
C10   C     C_3   0.508470 0.410557 0.040231 -0.144226
C11   C     C_3   0.430587 0.446379 0.957298 -0.192238
C12   C     C_R   0.672484 0.500001 0.502946 0.934266
C13   C     C_3   0.565753 0.553759 0.042442 -0.187990
C14   C     C_3   0.498362 0.500963 0.877721 0.044841
C15   C     C_3   0.498294 0.499191 0.122244 0.047206
C16   C     C_R   0.095324 0.569581 0.580080 -0.273041
C17   C     C_R   0.906199 0.423672 0.570905 -0.302178
C18   C     C_R   0.909219 0.575903 0.465342 -0.275278
C19   C     C_R   0.091904 0.427014 0.451193 -0.285702
C20   C     C_R   0.187496 0.570084 0.576436 0.407779
C21   C     C_R   0.813388 0.425473 0.574245 0.425012
C22   C     C_R   0.817271 0.574981 0.455359 0.411311
C23   C     C_R   0.448966 0.104517 0.409814 0.380783
C24   C     C_R   0.183901 0.429462 0.440184 0.419099
C25   C     C_R   0.231908 0.499980 0.505463 -0.274623
C26   C     C_R   0.768845 0.499936 0.510707 -0.267987
C27   C     C_R   0.048377 0.497702 0.519064 0.024856
C28   C     C_R   0.952905 0.499479 0.519738 0.031397
C29   C     C_3   0.245659 0.621328 0.764184 0.117753
C30   C     C_3   0.290509 0.704706 0.829471 -0.836192
C31   C     C_3   0.790589 0.344259 0.761672 0.109881
C32   C     C_3   0.732632 0.270416 0.826713 -0.853787
C33   C     C_3   0.781401 0.637179 0.262513 0.111093
C34   C     C_R   0.578137 0.896003 0.476313 0.393302
C35   C     C_3   0.741577 0.722727 0.196325 -0.853769
C36   C     C_3   0.218266 0.390635 0.236401 0.118958
C37   C     C_3   0.268412 0.321362 0.152584 -0.851609
C38   C     C_3   0.419885 0.084137 0.195823 0.088227
C39   C     C_3   0.393562 0.006453 0.102907 -0.822324
C40   C     C_3   0.662250 0.965736 0.323284 0.104348
C41   C     C_3   0.752932 0.008609 0.294768 -0.790094
C42   C     C_3   0.567515 0.064160 0.798616 0.081977
C43   C     C_3   0.626839 0.011928 0.892599 -0.806665
C44   C     C_3   0.329571 0.963857 0.668817 0.100154
C45   C     C_R   0.550342 0.104894 0.590002 0.364513
C46   C     C_3   0.231721 0.981628 0.696617 -0.781497
C47   C     C_R   0.420214 0.894771 0.522439 0.387682
C48   C     C_R   0.448805 0.204633 0.414315 -0.152258
C49   C     C_R   0.576955 0.796400 0.479159 -0.151299
C50   C     C_R   0.551092 0.204585 0.585154 -0.130828
H1    H     H_    0.375946 0.403055 0.916345 0.127995
H2    H     H_    0.054267 0.372390 0.402555 0.166321
H3    H     H_    0.407965 0.244499 0.349000 0.174633
H4    H     H_    0.638073 0.758342 0.462939 0.225912
H5    H     H_    0.592502 0.244132 0.649725 0.187822
H6    H     H_    0.361560 0.756331 0.535191 0.224062
H7    H     H_    0.289193 0.558198 0.775014 0.124107
H8    H     H_    0.180834 0.608114 0.812694 0.126515
H9    H     H_    0.248226 0.768604 0.820421 0.254983
H10   H     H_    0.300344 0.689095 0.932135 0.202873
H11   H     H_    0.356192 0.718831 0.784848 0.251858
H12   H     H_    0.620726 0.597355 0.080841 0.138916
H13   H     H_    0.782534 0.412812 0.812462 0.117839
H14   H     H_    0.860471 0.319906 0.771825 0.139460
H15   H     H_    0.737549 0.202054 0.775323 0.287480
H16   H     H_    0.755295 0.260169 0.926526 0.204504
H17   H     H_    0.662270 0.293588 0.828497 0.236775
H18   H     H_    0.744009 0.572947 0.232224 0.119911
H19   H     H_    0.852006 0.630991 0.231115 0.132496
H20   H     H_    0.778148 0.787498 0.225281 0.264710
H21   H     H_    0.746977 0.714481 0.091385 0.204494
H22   H     H_    0.670281 0.729940 0.222404 0.248298
H23   H     H_    0.357176 0.562630 0.081859 0.122020
H24   H     H_    0.246755 0.462462 0.220499 0.115507
H25   H     H_    0.147140 0.389953 0.206183 0.132190
H26   H     H_    0.244955 0.248247 0.171360 0.266089
H27   H     H_    0.256332 0.338344 0.050778 0.198593
H28   H     H_    0.340906 0.326294 0.172057 0.244250
H29   H     H_    0.492469 0.098203 0.183376 0.103137
H30   H     H_    0.381982 0.148747 0.170862 0.145062
H31   H     H_    0.321332 0.990788 0.111593 0.268911
H32   H     H_    0.407699 0.029440 0.003817 0.187292
H33   H     H_    0.432139 0.941334 0.123462 0.247891
H34   H     H_    0.640330 0.439872 0.920237 0.133448
H35   H     H_    0.610740 0.018741 0.298025 0.130588
H36   H     H_    0.653215 0.902276 0.261910 0.126645
H37   H     H_    0.806316 0.957320 0.318332 0.259714
H38   H     H_    0.757299 0.026884 0.192027 0.196250
H39   H     H_    0.762703 0.073760 0.352154 0.267775
H40   H     H_    0.500580 0.030574 0.801085 0.111295
H41   H     H_    0.562197 0.138940 0.830560 0.126211
H42   H     H_    0.694384 0.043973 0.893764 0.256241
H43   H     H_    0.598044 0.016400 0.989871 0.192935
H44   H     H_    0.632123 0.936419 0.864919 0.260464
H45   H     H_    0.480710 0.662725 0.923333 0.142515
H46   H     H_    0.366794 0.030075 0.688794 0.126944
H47   H     H_    0.353015 0.907079 0.734556 0.117547
H48   H     H_    0.192371 0.916615 0.677554 0.261580
H49   H     H_    0.223350 0.001793 0.798182 0.194885
H50   H     H_    0.206507 0.039761 0.635433 0.267029
H51   H     H_    0.516737 0.337516 0.076905 0.130314
H52   H     H_    0.060417 0.624940 0.630869 0.168671
H53   H     H_    0.942523 0.363993 0.608914 0.156976
H54   H     H_    0.946728 0.634447 0.425733 0.168656
N1    N     N_R   0.500000 0.252470 0.500000 -0.128690
N2    N     N_R   0.500000 0.747530 0.500000 -0.143443
O1    O     O_R   0.369060 0.579480 0.500010 -0.594008
O2    O     O_3   0.765678 0.352762 0.631859 -0.582978
O3    O     O_3   0.774905 0.649485 0.395699 -0.591761
O4    O     O_3   0.226891 0.363304 0.365336 -0.583064
O5    O     O_3   0.398558 0.055056 0.321093 -0.556766
O6    O     O_3   0.657722 0.942222 0.453902 -0.551374
O7    O     O_3   0.604679 0.057714 0.675376 -0.556502
O8    O     O_3   0.339249 0.939237 0.539182 -0.551570
O9    O     O_R   0.630940 0.420520 0.499990 -0.572301
O10   O     O_R   0.630940 0.579480 0.499990 -0.588946
O11   O     O_R   0.369060 0.420520 0.500010 -0.577722
O12   O     O_R   0.499980 0.579460 0.313950 -0.617082
O13   O     O_R   0.500020 0.420540 0.686050 -0.629302
O14   O     O_R   0.500020 0.579460 0.686050 -0.624262
O15   O     O_R   0.499980 0.420540 0.313950 -0.635672
O16   O     O_3   0.233342 0.643243 0.634223 -0.595606
Zn1   Zn    Zn3+2 0.500000 0.606140 0.500000 0.965330
Zn2   Zn    Zn3+2 0.500000 0.393860 0.500000 0.970867

loop_
_geom_bond_atom_site_label_1
_geom_bond_atom_site_label_2
_ccdc_geom_bond_type
C47   O8    S    
C41   H39   S    
C21   C26   A    
C8    C13   S    
O10   Zn1   S    
C34   O6    S    
C31   O2    S    
C3    C23   A    
O1    Zn1   S    
C46   H49   S    
C7    H23   S    
O13   Zn2   S    
C7    C11   S    
C36   C37   S    
O11   Zn2   S    
C10   C15   S    
C38   C39   S    
C11   C14   S    
C20   C25   A    
C49   H4    S    
C5    O15   A    
C43   H44   S    
C42   H41   S    
C40   H36   S    
C9    C13   S    
O15   Zn2   S    
C22   C26   A    
C43   H43   S    
C19   H2    S    
C13   H12   S    
C48   N1    A    
C35   H20   S    
C30   H10   S    
N2    Zn1   S    
C50   N1    A    
O9    Zn2   S    
C19   C27   A    
C9    H45   S    
C20   O16   S    
O14   Zn1   S    
C33   H19   S    
C12   O9    A    
C16   C27   A    
C7    C15   S    
C46   H48   S    
C35   H21   S    
C18   C22   A    
C29   O16   S    
C1    C25   S    
C6    O14   A    
C44   C46   S    
C48   H3    S    
C41   H37   S    
C4    C34   A    
C31   H13   S    
C18   C28   A    
C24   C25   A    
C39   H31   S    
C40   O6    S    
C1    O11   A    
C37   H27   S    
C2    N2    A    
C17   C21   A    
N1    Zn2   S    
C12   C26   S    
C42   H40   S    
C40   H35   S    
C9    C14   S    
C29   C30   S    
C44   H46   S    
C36   H25   S    
C6    C14   S    
C44   H47   S    
C42   O7    S    
C31   C32   S    
C16   C20   A    
C22   O3    S    
C30   H9    S    
C24   O4    S    
C18   H54   S    
C36   H24   S    
C1    O1    A    
C32   H17   S    
C16   H52   S    
C40   C41   S    
C37   H26   S    
C29   H7    S    
C35   H22   S    
C13   C15   S    
C36   O4    S    
C33   O3    S    
C42   C43   S    
C3    C4    S    
C6    O13   A    
C32   H16   S    
C7    C9    S    
C41   H38   S    
C46   H50   S    
C34   C49   A    
C8    C14   S    
C23   C48   A    
C8    H34   S    
C17   C28   A    
C31   H14   S    
C10   H51   S    
C50   H5    S    
C39   H32   S    
C49   N2    A    
C2    C47   A    
C23   O5    S    
C37   H28   S    
C43   H42   S    
C5    O12   A    
C19   C24   A    
C17   H53   S    
C39   H33   S    
C2    H6    S    
C38   H30   S    
C45   C50   A    
C33   C35   S    
C3    C45   A    
O12   Zn1   S    
C5    C15   S    
C21   O2    S    
C11   H1    S    
C10   C11   S    
C44   O8    S    
C45   O7    S    
C29   H8    S    
C8    C10   S    
C38   H29   S    
C30   H11   S    
C27   C28   S    
C38   O5    S    
C33   H18   S    
C32   H15   S    
C12   O10   A    
C4    C47   A    
