data_mof_unit_41268.cif
_audit_creation_date              2012-12-11T15:48:39-0500
_audit_creation_method            fapswitch 2.2
_symmetry_space_group_name_H-M    P1
_symmetry_Int_Tables_number       1
_space_group_crystal_system       triclinic
_cell_length_a                    10.9466
_cell_length_b                    10.952858
_cell_length_c                    18.756954
_cell_angle_alpha                 90.624624
_cell_angle_beta                  90.404762
_cell_angle_gamma                 60.35867
_cell_volume                      1954.48051696

loop_
_atom_site_label
_atom_site_type_symbol
_atom_type_description
_atom_site_fract_x
_atom_site_fract_y
_atom_site_fract_z
_atom_type_partial_charge
C1    C     C_R   0.239807 0.645525 0.610434 0.540823
C2    C     C_3   0.670263 0.551200 0.799726 -0.253993
C3    C     C_3   0.698286 0.673843 0.812321 0.051813
C4    C     C_3   0.669997 0.648157 0.676175 0.058477
C5    C     C_3   0.815387 0.633267 0.690499 -0.248745
C6    C     C_3   0.655577 0.534924 0.719330 -0.212740
C7    C     C_R   0.682422 0.152170 0.822301 0.016444
C8    C     C_R   0.779857 0.173934 0.785038 -0.007105
C9    C     C_R   0.774196 0.182647 0.710797 0.012161
C10   C     C_R   0.579137 0.139741 0.709321 -0.180700
C11   C     C_R   0.575131 0.146930 0.782561 -0.171553
C12   C     C_R   0.653999 0.622440 0.600750 0.539886
C13   C     C_3   0.935476 0.091834 0.786507 -0.270928
C14   C     C_3   0.930681 0.099298 0.705796 -0.281441
C15   C     C_R   0.675148 0.163067 0.671890 0.015670
C16   C     C_R   0.181749 0.666667 0.835401 0.012358
C17   C     C_R   0.154676 0.575606 0.794110 0.017982
C18   C     C_R   0.163173 0.573500 0.720202 -0.004605
C19   C     C_R   0.215510 0.762292 0.726381 -0.171745
C20   C     C_R   0.215098 0.758679 0.800395 -0.179467
C21   C     C_3   0.228261 0.419345 0.797404 -0.283033
C22   C     C_3   0.235285 0.417569 0.716765 -0.270875
C23   C     C_R   0.630459 0.225320 0.601732 0.536532
C24   C     C_R   0.195823 0.665223 0.684946 0.012392
C25   C     C_R   0.645449 0.667920 0.165288 0.017183
C26   C     C_R   0.712062 0.536047 0.197750 0.024414
C27   C     C_R   0.715244 0.526328 0.270810 0.047413
C28   C     C_R   0.558491 0.773912 0.282791 -0.178352
C29   C     C_R   0.557121 0.785431 0.208138 -0.165236
C30   C     C_3   0.856178 0.410196 0.191157 -0.274701
C31   C     C_3   0.861988 0.406191 0.271955 -0.267760
C32   C     C_R   0.647158 0.644376 0.315158 0.019903
C33   C     C_R   0.651426 0.175046 0.172431 0.019801
C34   C     C_R   0.218198 0.651478 0.402359 0.548389
C35   C     C_R   0.519899 0.240926 0.204806 0.019245
C36   C     C_R   0.511694 0.249007 0.277846 0.048179
C37   C     C_R   0.762512 0.146147 0.288333 -0.169207
C38   C     C_R   0.770973 0.140905 0.214644 -0.165417
C39   C     C_3   0.395903 0.218917 0.198368 -0.275463
C40   C     C_3   0.390724 0.222043 0.279084 -0.267429
C41   C     C_R   0.632731 0.193703 0.320521 0.027424
C42   C     C_R   0.050360 0.730564 0.195559 0.020831
C43   C     C_R   0.066463 0.832016 0.233465 0.016624
C44   C     C_R   0.102269 0.814545 0.304190 0.020563
C45   C     C_R   0.640934 0.620979 0.391146 0.545046
C46   C     C_R   0.089622 0.601113 0.305969 -0.163219
C47   C     C_R   0.051465 0.620117 0.233597 -0.160434
C48   C     C_3   0.159241 0.893535 0.217933 -0.266418
C49   C     C_3   0.195057 0.878341 0.295937 -0.266444
C50   C     C_R   0.129056 0.691484 0.339390 0.021357
C51   C     C_R   0.701959 0.100138 0.895347 0.543998
C52   C     C_R   0.722874 0.687800 0.888401 0.544247
C53   C     C_R   0.119443 0.705304 0.906194 0.547424
C54   C     C_R   0.674894 0.109465 0.103156 0.547090
C55   C     C_R   0.694406 0.689414 0.096811 0.544014
C56   C     C_R   0.615069 0.230712 0.394590 0.546110
C57   C     C_R   0.027876 0.746980 0.118921 0.566326
C58   C     C_3   0.571774 0.810027 0.782496 -0.233340
C59   C     C_3   0.556206 0.795695 0.701965 -0.239522
C60   C     C_3   0.832603 0.646074 0.770920 -0.216495
Cr1   Cr    Cr6+3 0.392960 0.397920 0.502240 1.004369
Cr2   Cr    Cr6+3 0.398340 0.708480 0.501250 1.000416
Cr3   Cr    Cr6+3 0.708670 0.393570 0.496460 1.006422
Cr4   Cr    Cr6+3 0.937650 0.938540 0.007610 0.998697
Cr5   Cr    Cr6+3 0.625330 0.937370 0.994520 0.997028
Cr6   Cr    Cr6+3 0.937940 0.625230 0.001190 1.001817
H1    H     H_    0.589799 0.899495 0.792197 0.145251
H2    H     H_    0.740115 0.429630 0.702658 0.149050
H3    H     H_    0.923239 0.546157 0.789357 0.143644
H4    H     H_    0.900657 0.529703 0.671105 0.132695
H5    H     H_    0.498007 0.127767 0.682084 0.128773
H6    H     H_    0.492456 0.135610 0.807491 0.137288
H7    H     H_    0.972398 0.985095 0.807291 0.174736
H8    H     H_    0.982604 0.151178 0.811801 0.127683
H9    H     H_    0.976066 0.162383 0.684271 0.132265
H10   H     H_    0.967179 0.996071 0.678952 0.145879
H11   H     H_    0.472943 0.832859 0.810135 0.116223
H12   H     H_    0.230816 0.835339 0.829985 0.129646
H13   H     H_    0.160086 0.379324 0.818299 0.131809
H14   H     H_    0.331841 0.376895 0.824248 0.143845
H15   H     H_    0.343089 0.373544 0.695821 0.179793
H16   H     H_    0.169632 0.378477 0.690631 0.123516
H17   H     H_    0.494403 0.866293 0.315005 0.117032
H18   H     H_    0.497330 0.887968 0.184817 0.129328
H19   H     H_    0.937187 0.428724 0.167310 0.155071
H20   H     H_    0.852285 0.319879 0.166492 0.135254
H21   H     H_    0.870605 0.309995 0.294784 0.150563
H22   H     H_    0.449669 0.812369 0.690900 0.137409
H23   H     H_    0.937251 0.436247 0.294791 0.127718
H24   H     H_    0.856914 0.111529 0.320024 0.121472
H25   H     H_    0.873438 0.097333 0.191089 0.138529
H26   H     H_    0.420409 0.115969 0.175429 0.153284
H27   H     H_    0.303995 0.310521 0.173787 0.140954
H28   H     H_    0.294375 0.312009 0.300901 0.143628
H29   H     H_    0.418967 0.118794 0.302785 0.129097
H30   H     H_    0.100277 0.510338 0.333628 0.112290
H31   H     H_    0.035197 0.542810 0.206341 0.121392
H32   H     H_    0.102318 0.004794 0.200979 0.122412
H33   H     H_    0.566675 0.878048 0.672975 0.112807
H34   H     H_    0.307379 0.802277 0.305767 0.172686
H35   H     H_    0.153301 0.980608 0.324601 0.128716
H36   H     H_    0.856264 0.732536 0.781484 0.126225
H37   H     H_    0.825683 0.716213 0.661861 0.115622
H38   H     H_    0.758163 0.452082 0.821337 0.131247
H39   H     H_    0.572273 0.571618 0.827476 0.119927
H40   H     H_    0.552758 0.540791 0.708005 0.128160
O1    O     O_R   0.507380 0.255700 0.581440 -0.536325
O2    O     O_R   0.524480 0.695810 0.424040 -0.508476
O3    O     O_R   0.736390 0.504290 0.414790 -0.518066
O4    O     O_R   0.691300 0.277290 0.422170 -0.506958
O5    O     O_3   0.499990 0.499990 0.499980 -0.247401
O6    O     O_R   0.089400 0.825690 0.930570 -0.527789
O7    O     O_R   0.818460 0.054440 0.929850 -0.500084
O8    O     O_R   0.606060 0.077150 0.915510 -0.534098
O9    O     O_R   0.646550 0.806680 0.917570 -0.509341
O10   O     O_R   0.837170 0.593410 0.915250 -0.527408
O11   O     O_R   0.065200 0.635530 0.931570 -0.494506
O12   O     O_R   0.280320 0.527350 0.578930 -0.504035
O13   O     O_R   0.068260 0.828890 0.091840 -0.523297
O14   O     O_R   0.798870 0.057410 0.079340 -0.527900
O15   O     O_R   0.584930 0.080350 0.076780 -0.521324
O16   O     O_R   0.626960 0.809650 0.067060 -0.507475
O17   O     O_R   0.816040 0.596610 0.076510 -0.533402
O18   O     O_R   0.045610 0.638500 0.081060 -0.507335
O19   O     O_3   0.833640 0.833710 0.001100 -0.265639
O20   O     O_R   0.260510 0.739590 0.584590 -0.533460
O21   O     O_R   0.532300 0.695080 0.573820 -0.510075
O22   O     O_R   0.744840 0.503500 0.576370 -0.529436
O23   O     O_R   0.699120 0.276560 0.571960 -0.500955
O24   O     O_R   0.498940 0.256500 0.419860 -0.520756
O25   O     O_R   0.272500 0.528080 0.429150 -0.503672
O26   O     O_R   0.252060 0.740380 0.423010 -0.524135
H41   H     H_    0.236215 0.838945 0.701873 0.133054
H42   H     H_    0.251098 0.823703 0.184017 0.164871

loop_
_geom_bond_atom_site_label_1
_geom_bond_atom_site_label_2
_ccdc_geom_bond_type
C44   C49   S    
C5    H37   S    
C8    C13   S    
C54   O14   A    
C59   H33   S    
C32   C45   S    
C35   C36   A    
C9    C14   S    
C7    C8    A    
C12   O21   A    
C7    C11   A    
C26   C27   A    
C51   O7    A    
Cr4   O13   S    
Cr6   O10   S    
C37   H24   S    
C18   C24   A    
C22   H16   S    
C48   H42   S    
C28   C29   A    
C10   C15   A    
C49   H35   S    
Cr2   O21   S    
C53   O11   A    
Cr4   O6    S    
Cr2   O2    S    
C23   O23   A    
Cr5   O8    S    
C16   C53   S    
C39   H27   S    
C58   H11   S    
C59   H22   S    
Cr2   O5    S    
C19   C20   A    
C8    C9    A    
C31   H23   S    
Cr6   O11   S    
Cr5   O15   S    
C30   H20   S    
C43   C48   S    
Cr3   O22   S    
C45   O2    A    
C57   O13   A    
C3    C60   S    
C15   C23   S    
Cr1   O12   S    
C55   O16   A    
C34   O26   A    
C21   C22   S    
C28   H17   S    
C37   C41   A    
Cr5   O9    S    
C36   C41   A    
C2    C6    S    
C60   H36   S    
C42   C57   S    
C56   O4    A    
C42   C47   A    
C52   O10   A    
C25   C29   A    
C55   O17   A    
C34   C50   S    
C51   O8    A    
C31   H21   S    
C27   C31   S    
C22   H15   S    
Cr2   O26   S    
C28   C32   A    
C1    O20   A    
C29   H18   S    
C4    C6    S    
C39   C40   S    
Cr2   O20   S    
C11   H6    S    
C16   C17   A    
C25   C26   A    
C38   H25   S    
C17   C21   S    
Cr5   O19   S    
Cr3   O3    S    
C35   C39   S    
C43   C44   A    
C41   C56   S    
C37   C38   A    
C4    C59   S    
C36   C40   S    
C16   C20   A    
C23   O1    A    
C21   H13   S    
C17   C18   A    
C6    H40   S    
Cr5   O16   S    
C30   H19   S    
Cr1   O24   S    
C53   O6    A    
C48   C49   S    
C54   O15   A    
C13   H7    S    
C2    H38   S    
C26   C30   S    
Cr6   O18   S    
C4    C12   S    
C42   C43   A    
C40   H29   S    
Cr1   O5    S    
C39   H26   S    
C52   O9    A    
C44   C50   A    
C33   C54   S    
C46   C47   A    
Cr4   O7    S    
C5    C60   S    
C27   C32   A    
C18   C22   S    
C25   C55   S    
C40   H28   S    
C4    C5    S    
C5    H4    S    
C47   H31   S    
C34   O25   A    
C3    C52   S    
C12   O22   A    
C19   H41   S    
C48   H32   S    
C46   C50   A    
C2    H39   S    
C33   C38   A    
Cr4   O14   S    
Cr6   O19   S    
C20   H12   S    
C14   H9    S    
Cr3   O4    S    
C19   C24   A    
C58   C59   S    
C7    C51   S    
C10   H5    S    
C57   O18   A    
C30   C31   S    
C60   H3    S    
C21   H14   S    
C6    H2    S    
C33   C35   A    
C2    C3    S    
C45   O3    A    
C1    O12   A    
Cr3   O23   S    
Cr3   O5    S    
Cr1   O1    S    
C10   C11   A    
Cr1   O25   S    
C3    C58   S    
C58   H1    S    
C46   H30   S    
C13   H8    S    
C1    C24   S    
Cr4   O19   S    
Cr6   O17   S    
C13   C14   S    
C56   O24   A    
C9    C15   A    
C14   H10   S    
C49   H34   S    
