data_mof_unit_13444.cif
_audit_creation_date              2012-12-11T15:32:40-0500
_audit_creation_method            fapswitch 2.2
_symmetry_space_group_name_H-M    P1
_symmetry_Int_Tables_number       1
_space_group_crystal_system       triclinic
_cell_length_a                    6.95279
_cell_length_b                    20.455247
_cell_length_c                    24.392737
_cell_angle_alpha                 89.605112
_cell_angle_beta                  90.473621
_cell_angle_gamma                 89.439809
_cell_volume                      3468.79167001

loop_
_atom_site_label
_atom_site_type_symbol
_atom_type_description
_atom_site_fract_x
_atom_site_fract_y
_atom_site_fract_z
_atom_type_partial_charge
O1    O     O_R   0.507320 0.423560 0.460500 -0.536213
O2    O     O_R   0.170760 0.556250 0.437010 -0.536892
O3    O     O_R   0.004030 0.576440 0.539500 -0.535943
C1    C     C_R   0.338765 0.576430 0.421044 0.724750
O4    O     O_R   0.177370 0.422820 0.454110 -0.537972
O5    O     O_R   0.010680 0.442050 0.556720 -0.535312
C2    C     C_R   0.346299 0.398905 0.443442 0.694267
O6    O     O_R   0.500680 0.557950 0.443280 -0.535349
O7    O     O_3   0.340380 0.506470 0.533650 -0.366891
V1    V     V_3+5 0.064130 0.498800 0.493760 1.424932
O8    O     O_R   0.681160 0.443750 0.562990 -0.537893
C3    C     C_R   0.850924 0.423681 0.578868 0.725168
O9    O     O_R   0.674560 0.577180 0.545890 -0.537921
C4    C     C_R   0.842645 0.601102 0.556575 0.705076
V2    V     V_3+5 0.564560 0.501200 0.506240 1.424552
O10   O     O_3   0.838180 0.493530 0.466350 -0.367136
C5    C     C_R   0.976520 0.838314 0.910961 -0.042301
C6    C     C_R   0.847062 0.662240 0.588265 -0.084672
C7    C     C_R   0.042212 0.722344 0.905292 -0.161937
C8    C     C_R   0.032730 0.779470 0.935817 -0.168458
C9    C     C_R   0.930414 0.839772 0.854685 -0.214369
C10   C     C_R   0.942385 0.782165 0.822159 0.085653
C11   C     C_R   0.998992 0.723191 0.848974 0.140097
C12   C     C_R   0.902873 0.780975 0.764179 0.060311
C13   C     C_R   0.920276 0.720958 0.734315 0.071445
C14   C     C_R   0.976566 0.664004 0.763588 -0.186234
C15   C     C_R   0.014535 0.665299 0.819513 -0.205603
C16   C     C_R   0.847330 0.837838 0.735088 -0.195456
C17   C     C_R   0.809293 0.836750 0.679222 -0.197409
C18   C     C_R   0.823553 0.778855 0.648997 0.122479
C19   C     C_R   0.880362 0.719820 0.676271 0.052891
C20   C     C_R   0.780095 0.778869 0.591909 0.177775
C21   C     C_R   0.791003 0.720410 0.562600 -0.162682
C22   C     C_R   0.892558 0.661831 0.644369 -0.223818
H1    H     H_    0.057856 0.620207 0.839959 0.121857
H2    H     H_    0.932286 0.615087 0.661793 0.101991
H3    H     H_    0.754340 0.719883 0.519306 0.107000
H4    H     H_    0.767043 0.882559 0.660025 0.137842
H5    H     H_    0.086231 0.677334 0.925706 0.112078
H6    H     H_    0.070635 0.777881 0.978988 0.105677
H7    H     H_    0.890482 0.886731 0.837653 0.093817
H8    H     H_    0.993624 0.617046 0.744567 0.122172
H9    H     H_    0.831149 0.884716 0.754357 0.123100
C23   C     C_3   0.794671 0.299363 0.764446 -0.133916
C24   C     C_3   0.985802 0.280241 0.794066 -0.174526
H10   H     H_    0.046131 0.304990 0.830636 0.117220
H11   H     H_    0.697418 0.340205 0.776159 0.114022
H12   H     H_    0.230773 0.293388 0.727429 0.114390
C25   C     C_1   0.960610 0.121816 0.875361 -0.192945
C26   C     C_1   0.863708 0.378183 0.624664 -0.194701
C27   C     C_3   0.738237 0.226190 0.762123 -0.174016
C28   C     C_3   0.929038 0.207640 0.791254 0.158279
C29   C     C_3   0.838595 0.219812 0.705709 -0.140898
C30   C     C_3   0.895565 0.292374 0.708750 0.135908
C31   C     C_3   0.028329 0.201452 0.735619 0.207557
C32   C     C_3   0.086787 0.274006 0.737731 -0.144720
C33   C     C_1   0.947237 0.160351 0.837384 -0.051385
C34   C     C_1   0.877120 0.339676 0.662670 -0.055976
H13   H     H_    0.778868 0.194867 0.669147 0.112960
H14   H     H_    0.594612 0.206593 0.772445 0.119059
C35   C     C_3   0.592492 0.745021 0.231152 -0.139047
C36   C     C_3   0.443428 0.689089 0.232100 -0.135741
H15   H     H_    0.468952 0.638551 0.217351 0.109583
H16   H     H_    0.741624 0.740970 0.215508 0.107699
H17   H     H_    0.183687 0.726242 0.175936 0.107274
C37   C     C_1   0.348650 0.622112 0.375065 -0.194097
C38   C     C_1   0.475536 0.878046 0.125044 -0.194190
C39   C     C_3   0.537169 0.763267 0.290628 -0.139228
C40   C     C_3   0.388353 0.707925 0.290997 0.168901
C41   C     C_3   0.380770 0.811152 0.268073 -0.136224
C42   C     C_3   0.435844 0.792314 0.209176 0.168883
C43   C     C_3   0.231706 0.755219 0.269022 -0.138952
C44   C     C_3   0.287029 0.736973 0.209547 -0.139083
C45   C     C_1   0.364043 0.660644 0.337058 -0.063426
C46   C     C_1   0.460144 0.839562 0.163088 -0.064135
H18   H     H_    0.082576 0.759269 0.284668 0.107571
H19   H     H_    0.355246 0.861690 0.282823 0.108254
H20   H     H_    0.640500 0.773996 0.324242 0.106986
C47   C     C_R   0.471966 0.162092 0.088465 -0.106944
C48   C     C_R   0.352579 0.338271 0.411143 -0.042683
C49   C     C_R   0.529587 0.278699 0.092735 0.467963
C50   C     C_R   0.524332 0.220436 0.063160 -0.245558
C51   C     C_R   0.428110 0.161416 0.144558 -0.224054
C52   C     C_R   0.439608 0.219231 0.176698 0.032769
C53   C     C_R   0.492044 0.278126 0.149599 0.039349
C54   C     C_R   0.403636 0.220504 0.234714 0.086528
C55   C     C_R   0.420835 0.280576 0.264500 0.063721
C56   C     C_R   0.473193 0.337308 0.235338 -0.206601
C57   C     C_R   0.507375 0.335990 0.179415 -0.169201
C58   C     C_R   0.351667 0.163681 0.264005 -0.186961
C59   C     C_R   0.317297 0.165108 0.319947 -0.207444
C60   C     C_R   0.332118 0.223038 0.349340 0.139530
C61   C     C_R   0.384529 0.281905 0.322456 0.084542
C62   C     C_R   0.292258 0.222349 0.405659 -0.161413
C63   C     C_R   0.300750 0.279530 0.436095 -0.168676
C64   C     C_R   0.395452 0.339569 0.354878 -0.213300
H21   H     H_    0.547158 0.381311 0.159457 0.166015
H22   H     H_    0.431793 0.386467 0.337740 0.094124
H23   H     H_    0.265371 0.278075 0.479264 0.106333
H24   H     H_    0.277211 0.120114 0.340454 0.122271
H25   H     H_    0.562243 0.220794 0.020144 0.123361
H26   H     H_    0.390988 0.114683 0.161840 0.106742
H27   H     H_    0.489706 0.384128 0.254574 0.122950
H28   H     H_    0.335470 0.116769 0.244929 0.121784
H29   H     H_    0.251528 0.177433 0.426137 0.112096
O11   O     O_R   0.323550 0.942140 0.056770 -0.535538
O12   O     O_R   0.647080 0.077200 0.045890 -0.537633
O13   O     O_R   0.813610 0.057920 0.943260 -0.535392
C65   C     C_R   0.478192 0.101156 0.056563 0.721387
O14   O     O_R   0.653470 0.943760 0.063000 -0.537184
O15   O     O_R   0.820050 0.923540 0.960490 -0.536508
C66   C     C_R   0.485448 0.923655 0.079013 0.723115
O16   O     O_R   0.317110 0.076520 0.039540 -0.536542
O17   O     O_3   0.483830 0.993580 0.966380 -0.367648
V3    V     V_3+5 0.760140 0.001190 0.006240 1.425349
O18   O     O_R   0.149510 0.922740 0.954070 -0.538003
C67   C     C_R   0.981363 0.898876 0.943373 0.693863
O19   O     O_R   0.143120 0.056170 0.936970 -0.537898
C68   C     C_R   0.973373 0.076281 0.921119 0.726443
V4    V     V_3+5 0.259690 0.998700 0.993700 1.424694
O20   O     O_3   0.986130 0.006420 0.033620 -0.366905
C69   C     C_3   0.719075 0.840220 0.561366 -0.819102
H30   H     H_    0.691354 0.830869 0.517204 0.208999
H31   H     H_    0.584329 0.860124 0.579130 0.211656
H32   H     H_    0.834333 0.877270 0.564146 0.207981
C70   C     C_3   0.161712 0.145806 0.719101 -0.821589
H33   H     H_    0.214611 0.154537 0.676908 0.210504
H34   H     H_    0.286015 0.142948 0.747865 0.209407
H35   H     H_    0.082712 0.098948 0.720391 0.213034
O21   O     O_3   0.586714 0.335546 0.066771 -0.557647
C71   C     C_3   0.429944 0.360756 0.035982 -0.277382
H36   H     H_    0.302947 0.370232 0.062425 0.143105
H37   H     H_    0.390644 0.327585 0.001800 0.139909
H38   H     H_    0.472461 0.408148 0.017581 0.166472

loop_
_geom_bond_atom_site_label_1
_geom_bond_atom_site_label_2
_ccdc_geom_bond_type
C13   C19   A    
C42   C46   S    
C31   C32   S    
C62   H29   S    
C70   H33   S    
V3    O20   S    
C51   H26   S    
C40   C43   S    
C4    C6    S    
O2    C1    A    
C7    C8    A    
C1    O6    A    
C71   H38   S    
O17   V3    S    
C29   H13   S    
C25   C33   T    
O11   C66   A    
C29   C30   S    
C23   C24   S    
C14   C15   A    
C36   H15   S    
O13   V3    S    
C16   C17   A    
C52   C54   A    
O5    C3    A    
C18   C19   A    
C8    H6    S    
C63   H23   S    
V2    O10   S    
C37   C45   T    
C5    C8    A    
H17   C44   S    
O18   C67   A    
O19   C68   A    
O8    V2    S    
C24   C32   S    
C39   C40   S    
C47   C51   A    
C64   H22   S    
C17   H4    S    
C36   C44   S    
C41   C42   S    
O1    V2    S    
C11   C15   A    
C59   H24   S    
C48   C64   A    
O7    V1    S    
C28   C31   S    
C43   H18   S    
C35   C42   S    
O9    C4    A    
C41   H19   S    
O12   C65   A    
O13   C68   A    
C35   C36   S    
C49   C53   A    
C49   C50   A    
O19   V4    S    
C29   C31   S    
C39   H20   S    
C30   C32   S    
C47   C65   S    
C27   C28   S    
C26   C34   T    
C20   C69   S    
C12   C13   A    
C54   C58   A    
C59   C60   A    
C42   C44   S    
C53   C57   A    
C54   C55   A    
C70   H35   S    
C15   H1    S    
C13   C14   A    
C24   H10   S    
C21   H3    S    
O18   V4    S    
C36   C40   S    
C57   H21   S    
C27   C29   S    
C35   H16   S    
C7    C11   A    
C17   C18   A    
C18   C20   A    
O16   V4    S    
O15   V3    S    
C51   C52   A    
C31   C70   S    
C58   H28   S    
C60   C62   A    
C19   C22   A    
C40   C45   S    
C52   C53   A    
C48   C63   A    
C6    C22   A    
O12   V3    S    
O3    C4    A    
C7    H5    S    
C9    H7    S    
C23   C27   S    
O6    V2    S    
O9    V2    S    
C10   C12   A    
C38   C46   T    
C69   H31   S    
C71   H36   S    
O2    V1    S    
C56   H27   S    
V4    O20   S    
C14   H8    S    
O4    C2    A    
C30   C34   S    
H12   C32   S    
C70   H34   S    
O11   V4    S    
O1    C2    A    
C12   C16   A    
C43   C44   S    
C71   H37   S    
O5    V1    S    
C47   C50   A    
C3    C26   S    
O8    C3    A    
C23   H11   S    
C65   O16   A    
C61   C64   A    
C16   H9    S    
C24   C28   S    
O15   C67   A    
C20   C21   A    
C69   H32   S    
O21   C71   S    
O7    V2    S    
O4    V1    S    
O3    V1    S    
V1    O10   S    
C1    C37   S    
C35   C39   S    
C58   C59   A    
C25   C68   S    
C55   C61   A    
C60   C61   A    
C50   H25   S    
C22   H2    S    
C62   C63   A    
C6    C21   A    
O14   C66   A    
C28   C33   S    
C49   O21   S    
C23   C30   S    
C38   C66   S    
C56   C57   A    
C55   C56   A    
C39   C41   S    
C10   C11   A    
C41   C43   S    
C27   H14   S    
C69   H30   S    
C9    C10   A    
O14   V3    S    
O17   V4    S    
C5    C67   S    
C2    C48   S    
C5    C9    A    
