data_mof_unit_15967.cif
_audit_creation_date              2012-12-10T16:56:30-0500
_audit_creation_method            fapswitch 2.2
_symmetry_space_group_name_H-M    P1
_symmetry_Int_Tables_number       1
_space_group_crystal_system       triclinic
_cell_length_a                    7.838684
_cell_length_b                    8.56888
_cell_length_c                    15.720028
_cell_angle_alpha                 91.979219
_cell_angle_beta                  83.644679
_cell_angle_gamma                 93.76105
_cell_volume                      1046.74930356

loop_
_atom_site_label
_atom_site_type_symbol
_atom_type_description
_atom_site_fract_x
_atom_site_fract_y
_atom_site_fract_z
_atom_type_partial_charge
C1    C     C_R   0.545642 0.794565 0.497886 0.958875
C2    C     C_3   0.362125 0.409704 0.036310 0.100800
C3    C     C_1   0.493272 0.507969 0.750943 -0.189859
C4    C     C_1   0.505951 0.493448 0.249058 -0.178164
C5    C     C_3   0.345279 0.561772 0.988792 0.178886
C6    C     C_3   0.642563 0.445050 0.011392 0.188110
C7    C     C_3   0.482390 0.511506 0.917440 0.035672
C8    C     C_3   0.506353 0.494098 0.083122 -0.001175
C9    C     C_1   0.485198 0.512143 0.826499 -0.007544
C10   C     C_1   0.510375 0.491070 0.173627 -0.010121
C11   C     C_3   0.766490 0.709481 0.925877 -0.893476
C12   C     C_R   0.454356 0.205437 0.502162 0.959739
C13   C     C_3   0.223269 0.300304 0.082212 -0.886439
C14   C     C_3   0.476314 0.805787 0.082565 -0.891133
C15   C     C_3   0.504791 0.196574 0.921838 -0.903823
C16   C     C_3   0.898717 0.322573 0.944260 -0.752238
C17   C     C_3   0.209193 0.753995 0.911787 -0.783072
C18   C     C_R   0.498775 0.502074 0.661901 0.897633
C19   C     C_R   0.501176 0.497995 0.338092 0.896885
C20   C     C_2   0.569543 0.958191 0.496659 -0.377609
C21   C     C_2   0.430451 0.041816 0.503470 -0.377733
C22   C     C_3   0.486290 0.646356 0.036967 0.124995
C23   C     C_3   0.500661 0.358985 0.964343 0.162639
C24   C     C_3   0.624239 0.597009 0.965012 0.113083
H1    H     H_    0.700919 0.009280 0.490131 0.181383
H2    H     H_    0.128411 0.369662 0.122183 0.241801
H3    H     H_    0.452068 0.895042 0.037119 0.245941
H4    H     H_    0.369432 0.801194 0.135153 0.242502
H5    H     H_    0.599075 0.838350 0.109582 0.246179
H6    H     H_    0.547650 0.113993 0.966434 0.250743
H7    H     H_    0.374684 0.157127 0.905127 0.240575
H8    H     H_    0.595626 0.198807 0.862504 0.242262
H9    H     H_    0.880079 0.456605 0.058803 0.227885
H10   H     H_    0.037007 0.359960 0.940775 0.253914
H11   H     H_    0.851495 0.365386 0.885747 0.244349
H12   H     H_    0.299074 0.990728 0.510008 0.181221
H13   H     H_    0.884589 0.192853 0.943402 0.239850
H14   H     H_    0.119618 0.666580 0.032298 0.228064
H15   H     H_    0.192316 0.699632 0.847937 0.256342
H16   H     H_    0.112089 0.842059 0.926867 0.228640
H17   H     H_    0.337818 0.817403 0.909022 0.244667
H18   H     H_    0.013426 0.380146 0.435638 0.191444
H19   H     H_    0.986575 0.619844 0.564369 0.190263
H20   H     H_    0.839390 0.760129 0.977762 0.247512
H21   H     H_    0.852801 0.647279 0.877365 0.260123
H22   H     H_    0.709647 0.805232 0.894933 0.241403
H23   H     H_    0.158563 0.224499 0.035573 0.250573
H24   H     H_    0.283191 0.223054 0.124106 0.249959
N1    N     N_2   0.950320 0.457950 0.477300 -0.172776
N2    N     N_2   0.049680 0.542050 0.522700 -0.173333
N3    N     N_2   0.806079 0.383715 0.022113 -0.288730
N4    N     N_2   0.188748 0.633843 0.975606 -0.300494
O1    O     O_R   0.389250 0.738570 0.505570 -0.613183
O2    O     O_R   0.610750 0.261430 0.494430 -0.612799
O3    O     O_R   0.678390 0.711630 0.491020 -0.628971
O4    O     O_R   0.321610 0.288370 0.508980 -0.628841
O5    O     O_R   0.355460 0.513480 0.630490 -0.613792
O6    O     O_R   0.644540 0.486520 0.369510 -0.612823
O7    O     O_R   0.644600 0.486540 0.615950 -0.620271
O8    O     O_R   0.355400 0.513460 0.384050 -0.619074
Zn1   Zn    Zn3+2 0.306940 0.517990 0.509710 0.945908
Zn2   Zn    Zn3+2 0.693060 0.482010 0.490290 0.946650

loop_
_geom_bond_atom_site_label_1
_geom_bond_atom_site_label_2
_ccdc_geom_bond_type
O6    Zn2   S    
C13   H24   S    
C8    C22   S    
C5    N4    S    
O5    Zn1   S    
C16   H10   S    
C3    C9    T    
C19   O8    A    
H9    N3    S    
C5    C7    S    
C18   O7    A    
C18   O5    A    
C16   N3    S    
C16   H13   S    
C6    C24   S    
C14   C22   S    
C15   C23   S    
C1    O3    A    
C11   H20   S    
H19   N2    S    
C21   H12   S    
C15   H7    S    
C12   O4    A    
O1    Zn1   S    
C15   H6    S    
C7    C23   S    
C6    C23   S    
C12   C21   S    
C17   N4    S    
C16   H11   S    
C22   C24   S    
C19   O6    A    
C14   H3    S    
C17   H17   S    
C13   H2    S    
C11   H21   S    
C2    C5    S    
H14   N4    S    
C20   H1    S    
H18   N1    S    
C4    C10   T    
C7    C24   S    
O7    Zn2   S    
O3    Zn2   S    
C11   C24   S    
C15   H8    S    
C20   C21   D    
C3    C18   S    
C8    C10   S    
N1    N2    D    
C17   H15   S    
C6    N3    S    
C2    C8    S    
C2    C23   S    
C7    C9    S    
C2    C13   S    
C1    O1    A    
O4    Zn1   S    
O2    Zn2   S    
C11   H22   S    
C6    C8    S    
N1    Zn2   S    
C14   H5    S    
C14   H4    S    
C4    C19   S    
C13   H23   S    
N2    Zn1   S    
C12   O2    A    
C5    C22   S    
O8    Zn1   S    
C1    C20   S    
C17   H16   S    
