data_mof_unit_37338.cif
_audit_creation_date              2012-12-11T17:07:35-0500
_audit_creation_method            fapswitch 2.2
_symmetry_space_group_name_H-M    P1
_symmetry_Int_Tables_number       1
_space_group_crystal_system       triclinic
_cell_length_a                    6.969541
_cell_length_b                    14.670959
_cell_length_c                    15.968774
_cell_angle_alpha                 89.970456
_cell_angle_beta                  90.262635
_cell_angle_gamma                 89.756289
_cell_volume                      1632.77259181

loop_
_atom_site_label
_atom_site_type_symbol
_atom_type_description
_atom_site_fract_x
_atom_site_fract_y
_atom_site_fract_z
_atom_type_partial_charge
O1    O     O_R   0.505720 0.583900 0.413310 -0.506069
O2    O     O_R   0.175940 0.594920 0.586080 -0.553385
O3    O     O_R   0.005640 0.416100 0.586690 -0.533224
C1    C     C_R   0.345025 0.616846 0.614855 0.670183
O4    O     O_R   0.176000 0.594930 0.413930 -0.526251
O5    O     O_R   0.005700 0.416110 0.413310 -0.531355
C2    C     C_R   0.343941 0.615538 0.384185 0.756927
O6    O     O_R   0.505660 0.583890 0.586690 -0.550087
O7    O     O_3   0.339200 0.441330 0.500000 -0.371567
V1    V     V_3+5 0.064350 0.510880 0.500000 1.577919
O8    O     O_R   0.675980 0.405080 0.413920 -0.518906
C3    C     C_R   0.844887 0.385069 0.383777 0.878542
O9    O     O_R   0.675920 0.405070 0.586070 -0.551890
C4    C     C_R   0.845290 0.382537 0.614029 0.786171
V2    V     V_3+5 0.564340 0.489120 0.500000 1.581951
O10   O     O_3   0.839360 0.558670 0.500000 -0.356692
H1    H     H_    0.002417 0.076483 0.501313 0.194044
C5    C     C_R   0.767662 0.431523 0.784890 -0.163134
C6    C     C_R   0.733706 0.458902 0.867026 -0.115078
C7    C     C_R   0.748884 0.396345 0.932091 -0.063355
C8    C     C_R   0.796838 0.305895 0.915364 -0.118287
C9    C     C_R   0.830941 0.275975 0.832400 0.046536
C10   C     C_R   0.817842 0.340297 0.765852 0.060687
C11   C     C_R   0.877369 0.183739 0.815439 -0.144426
C12   C     C_R   0.908927 0.155319 0.731296 -0.097965
C13   C     C_R   0.901556 0.220519 0.664572 -0.108994
C14   C     C_R   0.855836 0.313280 0.682210 -0.138720
C15   C     C_R   0.945159 0.062399 0.711336 0.570010
C16   C     C_R   0.979342 0.035303 0.629295 -0.259687
C17   C     C_R   0.976249 0.098574 0.564966 -0.226956
C18   C     C_R   0.936912 0.189865 0.581436 0.584798
H2    H     H_    0.753522 0.482550 0.736497 0.084143
H3    H     H_    0.695699 0.529075 0.880187 0.128159
H4    H     H_    0.722991 0.417913 0.995889 0.148567
H5    H     H_    0.806689 0.259899 0.968216 0.091128
H6    H     H_    0.007076 0.964215 0.615416 0.179618
C19   C     C_R   0.742118 0.179636 0.246454 -0.099098
C20   C     C_R   0.880900 0.185982 0.183003 -0.220236
C21   C     C_R   0.019560 0.255571 0.191168 0.632791
C22   C     C_R   0.008698 0.319605 0.257007 -0.191635
H7    H     H_    0.110846 0.374859 0.259062 0.207754
C23   C     C_R   0.859032 0.316680 0.315942 -0.137389
C24   C     C_R   0.730286 0.244528 0.309966 0.054840
C25   C     C_3   0.516936 0.246109 0.308440 0.453984
C26   C     C_3   0.527776 0.172586 0.241244 -0.226530
H8    H     H_    0.451689 0.225730 0.369037 0.076573
H9    H     H_    0.469376 0.193962 0.179408 0.215395
C27   C     C_R   0.513601 0.685819 0.739403 0.099445
C28   C     C_R   0.354079 0.682044 0.685745 -0.089074
C29   C     C_R   0.198887 0.740163 0.703812 -0.182893
H10   H     H_    0.073898 0.740453 0.663714 0.151266
C30   C     C_R   0.208917 0.803065 0.770173 -0.169533
H11   H     H_    0.089612 0.848384 0.780098 0.206946
C31   C     C_R   0.375767 0.811481 0.819550 -0.101567
C32   C     C_R   0.524262 0.749175 0.804557 0.106515
C33   C     C_3   0.730069 0.767961 0.788264 -0.403039
C34   C     C_3   0.718777 0.699562 0.717310 -0.426060
H12   H     H_    0.823498 0.745186 0.840929 0.180903
H13   H     H_    0.753359 0.838933 0.766356 0.223468
H14   H     H_    0.808032 0.637983 0.728737 0.164025
H15   H     H_    0.735493 0.730875 0.654327 0.194026
C35   C     C_R   0.506937 0.743923 0.310936 -0.084378
C36   C     C_R   0.351781 0.684674 0.316761 -0.061894
C37   C     C_R   0.207454 0.692046 0.255355 -0.051798
H16   H     H_    0.088171 0.645409 0.255772 0.192519
C38   C     C_R   0.223308 0.755326 0.189253 -0.135265
H17   H     H_    0.116007 0.755798 0.140313 0.189478
C39   C     C_R   0.381306 0.814461 0.183493 -0.037873
C40   C     C_R   0.521052 0.809360 0.247388 -0.098652
C41   C     C_3   0.733029 0.792500 0.240004 0.348427
C42   C     C_3   0.713273 0.719340 0.307387 1.005294
O11   O     O_R   0.229140 0.916090 0.913340 -0.532069
O12   O     O_R   0.558860 0.905090 0.086080 -0.500919
O13   O     O_R   0.729100 0.083920 0.086690 -0.544107
C43   C     C_R   0.390881 0.882340 0.114425 0.748352
O14   O     O_R   0.558860 0.905090 0.913930 -0.537116
O15   O     O_R   0.729100 0.083920 0.913310 -0.544482
C44   C     C_R   0.389622 0.882599 0.885511 0.700203
O16   O     O_R   0.229140 0.916080 0.086720 -0.542833
O17   O     O_3   0.395570 0.058660 0.000020 -0.373485
V3    V     V_3+5 0.670450 0.989140 0.000000 1.580430
O18   O     O_R   0.058810 0.094980 0.913910 -0.529583
C45   C     C_R   0.889249 0.117167 0.885736 0.808406
O19   O     O_R   0.058810 0.094980 0.086060 -0.500027
C46   C     C_R   0.889519 0.118819 0.113333 0.772026
V4    V     V_3+5 0.170450 0.010950 0.999970 1.587682
O20   O     O_3   0.895460 0.941370 0.999990 -0.357707
F1    F     F_    0.448363 0.327955 0.277103 -0.669677
C47   C     C_2   0.451826 0.082565 0.271715 0.757919
O21   O     O_2   0.523575 0.044759 0.332702 -0.543670
O22   O     O_R   0.293586 0.044242 0.231612 -0.661439
H18   H     H_    0.251558 0.985495 0.259198 0.302733
C48   C     C_2   0.851601 0.874260 0.263893 0.762944
O23   O     O_2   0.980460 0.867941 0.315855 -0.537964
O24   O     O_R   0.816032 0.957488 0.225062 -0.647426
H19   H     H_    0.901097 0.007044 0.248650 0.293029
F2    F     F_    0.778795 0.757705 0.162044 -0.687135
F3    F     F_    0.804537 0.735351 0.383156 -0.679819
F4    F     F_    0.742276 0.631593 0.277797 -0.673418
F5    F     F_    0.943122 0.995931 0.770075 -0.740694
F6    F     F_    0.932644 0.246638 0.514581 -0.722796
F7    F     F_    0.156991 0.266167 0.132112 -0.677447

loop_
_geom_bond_atom_site_label_1
_geom_bond_atom_site_label_2
_ccdc_geom_bond_type
C27   C32   A    
C38   C39   A    
C32   C33   S    
C48   O23   D    
C6    C7    A    
C1    O6    A    
C27   C34   S    
C30   H11   S    
C39   C43   S    
C16   H6    S    
C13   C14   A    
C35   C36   A    
C18   F6    S    
C15   C16   A    
C19   C20   A    
O19   V4    S    
O5    C3    A    
C17   C18   A    
O15   C45   A    
V2    O10   S    
C33   C34   S    
C5    C6    A    
O17   V4    S    
O8    V2    S    
O24   H19   S    
C30   C31   A    
C39   C40   A    
C29   C30   A    
C41   C42   S    
O1    V2    S    
C10   C14   A    
C4    C14   S    
C47   O22   S    
C26   C47   S    
O7    V1    S    
C41   F2    S    
C7    H4    S    
C15   F5    S    
C22   C23   A    
C38   H17   S    
C13   C18   A    
C48   O24   S    
C8    C9    A    
H1    C17   S    
O12   C43   A    
O12   V3    S    
C25   H8    S    
C26   H9    S    
C42   F3    S    
C20   C46   S    
C3    C23   S    
C5    C10   A    
C41   C48   S    
C11   C12   A    
C6    H3    S    
O22   H18   S    
O4    C2    A    
V4    O20   S    
C34   H14   S    
C12   C13   A    
O18   V4    S    
C42   F4    S    
C35   C40   A    
C12   C15   A    
C37   C38   A    
C19   C24   A    
O2    C1    A    
C24   C25   S    
C16   C17   A    
O15   V3    S    
C29   H10   S    
O19   C46   A    
C2    C36   S    
V3    O20   S    
O3    C4    A    
C22   H7    S    
C28   C29   A    
O6    V2    S    
O9    V2    S    
C9    C11   A    
C5    H2    S    
C23   C24   A    
O13   V3    S    
C19   C26   S    
O2    V1    S    
C21   C22   A    
C25   C26   S    
C21   F7    S    
C31   C32   A    
C27   C28   A    
O1    C2    A    
C11   C45   S    
O14   C44   A    
O17   V3    S    
O14   V3    S    
O5    V1    S    
O11   V4    S    
O8    C3    A    
C34   H15   S    
C8    H5    S    
C33   H13   S    
C1    C28   S    
C37   H16   S    
O7    V2    S    
O4    V1    S    
O3    V1    S    
V1    O10   S    
C20   C21   A    
C33   H12   S    
C35   C42   S    
C25   F1    S    
O13   C46   A    
C40   C41   S    
C36   C37   A    
C7    C8    A    
O18   C45   A    
O11   C44   A    
C9    C10   A    
C47   O21   D    
O9    C4    A    
C43   O16   A    
O16   V4    S    
C31   C44   S    
