data_mof_unit_64739.cif
_audit_creation_date              2012-12-10T17:48:49-0500
_audit_creation_method            fapswitch 2.2
_symmetry_space_group_name_H-M    P1
_symmetry_Int_Tables_number       1
_space_group_crystal_system       triclinic
_cell_length_a                    23.559046
_cell_length_b                    23.558888
_cell_length_c                    38.592257
_cell_angle_alpha                 89.999928
_cell_angle_beta                  89.999918
_cell_angle_gamma                 90.017047
_cell_volume                      21419.6636414

loop_
_atom_site_label
_atom_site_type_symbol
_atom_type_description
_atom_site_fract_x
_atom_site_fract_y
_atom_site_fract_z
_atom_type_partial_charge
C1    C     C_R   0.500007 0.109499 0.499999 0.911176
C2    C     C_R   1.000000 0.500000 0.394594 -0.170630
C3    C     C_R   0.506500 0.051396 0.840380 0.442172
C4    C     C_R   0.948715 0.492673 0.159613 0.442360
C5    C     C_R   0.500757 0.051901 0.159486 0.464798
C6    C     C_R   0.051285 0.507328 0.159613 0.442359
C7    C     C_R   0.499243 0.948098 0.159486 0.464798
C8    C     C_R   0.500000 1.000000 0.322475 -0.113125
C9    C     C_R   1.000000 0.500000 0.322371 -0.135420
C10   C     C_R   0.500000 0.000000 0.677621 -0.135378
C11   C     C_R   0.000000 0.500000 0.677523 -0.133306
C12   C     C_R   0.000000 0.499999 0.822475 -0.113124
C13   C     C_R   0.500000 0.000000 0.605400 -0.170578
C14   C     C_R   0.500000 0.000000 0.822371 -0.135419
C15   C     C_R   1.000000 0.500000 0.177621 -0.135377
C16   C     C_R   0.500000 1.000000 0.177523 -0.133305
C17   C     C_3   0.363828 0.048918 0.328812 0.096782
C18   C     C_3   0.305341 0.030688 0.341896 -0.340936
C19   C     C_3   0.266779 0.081794 0.347863 -0.949394
C20   C     C_3   0.928619 0.385225 0.320673 0.078269
C21   C     C_3   0.920157 0.334589 0.296503 -0.301880
C22   C     C_3   0.857807 0.317274 0.294675 -0.979291
C23   C     C_3   0.636172 0.951082 0.328813 0.096781
C24   C     C_R   1.000000 0.500000 0.605315 -0.166361
C25   C     C_3   0.694659 0.969312 0.341896 -0.340936
C26   C     C_3   0.733221 0.918207 0.347864 -0.949393
C27   C     C_3   0.071381 0.614775 0.320672 0.078272
C28   C     C_3   0.079843 0.665412 0.296502 -0.301882
C29   C     C_3   0.142193 0.682726 0.294674 -0.979292
C30   C     C_3   0.386303 0.926751 0.679188 0.078236
C31   C     C_3   0.335762 0.917401 0.703311 -0.300901
C32   C     C_3   0.319345 0.854795 0.704978 -0.981455
C33   C     C_3   0.052917 0.630475 0.674802 0.073670
C34   C     C_3   0.093242 0.609553 0.703264 -0.343697
C35   C     C_R   1.000000 0.500000 0.894679 -0.162548
C36   C     C_3   0.148416 0.643469 0.703521 -0.936512
C37   C     C_3   0.613697 0.073250 0.679188 0.078235
C38   C     C_3   0.664238 0.082599 0.703310 -0.300902
C39   C     C_3   0.680655 0.145206 0.704978 -0.981455
C40   C     C_3   0.947084 0.369524 0.674802 0.073669
C41   C     C_3   0.906758 0.390446 0.703264 -0.343698
C42   C     C_3   0.851585 0.356530 0.703521 -0.936511
C43   C     C_3   0.863830 0.548920 0.828812 0.096782
C44   C     C_3   0.805342 0.530692 0.841896 -0.340938
C45   C     C_3   0.766782 0.581798 0.847864 -0.949395
C46   C     C_R   0.500000 0.000000 0.894594 -0.170630
C47   C     C_3   0.428620 0.885224 0.820673 0.078271
C48   C     C_3   0.420159 0.834588 0.796503 -0.301882
C49   C     C_3   0.357808 0.817272 0.794675 -0.979291
C50   C     C_3   0.136170 0.451079 0.828812 0.096782
C51   C     C_3   0.194658 0.469307 0.841896 -0.340938
C52   C     C_3   0.233219 0.418201 0.847864 -0.949396
C53   C     C_3   0.571380 0.114776 0.820672 0.078271
C54   C     C_3   0.579841 0.165412 0.796502 -0.301882
C55   C     C_3   0.642192 0.182728 0.794674 -0.979291
C56   C     C_3   0.886302 0.426752 0.179188 0.078236
C57   C     C_R   1.000000 0.500000 0.105400 -0.170578
C58   C     C_3   0.835761 0.417403 0.203311 -0.300903
C59   C     C_3   0.819343 0.354797 0.204978 -0.981456
C60   C     C_3   0.552913 0.130477 0.174802 0.073669
C61   C     C_3   0.593239 0.109556 0.203263 -0.343699
C62   C     C_3   0.648412 0.143474 0.203521 -0.936511
C63   C     C_3   0.113698 0.573249 0.179187 0.078237
C64   C     C_3   0.164239 0.582598 0.203310 -0.300903
C65   C     C_3   0.180656 0.645204 0.204977 -0.981456
C66   C     C_3   0.447087 0.869523 0.174802 0.073669
C67   C     C_3   0.406761 0.890444 0.203264 -0.343697
C68   C     C_R   0.500000 1.000000 0.105315 -0.166361
C69   C     C_3   0.351589 0.856526 0.203521 -0.936509
C70   C     C_R   0.500000 1.000000 0.215145 0.319142
C71   C     C_R   1.000000 0.500000 0.215179 0.330524
C72   C     C_R   0.500000 0.000000 0.784814 0.330172
C73   C     C_R   0.890501 0.499992 0.500000 0.911133
C74   C     C_R   0.000000 0.499999 0.784834 0.366096
C75   C     C_R   0.000000 0.500000 0.715145 0.319142
C76   C     C_R   0.500000 0.000000 0.715179 0.330523
C77   C     C_R   1.000000 0.500000 0.284814 0.330171
C78   C     C_R   0.500000 1.000000 0.284834 0.366095
C79   C     C_R   0.391848 0.500002 0.500000 0.882864
C80   C     C_R   0.500001 0.391848 0.500000 0.882870
C81   C     C_R   0.608152 0.499998 0.500000 0.882863
C82   C     C_R   0.499999 0.608152 0.500000 0.882869
C83   C     C_R   0.891848 0.000002 0.000000 0.882864
C84   C     C_R   0.499992 0.890501 0.499999 0.911176
C85   C     C_R   0.000001 0.891848 0.000000 0.882870
C86   C     C_R   0.108152 0.999998 1.000000 0.882863
C87   C     C_R   0.999999 0.108152 0.000000 0.882869
C88   C     C_R   0.500000 1.000000 0.432403 0.934368
C89   C     C_R   1.000000 0.500000 0.432372 0.933076
C90   C     C_R   0.500000 0.000000 0.567626 0.933349
C91   C     C_R   1.000000 0.500000 0.567596 0.936433
C92   C     C_R   1.000000 0.500000 0.932403 0.934367
C93   C     C_R   0.500000 0.000000 0.932373 0.933076
C94   C     C_R   1.000000 0.500000 0.067626 0.933349
C95   C     C_R   0.109499 0.500008 0.500000 0.911133
C96   C     C_R   0.500000 1.000000 0.067596 0.936433
C97   C     C_1   0.500022 0.169984 0.499999 -0.193310
C98   C     C_1   0.830016 0.499976 0.500001 -0.192764
C99   C     C_1   0.499978 0.830016 0.499999 -0.193310
C100  C     C_1   0.169984 0.500024 0.500001 -0.192764
C101  C     C_1   0.000022 0.669984 0.999999 -0.193310
C102  C     C_1   0.330016 0.999976 0.000001 -0.192764
C103  C     C_1   0.999978 0.330016 0.999999 -0.193310
C104  C     C_1   0.669984 0.000024 0.000001 -0.192764
C105  C     C_1   0.500024 0.220907 0.499999 0.009055
C106  C     C_R   0.000007 0.609499 0.999999 0.911176
C107  C     C_1   0.779092 0.499971 0.500001 0.009354
C108  C     C_1   0.499976 0.779093 0.499999 0.009055
C109  C     C_1   0.220908 0.500028 0.500001 0.009354
C110  C     C_1   0.000023 0.720907 0.999999 0.009055
C111  C     C_1   0.279092 0.999971 0.000001 0.009354
C112  C     C_1   0.999976 0.279093 0.999999 0.009055
C113  C     C_1   0.720908 0.000029 0.000001 0.009354
C114  C     C_1   0.500018 0.280437 0.499999 0.010776
C115  C     C_1   0.719563 0.499976 0.500001 0.010943
C116  C     C_1   0.499982 0.719563 0.499999 0.010776
C117  C     C_R   0.390501 0.999992 0.000000 0.911134
C118  C     C_1   0.280437 0.500023 0.500001 0.010943
C119  C     C_1   0.000018 0.780437 1.000000 0.010776
C120  C     C_1   0.219563 0.999976 0.000001 0.010943
C121  C     C_1   0.999982 0.219563 0.999999 0.010776
C122  C     C_1   0.780437 0.000023 0.000001 0.010943
C123  C     C_1   0.500010 0.331361 0.500000 -0.180720
C124  C     C_1   0.668639 0.499986 0.500000 -0.180637
C125  C     C_1   0.499990 0.668639 0.500000 -0.180720
C126  C     C_1   0.331361 0.500014 0.500000 -0.180637
C127  C     C_1   0.000010 0.831361 0.000000 -0.180720
C128  C     C_R   0.999992 0.390501 0.999999 0.911176
C129  C     C_1   0.168639 0.999986 0.000000 -0.180637
C130  C     C_1   0.999990 0.168639 1.000000 -0.180720
C131  C     C_1   0.831361 0.000014 0.000000 -0.180637
C132  C     C_R   0.448545 0.000788 0.376603 -0.302459
C133  C     C_R   0.994613 0.448742 0.376462 -0.293188
C134  C     C_R   0.551455 0.999212 0.376603 -0.302460
C135  C     C_R   0.005387 0.551258 0.376462 -0.293187
C136  C     C_R   0.448833 0.993814 0.623530 -0.293178
C137  C     C_R   0.999070 0.551476 0.623398 -0.304200
C138  C     C_R   0.551167 0.006186 0.623530 -0.293178
C139  C     C_R   0.609499 0.000008 0.000000 0.911133
C140  C     C_R   0.000930 0.448524 0.623398 -0.304200
C141  C     C_R   0.948545 0.500789 0.876603 -0.302459
C142  C     C_R   0.494613 0.948742 0.876462 -0.293188
C143  C     C_R   0.051455 0.499211 0.876602 -0.302460
C144  C     C_R   0.505387 0.051258 0.876462 -0.293187
C145  C     C_R   0.948833 0.493815 0.123531 -0.293178
C146  C     C_R   0.499068 0.051476 0.123398 -0.304201
C147  C     C_R   0.051167 0.506186 0.123531 -0.293178
C148  C     C_R   0.500932 0.948524 0.123398 -0.304200
C149  C     C_R   0.448126 0.002432 0.340461 0.443103
C150  C     C_R   0.500000 1.000000 0.394679 -0.162547
C151  C     C_R   0.993499 0.448604 0.340380 0.442173
C152  C     C_R   0.551875 0.997568 0.340461 0.443103
C153  C     C_R   0.006501 0.551396 0.340380 0.442173
C154  C     C_R   0.448715 0.992672 0.659613 0.442359
C155  C     C_R   0.000759 0.551901 0.659486 0.464798
C156  C     C_R   0.551285 0.007328 0.659613 0.442359
C157  C     C_R   0.999242 0.448098 0.659486 0.464799
C158  C     C_R   0.948126 0.502433 0.840461 0.443103
C159  C     C_R   0.493500 0.948604 0.840380 0.442173
C160  C     C_R   0.051874 0.497566 0.840461 0.443103
H1    H     H_    0.408551 0.000174 0.390424 0.177781
H2    H     H_    0.490408 0.908808 0.890143 0.183402
H3    H     H_    0.668419 0.146820 0.785119 0.271923
H4    H     H_    0.923220 0.402573 0.189737 0.134637
H5    H     H_    0.875447 0.410201 0.152964 0.142212
H6    H     H_    0.846845 0.432415 0.229780 0.227721
H7    H     H_    0.798835 0.442354 0.193859 0.233280
H8    H     H_    0.806503 0.339359 0.178934 0.268793
H9    H     H_    0.783052 0.349246 0.223018 0.270768
H10   H     H_    0.855619 0.329025 0.214476 0.272177
H11   H     H_    0.545494 0.176624 0.178607 0.175465
H12   H     H_    0.573190 0.125952 0.148830 0.123451
H13   H     H_    0.091449 0.499823 0.890424 0.177780
H14   H     H_    0.572236 0.113706 0.228934 0.247914
H15   H     H_    0.603504 0.064095 0.198896 0.218570
H16   H     H_    0.670507 0.139282 0.178221 0.263310
H17   H     H_    0.676725 0.127080 0.224230 0.273353
H18   H     H_    0.639611 0.189019 0.208674 0.263494
H19   H     H_    0.076780 0.597427 0.189737 0.134637
H20   H     H_    0.124552 0.589800 0.152964 0.142212
H21   H     H_    0.153155 0.567585 0.229780 0.227722
H22   H     H_    0.201165 0.557647 0.193858 0.233279
H23   H     H_    0.193496 0.660642 0.178934 0.268792
H24   H     H_    0.509592 0.091192 0.890143 0.183402
H25   H     H_    0.216948 0.650755 0.223017 0.270768
H26   H     H_    0.144380 0.670976 0.214476 0.272178
H27   H     H_    0.454506 0.823376 0.178607 0.175465
H28   H     H_    0.426810 0.874048 0.148830 0.123451
H29   H     H_    0.427765 0.886294 0.228935 0.247914
H30   H     H_    0.396496 0.935905 0.198897 0.218569
H31   H     H_    0.329493 0.860718 0.178222 0.263309
H32   H     H_    0.323276 0.872920 0.224231 0.273352
H33   H     H_    0.360389 0.810981 0.208675 0.263494
H34   H     H_    0.908975 0.488972 0.109845 0.183301
H35   H     H_    0.497612 0.091549 0.109655 0.180500
H36   H     H_    0.091025 0.511028 0.109845 0.183301
H37   H     H_    0.502389 0.908451 0.109655 0.180500
H38   H     H_    0.358523 0.071832 0.303852 0.176237
H39   H     H_    0.382860 0.079868 0.347442 0.121855
H40   H     H_    0.285255 0.002038 0.322565 0.237343
H41   H     H_    0.990407 0.408808 0.390143 0.183402
H42   H     H_    0.310073 0.007006 0.366625 0.218638
H43   H     H_    0.285467 0.110443 0.367681 0.266247
H44   H     H_    0.224700 0.067084 0.357215 0.268918
H45   H     H_    0.260697 0.105657 0.323317 0.268666
H46   H     H_    0.903958 0.421796 0.310089 0.134657
H47   H     H_    0.912081 0.374094 0.346856 0.142434
H48   H     H_    0.935178 0.345925 0.270074 0.227845
H49   H     H_    0.945576 0.298013 0.305997 0.233216
H50   H     H_    0.842381 0.304197 0.320677 0.269402
H51   H     H_    0.852901 0.280919 0.276614 0.270859
H52   H     H_    0.591449 0.999825 0.390424 0.177780
H53   H     H_    0.831580 0.353183 0.285119 0.271923
H54   H     H_    0.641478 0.928168 0.303852 0.176237
H55   H     H_    0.617140 0.920132 0.347442 0.121855
H56   H     H_    0.714746 0.997962 0.322565 0.237342
H57   H     H_    0.689927 0.992995 0.366625 0.218638
H58   H     H_    0.714533 0.889558 0.367681 0.266246
H59   H     H_    0.775300 0.932917 0.357216 0.268917
H60   H     H_    0.739304 0.894343 0.323317 0.268666
H61   H     H_    0.096042 0.578204 0.310088 0.134656
H62   H     H_    0.087920 0.625906 0.346855 0.142434
H63   H     H_    0.009593 0.591192 0.390143 0.183402
H64   H     H_    0.064821 0.654075 0.270074 0.227845
H65   H     H_    0.054423 0.701988 0.305997 0.233216
H66   H     H_    0.157618 0.695803 0.320676 0.269403
H67   H     H_    0.147099 0.719081 0.276613 0.270860
H68   H     H_    0.168420 0.646818 0.285119 0.271923
H69   H     H_    0.423221 0.902573 0.689737 0.134636
H70   H     H_    0.375448 0.910199 0.652964 0.142212
H71   H     H_    0.346846 0.932414 0.729780 0.227721
H72   H     H_    0.298835 0.942352 0.693859 0.233279
H73   H     H_    0.306505 0.839357 0.678935 0.268792
H74   H     H_    0.408975 0.988972 0.609845 0.183301
H75   H     H_    0.283054 0.849244 0.723018 0.270768
H76   H     H_    0.355621 0.829024 0.714477 0.272177
H77   H     H_    0.045499 0.676622 0.678607 0.175465
H78   H     H_    0.073194 0.625949 0.648830 0.123451
H79   H     H_    0.072239 0.613704 0.728934 0.247914
H80   H     H_    0.103505 0.564091 0.698897 0.218570
H81   H     H_    0.170512 0.639276 0.678221 0.263309
H82   H     H_    0.176728 0.627074 0.724230 0.273353
H83   H     H_    0.139617 0.689014 0.708674 0.263495
H84   H     H_    0.576779 0.097428 0.689737 0.134637
H85   H     H_    0.997614 0.591549 0.609655 0.180501
H86   H     H_    0.624552 0.089801 0.652964 0.142212
H87   H     H_    0.653154 0.067586 0.729780 0.227721
H88   H     H_    0.701164 0.057648 0.693858 0.233279
H89   H     H_    0.693495 0.160643 0.678934 0.268792
H90   H     H_    0.716946 0.150757 0.723017 0.270768
H91   H     H_    0.644379 0.170977 0.714476 0.272177
H92   H     H_    0.954501 0.323377 0.678607 0.175465
H93   H     H_    0.926807 0.374050 0.648830 0.123451
H94   H     H_    0.927761 0.386296 0.728935 0.247914
H95   H     H_    0.896495 0.435908 0.698896 0.218570
H96   H     H_    0.591025 0.011029 0.609845 0.183301
H97   H     H_    0.829489 0.360723 0.678222 0.263310
H98   H     H_    0.823272 0.372925 0.724231 0.273353
H99   H     H_    0.860384 0.310985 0.708675 0.263495
H100  H     H_    0.858524 0.571834 0.803852 0.176238
H101  H     H_    0.882862 0.579870 0.847442 0.121856
H102  H     H_    0.785255 0.502042 0.822565 0.237343
H103  H     H_    0.810074 0.507010 0.866625 0.218638
H104  H     H_    0.785470 0.610447 0.867681 0.266247
H105  H     H_    0.724703 0.567089 0.857216 0.268918
H106  H     H_    0.760700 0.605662 0.823317 0.268666
H107  H     H_    0.002386 0.408451 0.609655 0.180501
H108  H     H_    0.403958 0.921795 0.810090 0.134656
H109  H     H_    0.412083 0.874093 0.846856 0.142434
H110  H     H_    0.435179 0.845925 0.770074 0.227844
H111  H     H_    0.445579 0.798012 0.805997 0.233216
H112  H     H_    0.342384 0.804195 0.820677 0.269402
H113  H     H_    0.352903 0.780917 0.776614 0.270860
H114  H     H_    0.331581 0.853180 0.785120 0.271923
H115  H     H_    0.141476 0.428164 0.803852 0.176238
H116  H     H_    0.117138 0.420129 0.847442 0.121855
H117  H     H_    0.214745 0.497957 0.822565 0.237343
H118  H     H_    0.908551 0.500176 0.890424 0.177780
H119  H     H_    0.189926 0.492990 0.866625 0.218639
H120  H     H_    0.214530 0.389553 0.867681 0.266247
H121  H     H_    0.275298 0.432910 0.857216 0.268918
H122  H     H_    0.239301 0.394337 0.823317 0.268667
H123  H     H_    0.596041 0.078205 0.810089 0.134656
H124  H     H_    0.587918 0.125907 0.846856 0.142434
H125  H     H_    0.564820 0.154076 0.770074 0.227845
H126  H     H_    0.554421 0.201988 0.805997 0.233216
H127  H     H_    0.657616 0.195805 0.820676 0.269403
H128  H     H_    0.647097 0.219083 0.776613 0.270860
N1    N     N_R   0.534499 0.964279 0.267168 -0.159071
N2    N     N_R   0.464652 0.034935 0.767189 -0.138656
N3    N     N_R   0.965502 0.535721 0.767169 -0.159072
N4    N     N_R   0.535348 0.965065 0.767189 -0.138656
N5    N     N_R   0.964491 0.534772 0.232803 -0.138546
N6    N     N_R   0.534478 0.964252 0.232802 -0.134616
N7    N     N_R   0.035509 0.465229 0.232803 -0.138546
N8    N     N_R   0.465522 0.035747 0.232802 -0.134616
N9    N     N_R   0.964652 0.534936 0.267189 -0.138656
N10   N     N_R   0.465501 0.035721 0.267168 -0.159071
N11   N     N_R   0.035347 0.465065 0.267189 -0.138656
N12   N     N_R   0.464491 0.034771 0.732803 -0.138546
N13   N     N_R   0.034477 0.464251 0.732802 -0.134616
N14   N     N_R   0.535509 0.965229 0.732803 -0.138546
N15   N     N_R   0.965523 0.535748 0.732802 -0.134616
N16   N     N_R   0.034498 0.464278 0.767168 -0.159071
O1    O     O_R   0.546640 0.082440 0.499910 -0.614982
O2    O     O_R   0.417560 0.046640 0.999910 -0.610568
O3    O     O_R   0.953360 0.417560 0.999910 -0.614982
O4    O     O_R   0.582440 0.953360 0.999910 -0.610568
O5    O     O_R   0.046640 0.417560 0.000090 -0.612341
O6    O     O_R   0.417560 0.953360 0.000090 -0.616671
O7    O     O_R   0.953360 0.582440 0.000090 -0.612341
O8    O     O_R   0.582440 0.046640 0.000090 -0.616671
O9    O     O_R   0.546640 0.999670 0.448980 -0.626848
O10   O     O_R   0.000330 0.546640 0.448980 -0.625034
O11   O     O_R   0.453360 0.000330 0.448980 -0.626847
O12   O     O_R   0.917560 0.546640 0.499910 -0.610568
O13   O     O_R   0.999670 0.453360 0.448980 -0.625034
O14   O     O_R   0.546640 0.000330 0.551020 -0.624789
O15   O     O_R   0.000330 0.453360 0.551020 -0.626308
O16   O     O_R   0.453360 0.999670 0.551020 -0.624789
O17   O     O_R   0.999670 0.546640 0.551020 -0.626308
O18   O     O_R   0.046640 0.499670 0.948980 -0.626848
O19   O     O_R   0.500330 0.046640 0.948980 -0.625034
O20   O     O_R   0.953360 0.500330 0.948980 -0.626847
O21   O     O_R   0.499670 0.953360 0.948980 -0.625034
O22   O     O_R   0.046640 0.500330 0.051020 -0.624789
O23   O     O_R   0.453360 0.917560 0.499910 -0.614982
O24   O     O_R   0.500330 0.953360 0.051020 -0.626308
O25   O     O_R   0.953360 0.499670 0.051020 -0.624789
O26   O     O_R   0.499670 0.046640 0.051020 -0.626308
O27   O     O_R   0.418280 0.499620 0.470400 -0.608404
O28   O     O_R   0.500380 0.418280 0.470400 -0.608317
O29   O     O_R   0.581720 0.500380 0.470400 -0.608405
O30   O     O_R   0.499620 0.581720 0.470400 -0.608317
O31   O     O_R   0.418280 0.500380 0.529600 -0.608218
O32   O     O_R   0.500380 0.581720 0.529600 -0.608339
O33   O     O_R   0.581720 0.499620 0.529600 -0.608218
O34   O     O_R   0.082440 0.453360 0.499910 -0.610568
O35   O     O_R   0.499620 0.418280 0.529600 -0.608339
O36   O     O_R   0.918280 0.999620 0.970400 -0.608404
O37   O     O_R   0.000380 0.918280 0.970400 -0.608317
O38   O     O_R   0.081720 0.000380 0.970400 -0.608405
O39   O     O_R   0.999620 0.081720 0.970400 -0.608317
O40   O     O_R   0.918280 0.000380 0.029600 -0.608218
O41   O     O_R   0.000380 0.081720 0.029600 -0.608339
O42   O     O_R   0.081720 0.999620 0.029600 -0.608218
O43   O     O_R   0.999620 0.918280 0.029600 -0.608339
O44   O     O_3   0.397273 0.000012 0.322423 -0.634416
O45   O     O_R   0.546640 0.917560 0.500090 -0.612341
O46   O     O_3   0.987096 0.398033 0.322626 -0.624848
O47   O     O_3   0.602727 0.999988 0.322423 -0.634416
O48   O     O_3   0.012904 0.601967 0.322626 -0.624848
O49   O     O_3   0.398260 0.985420 0.677370 -0.624647
O50   O     O_3   0.999598 0.602979 0.677288 -0.625452
O51   O     O_3   0.601740 0.014580 0.677370 -0.624646
O52   O     O_3   0.000403 0.397020 0.677288 -0.625452
O53   O     O_3   0.897273 0.500014 0.822423 -0.634416
O54   O     O_3   0.487097 0.898033 0.822626 -0.624848
O55   O     O_3   0.102727 0.499985 0.822422 -0.634416
O56   O     O_R   0.917560 0.453360 0.500090 -0.616671
O57   O     O_3   0.512903 0.101967 0.822626 -0.624848
O58   O     O_3   0.898260 0.485421 0.177370 -0.624647
O59   O     O_3   0.499594 0.102979 0.177288 -0.625451
O60   O     O_3   0.101740 0.514580 0.177370 -0.624647
O61   O     O_3   0.500406 0.897020 0.177288 -0.625451
O62   O     O_R   0.453360 0.082440 0.500090 -0.612341
O63   O     O_R   0.082440 0.546640 0.500090 -0.616671
O64   O     O_R   0.046640 0.582440 0.999910 -0.614982
Zn1   Zn    Zn3+2 0.562320 0.000000 0.500000 0.960306
Zn2   Zn    Zn3+2 0.500000 0.500000 0.538280 0.980139
Zn3   Zn    Zn3+2 0.000000 0.000000 0.961720 0.979969
Zn4   Zn    Zn3+2 0.000000 0.000000 0.038280 0.980139
Zn5   Zn    Zn3+2 1.000000 0.562320 0.500000 0.961400
Zn6   Zn    Zn3+2 0.437680 0.000000 0.500000 0.960306
Zn7   Zn    Zn3+2 1.000000 0.437680 0.500000 0.961400
Zn8   Zn    Zn3+2 0.062320 0.500000 0.000000 0.960306
Zn9   Zn    Zn3+2 0.500000 0.062320 0.000000 0.961400
Zn10  Zn    Zn3+2 0.937680 0.500000 0.000000 0.960306
Zn11  Zn    Zn3+2 0.500000 0.937680 0.000000 0.961400
Zn12  Zn    Zn3+2 0.500000 0.500000 0.461720 0.979969

loop_
_geom_bond_atom_site_label_1
_geom_bond_atom_site_label_2
_ccdc_geom_bond_type
C144  H24   S    
C96   O26   A    
C66   H28   S    
C26   H58   S    
C132  C150  A    
C83   O36   A    
C61   H15   S    
C151  O46   S    
C117  O2    A    
C10   C154  A    
C76   N14   A    
O5    Zn8   S    
C23   H55   S    
C24   C140  A    
C11   C157  A    
C79   O31   A    
C36   H81   S    
C87   C130  S    
C42   H97   S    
C57   C145  A    
C13   C90   S    
C106  O7    A    
C132  H1    S    
C139  O8    A    
C48   H111  S    
C94   O22   A    
C149  O44   S    
C31   H71   S    
C85   O37   A    
C34   H80   S    
C97   C105  T    
C45   H105  S    
O41   Zn4   S    
C49   H113  S    
C100  C109  T    
C37   H84   S    
O18   Zn8   S    
C21   C22   S    
C69   H31   S    
C102  C111  T    
C109  C118  S    
C133  H41   S    
C51   C52   S    
O37   Zn3   S    
O20   Zn10  S    
C45   H104  S    
N7    N11   A    
C63   O60   S    
C103  C112  T    
C60   H12   S    
O40   Zn4   S    
C43   C44   S    
C82   C125  S    
C83   C131  S    
C37   C38   S    
C69   H33   S    
C85   O43   A    
C140  H107  S    
C51   H119  S    
C68   C96   S    
C145  H34   S    
O32   Zn2   S    
C57   C147  A    
C143  H13   S    
C75   N15   A    
C68   C146  A    
C30   H69   S    
C53   H124  S    
C77   N9    A    
C33   O50   S    
C32   H76   S    
N13   N16   A    
C9    C151  A    
O23   Zn6   S    
C36   H83   S    
C135  H63   S    
C56   H4    S    
O8    Zn9   S    
C9    C77   S    
C55   H3    S    
C17   O44   S    
C22   H50   S    
C156  O51   S    
C88   O9    A    
C83   O40   A    
C74   N3    A    
C63   H20   S    
C20   C21   S    
O31   Zn2   S    
C96   O24   A    
O3    Zn10  S    
C111  C120  S    
C59   H9    S    
C133  C151  A    
C80   C123  S    
O1    Zn1   S    
C43   O53   S    
O13   Zn7   S    
C121  C130  T    
C44   H103  S    
C143  C160  A    
C53   C54   S    
C54   H125  S    
C99   C108  T    
C8    C152  A    
C38   C39   S    
O4    Zn11  S    
O16   Zn6   S    
C51   H117  S    
C71   N5    A    
C72   N2    A    
C89   O13   A    
C33   H78   S    
C136  H74   S    
C56   H5    S    
C17   H39   S    
O42   Zn4   S    
C75   N13   A    
O30   Zn12  S    
O39   Zn3   S    
C68   C148  A    
C11   C155  A    
C77   N11   A    
C64   H22   S    
C66   C67   S    
C9    C153  A    
C94   O25   A    
C95   O63   A    
O35   Zn2   S    
C29   H66   S    
C43   H100  S    
C66   O61   S    
C73   C98   S    
C27   H61   S    
C113  C122  S    
C120  C129  T    
C16   C70   S    
O64   Zn8   S    
C46   C144  A    
C139  O4    A    
C25   C26   S    
C95   O34   A    
C1    O1    A    
C88   O11   A    
C128  O5    A    
O33   Zn2   S    
C58   H7    S    
C137  H85   S    
C31   C32   S    
C28   H64   S    
C38   H88   S    
C55   H127  S    
C17   C18   S    
C147  H36   S    
C106  O64   A    
C3    O57   S    
C93   O19   A    
C102  C117  S    
C114  C123  T    
O36   Zn3   S    
C57   C94   S    
C18   H40   S    
C157  O52   S    
C122  C131  T    
O45   Zn1   S    
C101  C106  S    
C65   H26   S    
C26   H59   S    
C60   H11   S    
C14   C72   S    
O24   Zn11  S    
C73   O56   A    
C61   H14   S    
C110  C119  S    
C24   C137  A    
C41   H95   S    
C2    C135  A    
C14   C159  A    
C116  C125  T    
C36   H82   S    
C13   C138  A    
C72   N4    A    
C50   O55   S    
C42   H98   S    
C11   C75   S    
C6    C147  A    
C39   H90   S    
C4    C145  A    
C56   O58   S    
C56   C58   S    
C34   C36   S    
C61   C62   S    
C58   H6    S    
O7    Zn10  S    
C104  C113  T    
C78   N10   A    
O26   Zn9   S    
C86   O42   A    
C22   H53   S    
C29   H68   S    
C12   C158  A    
C146  H35   S    
C32   H75   S    
C7    O61   S    
C119  C127  T    
O6    Zn11  S    
C12   C74   S    
C1    O62   A    
C41   C42   S    
C25   H57   S    
C142  C159  A    
N3    N15   A    
O62   Zn6   S    
C62   H17   S    
C67   H30   S    
C46   C142  A    
C80   O28   A    
C60   O59   S    
C158  O53   S    
C28   C29   S    
C141  H118  S    
C44   H102  S    
C30   C31   S    
C40   H92   S    
C148  H37   S    
O21   Zn11  S    
C154  O49   S    
C37   O51   S    
O43   Zn4   S    
C18   C19   S    
C87   O39   A    
C52   H121  S    
C54   C55   S    
C91   O15   A    
C50   H115  S    
C86   O38   A    
C155  O50   S    
C74   N16   A    
C32   H73   S    
O56   Zn7   S    
C35   C92   S    
N8    N10   A    
C66   H27   S    
C132  C149  A    
O2    Zn9   S    
C138  H96   S    
C69   H32   S    
C53   H123  S    
C92   O18   A    
C84   O45   A    
C2    C133  A    
C73   O12   A    
C43   H101  S    
C6    O60   S    
C95   C100  S    
O9    Zn1   S    
C58   C59   S    
C37   H86   S    
C60   C61   S    
C28   H65   S    
C2    C89   S    
C136  C154  A    
C47   H109  S    
C134  C152  A    
C22   H51   S    
C50   C51   S    
C17   H38   S    
C18   H42   S    
C12   C160  A    
C34   H79   S    
C30   O49   S    
C3    C14   A    
C40   H93   S    
C45   H106  S    
C49   H114  S    
C159  O54   S    
C44   C45   S    
C78   N1    A    
C152  O47   S    
C115  C124  T    
C84   C99   S    
C88   C150  S    
C3    C144  A    
C135  C153  A    
C142  H2    S    
C54   H126  S    
C15   C71   S    
N1    N6    A    
C104  C139  S    
C64   C65   S    
C108  C116  S    
C82   O32   A    
C8    C149  A    
C101  C110  T    
C160  O55   S    
O29   Zn12  S    
C90   O16   A    
O15   Zn7   S    
C21   H48   S    
C80   O35   A    
C48   C49   S    
C19   H44   S    
C21   H49   S    
C79   O27   A    
N5    N9    A    
C91   O17   A    
C33   H77   S    
C98   C107  T    
C49   H112  S    
C141  C158  A    
C112  C121  S    
C39   H91   S    
C81   O29   A    
O17   Zn5   S    
C59   H8    S    
C35   C143  A    
C92   O20   A    
C23   H54   S    
C47   H108  S    
C20   H46   S    
C137  C155  A    
C87   O41   A    
C134  C150  A    
C63   H19   S    
C153  O48   S    
C5    O59   S    
C20   O46   S    
C5    C16   A    
C6    C15   A    
C10   C76   S    
O22   Zn8   S    
C40   O52   S    
C81   O33   A    
N4    N14   A    
C70   N8    A    
C59   H10   S    
C89   O10   A    
C10   C156  A    
C52   H120  S    
C23   C25   S    
C62   H16   S    
C128  O3    A    
C31   H72   S    
C8    C78   S    
O34   Zn7   S    
O19   Zn9   S    
C19   H43   S    
C23   O47   S    
C65   H25   S    
C134  H52   S    
C81   C124  S    
C26   H60   S    
O27   Zn12  S    
O28   Zn12  S    
C53   O57   S    
C105  C114  S    
C82   O30   A    
O14   Zn1   S    
C90   O14   A    
C1    C97   S    
C76   N12   A    
C71   N7    A    
C52   H122  S    
C41   H94   S    
O10   Zn5   S    
C63   C64   S    
O38   Zn3   S    
C67   C69   S    
N2    N12   A    
C42   H99   S    
C140  C157  A    
C47   C48   S    
C39   H89   S    
C33   C34   S    
C103  C128  S    
C107  C115  S    
C35   C141  A    
C64   H21   S    
C40   C41   S    
C79   C126  S    
O11   Zn6   S    
C84   O23   A    
C13   C136  A    
C85   C127  S    
C29   H67   S    
C24   C91   S    
C7    C148  A    
C65   H23   S    
C138  C156  A    
C117  O6    A    
C7    C16   A    
C27   H62   S    
C5    C146  A    
C25   H56   S    
C62   H18   S    
C93   O21   A    
C67   H29   S    
C86   C129  S    
C20   H47   S    
O63   Zn5   S    
C30   H70   S    
C4    C15   A    
C47   O54   S    
C27   O48   S    
C46   C93   S    
C38   H87   S    
C55   H128  S    
C70   N6    A    
C48   H110  S    
O12   Zn5   S    
O25   Zn10  S    
C50   H116  S    
C27   C28   S    
C19   H45   S    
C118  C126  T    
C4    O58   S    
