data_mof_unit_41272.cif
_audit_creation_date              2012-12-11T15:27:39-0500
_audit_creation_method            fapswitch 2.2
_symmetry_space_group_name_H-M    P1
_symmetry_Int_Tables_number       1
_space_group_crystal_system       triclinic
_cell_length_a                    23.210332
_cell_length_b                    7.301414
_cell_length_c                    15.064014
_cell_angle_alpha                 89.980994
_cell_angle_beta                  108.063675
_cell_angle_gamma                 90.029971
_cell_volume                      2427.04695349

loop_
_atom_site_label
_atom_site_type_symbol
_atom_type_description
_atom_site_fract_x
_atom_site_fract_y
_atom_site_fract_z
_atom_type_partial_charge
O1    O     O_R   0.711000 0.648610 0.341170 -0.547468
O2    O     O_R   0.289000 0.351390 0.658830 -0.527654
O3    O     O_R   0.789000 0.148610 0.158830 -0.542925
O4    O     O_R   0.211000 0.851390 0.841170 -0.528355
O5    O     O_R   0.829650 0.322030 0.336650 -0.530252
O6    O     O_R   0.170350 0.677970 0.663350 -0.542909
O7    O     O_R   0.670350 0.822030 0.163350 -0.530762
O8    O     O_R   0.329650 0.177970 0.836650 -0.542398
C1    C     C_R   0.854334 0.485794 0.356562 0.768621
C2    C     C_R   0.145647 0.514233 0.643502 0.771544
C3    C     C_R   0.645646 0.985743 0.143505 0.774076
C4    C     C_R   0.354353 0.014273 0.856499 0.771305
O9    O     O_R   0.713950 0.319280 0.352070 -0.528725
O10   O     O_R   0.286050 0.680720 0.647930 -0.546783
O11   O     O_R   0.786050 0.819280 0.147930 -0.530196
O12   O     O_R   0.213950 0.180720 0.852070 -0.546361
O13   O     O_R   0.672470 0.142870 0.174360 -0.539779
O14   O     O_R   0.327530 0.857130 0.825640 -0.529430
O15   O     O_R   0.827530 0.642870 0.325640 -0.541859
O16   O     O_R   0.172470 0.357130 0.674360 -0.528786
C5    C     C_R   0.702149 0.487584 0.376732 0.756273
C6    C     C_R   0.297882 0.512495 0.623258 0.761314
C7    C     C_R   0.797640 0.987603 0.123091 0.766615
C8    C     C_R   0.202329 0.012289 0.876911 0.762692
O17   O     O_3   0.736530 0.478650 0.191680 -0.380719
O18   O     O_3   0.263470 0.521350 0.808320 -0.380149
O19   O     O_3   0.763470 0.978650 0.308320 -0.385255
O20   O     O_3   0.236530 0.021350 0.691680 -0.380225
V1    V     V_3+5 0.752500 0.206170 0.260820 1.488723
V2    V     V_3+5 0.247500 0.793830 0.739180 1.492830
V3    V     V_3+5 0.747500 0.706170 0.239180 1.483961
V4    V     V_3+5 0.252500 0.293830 0.760820 1.495274
C9    C     C_R   0.825265 0.996114 0.047721 -0.049617
C10   C     C_R   0.174367 0.002563 0.951925 -0.057980
C11   C     C_R   0.674322 0.496762 0.451951 -0.057562
C12   C     C_R   0.325656 0.503973 0.547922 -0.056905
C13   C     C_R   0.820981 0.042924 0.885538 -0.072312
C14   C     C_R   0.178579 0.988379 0.115634 -0.047718
C15   C     C_R   0.678205 0.549772 0.613575 -0.079028
C16   C     C_R   0.320889 0.488457 0.383814 -0.049913
C17   C     C_R   0.790715 0.024856 0.953609 -0.066384
C18   C     C_R   0.208935 0.997636 0.047284 -0.079300
C19   C     C_R   0.708726 0.528595 0.545926 -0.083434
C20   C     C_R   0.290803 0.497650 0.452590 -0.079699
C21   C     C_R   0.888140 0.984164 0.073414 -0.248402
C22   C     C_R   0.111320 0.003494 0.925287 -0.246846
C23   C     C_R   0.611474 0.481543 0.426327 -0.245858
C24   C     C_R   0.388695 0.510991 0.573810 -0.252220
C25   C     C_R   0.919691 0.995416 0.007300 0.078283
C26   C     C_R   0.079536 0.994391 0.991163 0.069320
C27   C     C_R   0.579656 0.501356 0.491697 0.078045
C28   C     C_R   0.419869 0.506988 0.507120 0.067905
C29   C     C_R   0.885282 0.023261 0.912146 0.103434
C30   C     C_R   0.113974 0.979625 0.087124 0.110273
C31   C     C_R   0.613642 0.541890 0.585726 0.098429
C32   C     C_R   0.385456 0.482244 0.411951 0.112874
C33   C     C_R   0.984537 0.981767 0.033447 0.071908
C34   C     C_R   0.014500 0.998048 0.964222 0.071485
C35   C     C_R   0.514828 0.488169 0.465457 0.069893
C36   C     C_R   0.484537 0.521109 0.533011 0.070747
C37   C     C_R   0.978358 0.016921 0.870243 -0.199457
C38   C     C_R   0.020451 0.950181 0.126541 -0.206360
C39   C     C_R   0.519604 0.573263 0.623708 -0.200475
C40   C     C_R   0.479166 0.442166 0.373927 -0.209029
C41   C     C_R   0.915783 0.026423 0.845094 -0.148101
C42   C     C_R   0.083104 0.949101 0.152355 -0.139177
C43   C     C_R   0.582240 0.582084 0.649350 -0.151717
C44   C     C_R   0.416399 0.442935 0.347666 -0.134072
H1    H     H_    0.891803 0.035191 0.771277 0.172746
H2    H     H_    0.106816 0.919932 0.224796 0.176887
H3    H     H_    0.605523 0.627290 0.719685 0.169659
H4    H     H_    0.392607 0.404882 0.276373 0.174265
H5    H     H_    0.088583 0.009929 0.851333 0.100856
H6    H     H_    0.911000 0.968252 0.146947 0.100554
H7    H     H_    0.412436 0.513463 0.647732 0.104354
H8    H     H_    0.588633 0.460444 0.353104 0.101542
H9    H     H_    0.996606 0.025410 0.812935 0.129102
H10   H     H_    0.001910 0.924023 0.182456 0.129842
H11   H     H_    0.499777 0.614654 0.676441 0.130453
H12   H     H_    0.498086 0.403904 0.319833 0.129951
C45   C     C_1   0.416820 0.007077 0.918549 -0.147440
C46   C     C_1   0.583179 0.992956 0.081458 -0.147551
C47   C     C_1   0.083175 0.506985 0.581472 -0.148215
C48   C     C_1   0.916800 0.493065 0.418614 -0.151778
C49   C     C_1   0.469164 0.002457 0.969893 0.015665
C50   C     C_1   0.530835 0.997579 0.030115 0.015562
C51   C     C_1   0.030825 0.502418 0.530148 0.015225
C52   C     C_1   0.969147 0.497638 0.469946 0.014813
C53   C     C_2   0.276456 0.008461 0.076480 0.382369
H13   H     H_    0.301391 0.070882 0.142579 0.051033
O21   O     O_2   0.305171 0.944838 0.028247 -0.533454
C54   C     C_2   0.723406 0.043106 0.926163 0.329642
H14   H     H_    0.699263 0.125993 0.866492 0.102546
O22   O     O_2   0.693888 0.962618 0.968387 -0.539587
C55   C     C_2   0.223282 0.506017 0.423913 0.382330
H15   H     H_    0.197958 0.568689 0.358088 0.049055
O23   O     O_2   0.195018 0.440174 0.472301 -0.532742
C56   C     C_2   0.776310 0.536343 0.574165 0.407449
H16   H     H_    0.801843 0.616766 0.633771 0.041293
O24   O     O_2   0.804622 0.449250 0.532393 -0.533892
C57   C     C_2   0.784490 0.081829 0.787026 0.373767
H17   H     H_    0.742542 0.008270 0.755131 0.026825
O25   O     O_2   0.799299 0.202707 0.742450 -0.513532
C58   C     C_2   0.215284 0.986303 0.216346 0.272048
H18   H     H_    0.256845 0.907548 0.239440 0.111373
O26   O     O_2   0.201013 0.079057 0.273610 -0.537206
C59   C     C_2   0.714326 0.573395 0.713601 0.409546
H19   H     H_    0.751012 0.671828 0.733905 0.011571
O27   O     O_2   0.704416 0.478457 0.774017 -0.522636
C60   C     C_2   0.284145 0.485392 0.283118 0.274521
H20   H     H_    0.241774 0.410571 0.260448 0.113693
O28   O     O_2   0.299447 0.573187 0.225172 -0.535768

loop_
_geom_bond_atom_site_label_1
_geom_bond_atom_site_label_2
_ccdc_geom_bond_type
O17   V3    S    
C47   C51   T    
C51   C52   S    
O1    C5    A    
C57   H17   S    
O19   V1    S    
C9    C21   A    
O3    C7    A    
C55   H15   S    
C10   C18   A    
C19   C56   S    
O15   V3    S    
C58   O26   D    
C25   C33   A    
C33   C38   A    
C39   H11   S    
C49   C50   S    
C15   C59   S    
C35   C40   A    
C26   C30   A    
C36   C39   A    
C40   C44   A    
O9    V1    S    
C23   H8    S    
C14   C18   A    
O4    C8    A    
C25   C29   A    
C2    C47   S    
O1    V3    S    
O13   V1    S    
O2    V4    S    
O3    V1    S    
C60   H20   S    
C14   C58   S    
C28   C36   A    
C1    O15   A    
C15   C31   A    
C37   H9    S    
C7    C9    S    
O2    C6    A    
C59   H19   S    
C10   C22   A    
C53   O21   D    
C11   C19   A    
C16   C20   A    
C43   H3    S    
C16   C60   S    
C13   C29   A    
C34   C37   A    
O11   C7    A    
C11   C23   A    
C35   C36   A    
O12   C8    A    
C40   H12   S    
C24   H7    S    
O10   V2    S    
C58   H18   S    
C45   C49   T    
O5    V1    S    
C3    C46   S    
C39   C43   A    
O7    V3    S    
C38   C42   A    
C26   C34   A    
C2    O16   A    
O18   V4    S    
C23   C27   A    
C16   C32   A    
C46   C50   T    
C8    C10   S    
C44   H4    S    
O8    V4    S    
O7    C3    A    
O5    C1    A    
C31   C43   A    
C14   C30   A    
C21   C25   A    
O8    C4    A    
C54   O22   D    
O9    C5    A    
O14   V2    S    
O6    V2    S    
C56   O24   D    
C12   C20   A    
C27   C35   A    
C29   C41   A    
O16   V4    S    
C3    O13   A    
C38   H10   S    
C48   C52   T    
O6    C2    A    
C15   C19   A    
C55   O23   D    
O11   V3    S    
C30   C42   A    
O12   V4    S    
C6    C12   S    
C22   C26   A    
C18   C53   S    
C9    C17   A    
O10   C6    A    
O20   V2    S    
C5    C11   S    
C20   C55   S    
C32   C44   A    
C13   C57   S    
C33   C34   A    
C59   O27   D    
C41   H1    S    
C54   H14   S    
C4    C45   S    
C12   C24   A    
C27   C31   A    
C13   C17   A    
C60   O28   D    
C1    C48   S    
C37   C41   A    
C24   C28   A    
C17   C54   S    
C42   H2    S    
C57   O25   D    
C56   H16   S    
C4    O14   A    
C21   H6    S    
C53   H13   S    
C22   H5    S    
O4    V2    S    
C28   C32   A    
