data_mof_unit_22881.cif
_audit_creation_date              2012-10-26T19:48:09-0400
_audit_creation_method            fapswitch 2.2
_symmetry_space_group_name_H-M    P1
_symmetry_Int_Tables_number       1
_space_group_crystal_system       triclinic
_cell_length_a                    11.130583
_cell_length_b                    9.636884
_cell_length_c                    10.862899
_cell_angle_alpha                 88.257297
_cell_angle_beta                  84.234456
_cell_angle_gamma                 89.797939
_cell_volume                      1158.76875442

loop_
_atom_site_label
_atom_site_type_symbol
_atom_type_description
_atom_site_fract_x
_atom_site_fract_y
_atom_site_fract_z
_atom_type_partial_charge
C1    C     C_R   0.260569 0.500111 0.498306 0.591104
C2    C     C_3   0.941913 0.580994 0.379571 -0.071617
C3    C     C_3   0.620303 0.086080 0.446503 0.223174
C4    C     C_3   0.615069 0.918586 0.434727 0.232846
C5    C     C_3   0.478448 0.078747 0.629158 -0.169541
C6    C     C_3   0.490533 0.914315 0.629772 -0.171864
C7    C     C_3   0.405154 0.084849 0.432375 -0.106063
C8    C     C_3   0.396098 0.921231 0.447341 -0.087280
C9    C     C_R   0.502791 0.500958 0.258267 0.697888
C10   C     C_R   0.740025 0.499690 0.501942 0.588541
C11   C     C_R   0.510921 0.498357 0.737767 0.586067
C12   C     C_3   0.510661 0.499905 0.117985 0.018011
C13   C     C_3   0.475525 0.621338 0.032006 -0.071517
C14   C     C_3   0.446631 0.392217 0.043379 -0.080114
C15   C     C_3   0.408691 0.514682 0.958857 -0.194942
C16   C     C_3   0.524924 0.495315 0.872020 -0.009248
C17   C     C_3   0.591710 0.597081 0.945935 0.229149
C18   C     C_3   0.563505 0.376384 0.954932 0.223393
C19   C     C_3   0.627596 0.478232 0.032126 -0.054224
C20   C     C_1   0.912550 0.730659 0.395734 0.316920
C21   C     C_1   0.895424 0.545768 0.263872 0.395035
C22   C     C_3   0.062074 0.586109 0.601583 -0.291144
C23   C     C_3   0.069378 0.350420 0.517690 -0.246692
C24   C     C_3   0.922211 0.569526 0.614412 -0.245106
C25   C     C_3   0.931185 0.349424 0.505113 -0.238776
C26   C     C_3   0.085055 0.556407 0.362432 0.385678
C27   C     C_3   0.123462 0.500234 0.492869 0.007005
C28   C     C_3   0.879841 0.499522 0.498270 -0.079392
Cu1   Cu    Cu3+1 0.499860 0.642410 0.500060 1.075960
Cu2   Cu    Cu3+1 0.499860 0.357590 0.500060 1.059892
H1    H     H_    0.317550 0.529993 0.927495 0.179959
H2    H     H_    0.387498 0.108609 0.672451 0.135563
H3    H     H_    0.412052 0.867616 0.687805 0.148863
H4    H     H_    0.440409 0.727305 0.043308 0.178164
H5    H     H_    0.388779 0.303295 0.078294 0.206323
H6    H     H_    0.716884 0.450844 0.057284 0.240364
H7    H     H_    0.086077 0.697405 0.588849 0.188804
H8    H     H_    0.115110 0.272614 0.456041 0.211349
H9    H     H_    0.096188 0.551096 0.690286 0.143980
H10   H     H_    0.084762 0.313843 0.613085 0.127328
H11   H     H_    0.892079 0.506817 0.699579 0.213513
H12   H     H_    0.687733 0.105604 0.513213 0.102098
H13   H     H_    0.885214 0.291274 0.586400 0.174387
H14   H     H_    0.882428 0.673836 0.626309 0.207886
H15   H     H_    0.910808 0.291992 0.423559 0.246148
H16   H     H_    0.662593 0.109244 0.121304 0.439483
H17   H     H_    0.551888 0.913188 0.120788 0.402821
H18   H     H_    0.777531 0.912217 0.925823 0.390222
H19   H     H_    0.835388 0.160819 0.911065 0.369127
H20   H     H_    0.315651 0.780562 0.194496 0.362651
H21   H     H_    0.079734 0.233217 0.175161 0.394042
H22   H     H_    0.689274 0.879551 0.486403 0.120029
H23   H     H_    0.543625 0.119744 0.687874 0.232548
H24   H     H_    0.570858 0.886583 0.676265 0.208228
H25   H     H_    0.315853 0.129280 0.464880 0.142451
H26   H     H_    0.312518 0.896333 0.508539 0.162835
H27   H     H_    0.421176 0.115441 0.332971 0.211567
H28   H     H_    0.383489 0.876251 0.358909 0.235320
N1    N     N_3   0.500250 0.143650 0.502780 -0.304552
N2    N     N_3   0.500250 0.856350 0.502780 -0.304887
N3    N     N_1   0.895918 0.848048 0.409152 -0.180732
N4    N     N_1   0.866724 0.521135 0.168058 -0.113746
O1    O     O_R   0.317570 0.620260 0.500070 -0.486337
O2    O     O_2   0.817846 0.118824 0.281730 -0.220728
O3    O     O_3   0.605777 0.139943 0.189615 -0.519987
O4    O     O_2   0.756356 0.913145 0.195731 -0.188476
O5    O     O_2   0.695067 0.703888 0.283381 -0.274105
O6    O     O_3   0.530694 0.857623 0.197349 -0.565495
O7    O     O_2   0.830299 0.646807 0.908654 -0.268489
O8    O     O_2   0.707114 0.732309 0.749470 -0.344801
O9    O     O_3   0.699887 0.865194 0.952449 -0.456669
O10   O     O_2   0.581228 0.104234 0.908942 -0.306643
O11   O     O_2   0.693685 0.264248 0.758706 -0.333165
O12   O     O_R   0.317570 0.379740 0.500070 -0.526359
O13   O     O_3   0.780992 0.220365 0.964564 -0.505578
O14   O     O_2   0.090073 0.775014 0.197297 -0.230320
O15   O     O_2   0.152934 0.825881 0.399248 -0.369231
O16   O     O_3   0.297914 0.693584 0.243268 -0.484215
O17   O     O_2   0.143958 0.500446 0.115600 -0.233565
O18   O     O_2   0.256579 0.373094 0.263251 -0.329112
O19   O     O_3   0.040375 0.294920 0.238538 -0.524187
O20   O     O_R   0.499850 0.620240 0.316900 -0.383429
O21   O     O_R   0.499850 0.379760 0.316900 -0.431524
O22   O     O_R   0.682190 0.620260 0.500030 -0.480831
O23   O     O_R   0.682190 0.379740 0.500030 -0.457638
O24   O     O_R   0.499910 0.620280 0.683200 -0.510609
O25   O     O_R   0.499910 0.379720 0.683200 -0.493315
O26   O     O_2   0.711023 0.326171 0.292562 -0.269844
S1    S     S_3+6 0.691285 0.173612 0.303313 0.074218
S2    S     S_3+6 0.652965 0.849725 0.275997 0.086945
S3    S     S_3+6 0.711049 0.711149 0.885702 0.019218
S4    S     S_3+6 0.653918 0.235588 0.893153 -0.023814
S5    S     S_3+6 0.156818 0.718611 0.301960 0.037039
S6    S     S_3+6 0.134931 0.430045 0.241634 0.015768

loop_
_geom_bond_atom_site_label_1
_geom_bond_atom_site_label_2
_ccdc_geom_bond_type
C26   S6    S    
Cu1   O1    S    
C10   O23   A    
C14   C18   S    
O8    S3    D    
C17   S3    S    
C7    H25   S    
C25   H13   S    
C7    C8    S    
C3    H12   S    
C25   C28   S    
O3    S1    S    
C26   C27   S    
C4    H22   S    
C1    O12   A    
C5    H23   S    
C19   H6    S    
C5    C6    S    
Cu2   O12   S    
C11   O24   A    
C23   H10   S    
H20   O16   S    
Cu2   O21   S    
C18   C19   S    
C10   O22   A    
C20   N3    T    
C8    H28   S    
C11   O25   A    
C16   C17   S    
O6    S2    S    
H19   O13   S    
C23   C27   S    
H21   O19   S    
C9    O20   A    
C5    H2    S    
C26   S5    S    
O17   S6    D    
C24   H11   S    
C8    H26   S    
O2    S1    D    
C6    H24   S    
C1    O1    A    
C7    N1    S    
C4    S2    S    
C5    N1    S    
C2    C20   S    
C6    N2    S    
Cu1   O22   S    
O4    S2    D    
C14   H5    S    
C22   H7    S    
O5    S2    D    
Cu1   Cu2   S    
O14   S5    D    
C11   C16   S    
Cu1   N2    S    
Cu2   N1    S    
C4    N2    S    
C2    C21   S    
Cu1   O24   S    
C2    C26   S    
C12   C13   S    
Cu2   O23   S    
C21   N4    T    
O13   S4    S    
H16   O3    S    
C12   C14   S    
C22   C27   S    
C13   C15   S    
C24   H14   S    
C22   C24   S    
H18   O9    S    
O18   S6    D    
C3    C4    S    
C25   H15   S    
H17   O6    S    
C10   C28   S    
C24   C28   S    
O11   S4    D    
C9    O21   A    
C15   H1    S    
C23   H8    S    
C6    H3    S    
C13   C17   S    
C3    S1    S    
C18   S4    S    
Cu1   O20   S    
C8    N2    S    
O19   S6    S    
O10   S4    D    
C22   H9    S    
C12   C19   S    
O15   S5    D    
C17   C19   S    
C23   C25   S    
C9    C12   S    
C13   H4    S    
O9    S3    S    
O26   S1    D    
C16   C18   S    
C1    C27   S    
C14   C15   S    
C2    C28   S    
O16   S5    S    
Cu2   O25   S    
O7    S3    D    
C7    H27   S    
C15   C16   S    
C3    N1    S    
