data_mof_unit_17528.cif
_audit_creation_date              2012-12-10T17:55:27-0500
_audit_creation_method            fapswitch 2.2
_symmetry_space_group_name_H-M    P1
_symmetry_Int_Tables_number       1
_space_group_crystal_system       triclinic
_cell_length_a                    10.792121
_cell_length_b                    9.526905
_cell_length_c                    10.927959
_cell_angle_alpha                 89.943338
_cell_angle_beta                  90.253278
_cell_angle_gamma                 89.952673
_cell_volume                      1123.55177978

loop_
_atom_site_label
_atom_site_type_symbol
_atom_type_description
_atom_site_fract_x
_atom_site_fract_y
_atom_site_fract_z
_atom_type_partial_charge
C1    C     C_R   0.262344 0.499938 0.503262 0.842892
C2    C     C_R   0.737730 0.499883 0.503554 0.851697
C3    C     C_R   0.505947 0.500077 0.265532 0.705297
C4    C     C_R   0.493657 0.499860 0.734367 0.750977
C5    C     C_2   0.507640 0.391081 0.933507 -0.198049
C6    C     C_2   0.494339 0.390711 0.066368 -0.246203
C7    C     C_2   0.469870 0.500219 0.865022 0.416369
C8    C     C_2   0.528242 0.501473 0.134551 0.414093
C9    C     C_R   0.065393 0.406921 0.587256 0.324762
C10   C     C_R   0.935907 0.407176 0.587562 0.340931
C11   C     C_R   0.871608 0.499935 0.509340 -0.159095
C12   C     C_R   0.128635 0.499967 0.509157 -0.168733
C13   C     C_R   0.935699 0.595515 0.436148 -0.234933
C14   C     C_R   0.063692 0.595542 0.436063 -0.217689
C15   C     C_R   0.426718 0.074557 0.420268 0.012616
C16   C     C_R   0.572851 0.074174 0.580043 0.019346
C17   C     C_R   0.426647 0.925776 0.420330 0.003372
C18   C     C_R   0.573088 0.925443 0.579870 0.004424
Cu1   Cu    Cu3+1 0.500000 0.640660 0.500000 0.977807
Cu2   Cu    Cu3+1 0.500000 0.359340 0.500000 0.998103
H1    H     H_    0.547017 0.298005 0.891372 0.152123
H2    H     H_    0.459313 0.295567 0.108768 0.138439
H3    H     H_    0.886577 0.668451 0.377234 0.163886
H4    H     H_    0.112206 0.668279 0.376902 0.167842
H5    H     H_    0.367933 0.130690 0.356418 0.124771
H6    H     H_    0.630846 0.129905 0.644511 0.175562
H7    H     H_    0.367769 0.869894 0.356562 0.129510
H8    H     H_    0.631737 0.869333 0.643856 0.145285
N1    N     N_R   0.500000 0.852070 0.500000 -0.172456
N2    N     N_R   0.500000 0.147940 0.500000 -0.164313
O1    O     O_R   0.319640 0.618740 0.499990 -0.592931
O2    O     O_R   0.680360 0.618740 0.500010 -0.592461
O3    O     O_R   0.319620 0.381170 0.499990 -0.537679
O4    O     O_R   0.680380 0.381170 0.500010 -0.545789
O5    O     O_R   0.500000 0.618750 0.321940 -0.558209
O6    O     O_R   0.500000 0.618750 0.678060 -0.561245
O7    O     O_R   0.499970 0.381180 0.321940 -0.618126
O8    O     O_R   0.500030 0.381180 0.678060 -0.583824
O9    O     O_3   0.408820 0.613633 0.916986 -0.529190
C19   C     C_3   0.282762 0.608614 0.882663 -0.249390
H9    H     H_    0.239424 0.507298 0.910005 0.179750
H10   H     H_    0.270535 0.626650 0.782741 0.166827
H11   H     H_    0.232844 0.693745 0.931078 0.192304
O10   O     O_3   0.583735 0.618121 0.081962 -0.515248
C20   C     C_3   0.711110 0.616761 0.111224 -0.280471
H12   H     H_    0.756273 0.518022 0.079931 0.161262
H13   H     H_    0.726627 0.632060 0.210966 0.141829
H14   H     H_    0.756477 0.705232 0.062968 0.199754
Cl1   Cl    Cl    0.146937 0.295880 0.689807 -0.576609
Cl2   Cl    Cl    0.855893 0.297956 0.691707 -0.599190

loop_
_geom_bond_atom_site_label_1
_geom_bond_atom_site_label_2
_ccdc_geom_bond_type
C4    O6    A    
C18   H8    S    
C15   C17   A    
Cu2   O8    S    
C9    C10   A    
Cu1   Cu2   S    
C3    O5    A    
Cu2   O4    S    
Cu1   O1    S    
C2    O4    A    
C6    H2    S    
C19   H10   S    
C1    O3    A    
C18   N1    A    
Cu2   N2    S    
C13   C14   A    
Cu2   O7    S    
C11   C13   A    
C13   H3    S    
C1    C12   S    
C4    C7    S    
C2    C11   S    
C16   C18   A    
C19   H9    S    
C12   C14   A    
Cu1   O5    S    
Cu1   O6    S    
C20   H13   S    
C16   H6    S    
C5    C6    S    
C9    C12   A    
Cu1   N1    S    
C15   H5    S    
C10   C11   A    
Cu2   O3    S    
C16   N2    A    
C10   Cl2   S    
C17   N1    A    
C1    O1    A    
C9    Cl1   S    
O10   C20   S    
C3    O7    A    
C15   N2    A    
C2    O2    A    
C3    C8    S    
C20   H14   S    
C14   H4    S    
O9    C19   S    
C5    C7    D    
C7    O9    S    
C6    C8    D    
C20   H12   S    
Cu1   O2    S    
C19   H11   S    
C8    O10   S    
C4    O8    A    
C5    H1    S    
C17   H7    S    
