data_mof_unit_10989.cif
_audit_creation_date              2012-12-10T18:04:52-0500
_audit_creation_method            fapswitch 2.2
_symmetry_space_group_name_H-M    P1
_symmetry_Int_Tables_number       1
_space_group_crystal_system       triclinic
_cell_length_a                    10.830049
_cell_length_b                    9.516336
_cell_length_c                    17.711968
_cell_angle_alpha                 89.990741
_cell_angle_beta                  90.171014
_cell_angle_gamma                 89.939634
_cell_volume                      1825.42849919

loop_
_atom_site_label
_atom_site_type_symbol
_atom_type_description
_atom_site_fract_x
_atom_site_fract_y
_atom_site_fract_z
_atom_type_partial_charge
C1    C     C_R   0.262052 0.500041 0.499936 0.846745
C2    C     C_R   0.737948 0.499959 0.500064 0.846745
C3    C     C_1   0.500006 0.500004 0.966144 0.011372
C4    C     C_1   0.499968 0.500012 0.033858 0.011363
C5    C     C_R   0.064003 0.372318 0.500001 -0.099310
C6    C     C_R   0.935997 0.627682 0.499999 -0.099313
C7    C     C_R   0.936278 0.372271 0.500092 -0.160931
C8    C     C_R   0.063722 0.627729 0.499908 -0.160931
C9    C     C_R   0.499929 0.500011 0.355833 0.947704
C10   C     C_R   0.500070 0.499989 0.644167 0.947665
C11   C     C_R   0.871780 0.499950 0.500070 -0.002443
C12   C     C_R   0.128220 0.500050 0.499930 -0.002444
C13   C     C_R   0.596663 0.567919 0.845871 0.102936
C14   C     C_R   0.403289 0.432158 0.154131 0.102930
C15   C     C_R   0.596567 0.567920 0.154479 0.098009
C16   C     C_R   0.403440 0.432036 0.845521 0.098015
C17   C     C_R   0.596573 0.566963 0.766307 0.311690
C18   C     C_R   0.403389 0.433102 0.233696 0.311666
C19   C     C_R   0.596437 0.566997 0.234042 0.316162
C20   C     C_R   0.403579 0.432951 0.765958 0.316171
C21   C     C_R   0.500079 0.499962 0.726855 -0.262419
C22   C     C_R   0.499915 0.500040 0.273146 -0.262395
C23   C     C_R   0.420997 0.074532 0.454431 0.006759
C24   C     C_R   0.579003 0.925468 0.545569 0.006768
C25   C     C_R   0.578991 0.074315 0.545576 0.001476
C26   C     C_R   0.421009 0.925685 0.454424 0.001452
C27   C     C_R   0.500040 0.499986 0.884850 -0.010738
C28   C     C_R   0.499938 0.500029 0.115151 -0.010712
Cu1   Cu    Cu3+1 0.500000 0.640660 0.500000 1.017325
Cu2   Cu    Cu3+1 0.500000 0.359340 0.500000 1.017330
H1    H     H_    0.357713 0.130722 0.417934 0.164275
H2    H     H_    0.642287 0.869278 0.582066 0.164302
H3    H     H_    0.642247 0.130344 0.582093 0.132688
H4    H     H_    0.357752 0.869656 0.417907 0.132691
H5    H     H_    0.112164 0.272489 0.499997 0.162531
H6    H     H_    0.887836 0.727510 0.500002 0.162528
H7    H     H_    0.888337 0.272423 0.500172 0.155526
H8    H     H_    0.111663 0.727577 0.499827 0.155528
N1    N     N_R   0.500000 0.852070 0.500000 -0.169104
N2    N     N_R   0.500000 0.147930 0.500000 -0.169099
O1    O     O_R   0.319640 0.618740 0.499990 -0.605825
O2    O     O_R   0.680360 0.381260 0.500010 -0.605826
O3    O     O_R   0.680360 0.618740 0.500010 -0.569134
O4    O     O_R   0.319640 0.381260 0.499990 -0.569129
O5    O     O_R   0.500000 0.618830 0.391250 -0.556010
O6    O     O_R   0.500000 0.381170 0.608750 -0.555992
O7    O     O_R   0.500000 0.618830 0.608750 -0.557347
O8    O     O_R   0.500000 0.381170 0.391250 -0.557360
C29   C     C_3   0.698365 0.639784 0.890396 -0.731028
H9    H     H_    0.768929 0.691465 0.854989 0.281492
H10   H     H_    0.657582 0.722164 0.927067 0.216021
H11   H     H_    0.746568 0.561313 0.926350 0.220042
C30   C     C_3   0.301547 0.360378 0.109607 -0.731063
H12   H     H_    0.230955 0.308760 0.145016 0.281506
H13   H     H_    0.253395 0.438883 0.073652 0.220039
H14   H     H_    0.342276 0.277967 0.072937 0.216032
C31   C     C_3   0.698326 0.639695 0.110321 -0.730638
H15   H     H_    0.768918 0.691314 0.145981 0.280938
H16   H     H_    0.746488 0.561181 0.074563 0.220248
H17   H     H_    0.657607 0.722102 0.073480 0.216334
C32   C     C_3   0.301699 0.360216 0.889679 -0.730610
H18   H     H_    0.231105 0.308594 0.854019 0.280931
H19   H     H_    0.342441 0.277802 0.926509 0.216343
H20   H     H_    0.253526 0.438707 0.925447 0.220229
Cl1   Cl    Cl    0.719390 0.644139 0.714842 -0.644174
Cl2   Cl    Cl    0.280552 0.355983 0.285164 -0.644159
Cl3   Cl    Cl    0.719224 0.644204 0.285954 -0.611190
Cl4   Cl    Cl    0.280829 0.355665 0.714045 -0.611183

loop_
_geom_bond_atom_site_label_1
_geom_bond_atom_site_label_2
_ccdc_geom_bond_type
C10   O6    A    
C32   H20   S    
C15   C19   A    
C17   C21   A    
C24   H2    S    
C9    O5    A    
Cu1   Cu2   S    
C18   Cl2   S    
C14   C18   A    
C1    O4    A    
C17   Cl1   S    
C13   C17   A    
C2    O3    A    
C8    C12   A    
C29   H11   S    
Cu1   O1    S    
Cu1   N1    S    
C16   C27   A    
C3    C27   S    
C7    H7    S    
Cu2   N2    S    
C26   H4    S    
C25   N2    A    
C30   H12   S    
Cu1   O3    S    
C7    C11   A    
C15   C31   S    
Cu2   O4    S    
C15   C28   A    
C1    C12   S    
C8    H8    S    
C2    O2    A    
C13   C29   S    
C2    C11   S    
C5    H5    S    
C1    O1    A    
C16   C20   A    
C4    C28   S    
C23   C26   A    
Cu1   O7    S    
C31   H15   S    
C30   H13   S    
C10   C21   S    
C32   H18   S    
C26   N1    A    
Cu2   O6    S    
C9    C22   S    
C31   H16   S    
Cu1   O5    S    
C25   H3    S    
C16   C32   S    
C23   N2    A    
C6    C11   A    
C19   C22   A    
C24   C25   A    
C9    O8    A    
C5    C7    A    
C29   H9    S    
C30   H14   S    
Cu2   O8    S    
C10   O7    A    
C32   H19   S    
Cu2   O2    S    
C31   H17   S    
C6    C8    A    
C14   C28   A    
C20   C21   A    
C18   C22   A    
C14   C30   S    
C24   N1    A    
C20   Cl4   S    
C13   C27   A    
C3    C4    T    
C6    H6    S    
C19   Cl3   S    
C29   H10   S    
C23   H1    S    
C5    C12   A    
