data_mof_unit_27354.cif
_audit_creation_date              2013-03-05T16:10:47-0500
_audit_creation_method            fapswitch 2.2
_symmetry_space_group_name_H-M    P1
_symmetry_Int_Tables_number       1
_space_group_crystal_system       triclinic
_cell_length_a                    22.412191
_cell_length_b                    7.096507
_cell_length_c                    19.399456
_cell_angle_alpha                 89.999972
_cell_angle_beta                  99.567516
_cell_angle_gamma                 89.999974
_cell_volume                      3042.53263589

loop_
_atom_site_label
_atom_site_type_symbol
_atom_site_description
_atom_site_fract_x
_atom_site_fract_y
_atom_site_fract_z
_atom_type_partial_charge
O1    O     O_R   0.443980 0.494320 0.557430 -0.585636
O2    O     O_R   0.556020 0.994320 0.442570 -0.585636
O3    O     O_R   0.441210 0.822520 0.414610 -0.589096
O4    O     O_R   0.558790 0.322520 0.585390 -0.589096
C1    C     C_R   0.426672 0.655388 0.388793 0.924179
C2    C     C_R   0.573328 0.155388 0.611206 0.924178
O5    O     O_R   0.436920 0.823940 0.555180 -0.571273
O6    O     O_R   0.563080 0.323940 0.444820 -0.571273
O7    O     O_R   0.551700 0.995760 0.584140 -0.588446
O8    O     O_R   0.448300 0.495760 0.415860 -0.588446
C3    C     C_R   0.421613 0.655445 0.574855 0.949497
C4    C     C_R   0.578387 0.155445 0.425144 0.949497
O9    O     O_3   0.537660 0.661290 0.509340 -0.271622
O10   O     O_3   0.462340 0.161290 0.490660 -0.271622
V1    V     V_3+5 0.493010 0.935560 0.498270 1.201617
V2    V     V_3+5 0.506990 0.435560 0.501730 1.201616
H1    H     H_    0.681807 0.848215 0.261539 0.172427
H2    H     H_    0.318192 0.348215 0.738460 0.172426
C5    C     C_R   0.754639 0.949738 0.212368 -0.120180
C6    C     C_R   0.245361 0.449738 0.787632 -0.120179
H3    H     H_    0.757446 0.819678 0.183833 0.128951
H4    H     H_    0.242554 0.319677 0.816167 0.128951
C7    C     C_R   0.793832 0.099346 0.204983 0.113733
C8    C     C_R   0.206168 0.599346 0.795017 0.113733
C9    C     C_R   0.789296 0.266004 0.242688 -0.263255
C10   C     C_R   0.210704 0.766004 0.757313 -0.263256
H5    H     H_    0.819393 0.382030 0.236517 0.178418
H6    H     H_    0.180607 0.882031 0.763483 0.178418
C11   C     C_R   0.745850 0.285778 0.287474 0.346776
C12   C     C_R   0.254149 0.785779 0.712526 0.346776
C13   C     C_R   0.706466 0.132587 0.294764 -0.029705
C14   C     C_R   0.293534 0.632587 0.705236 -0.029706
C15   C     C_R   0.711465 0.966318 0.256748 -0.136401
C16   C     C_R   0.288535 0.466318 0.743252 -0.136401
C17   C     C_1   0.838608 0.083015 0.158670 0.035566
C18   C     C_1   0.161391 0.583015 0.841329 0.035566
C19   C     C_1   0.661574 0.140032 0.341404 0.141938
C20   C     C_1   0.338426 0.640032 0.658596 0.141938
C21   C     C_1   0.623876 0.146719 0.379849 -0.226050
C22   C     C_1   0.376124 0.646719 0.620151 -0.226050
C23   C     C_1   0.876278 0.071871 0.120325 -0.274841
C24   C     C_1   0.123722 0.571871 0.879675 -0.274841
C25   C     C_R   0.633138 0.173115 0.804120 -0.175483
C26   C     C_R   0.366861 0.673125 0.195880 -0.175485
H7    H     H_    0.545861 0.196769 0.739986 0.113420
H8    H     H_    0.454138 0.696779 0.260014 0.113419
H9    H     H_    0.715342 0.166627 0.919126 0.133125
H10   H     H_    0.284657 0.666642 0.080875 0.133125
H11   H     H_    0.614698 0.193640 0.851805 0.117439
H12   H     H_    0.385301 0.693655 0.148196 0.117439
C27   C     C_R   0.615798 0.148047 0.678037 -0.100470
C28   C     C_R   0.384202 0.648048 0.321963 -0.100470
C29   C     C_R   0.910528 0.044771 0.760478 -0.269574
C30   C     C_R   0.089473 0.544764 0.239522 -0.269574
C31   C     C_R   0.874378 0.044841 0.694305 0.417481
C32   C     C_R   0.125622 0.544831 0.305695 0.417482
C33   C     C_R   0.811618 0.070126 0.688796 -0.291407
C34   C     C_R   0.188382 0.570118 0.311204 -0.291407
C35   C     C_R   0.783867 0.095766 0.748536 0.044263
C36   C     C_R   0.216133 0.595765 0.251464 0.044263
C37   C     C_R   0.821850 0.096555 0.815632 0.111538
C38   C     C_R   0.178150 0.596557 0.184368 0.111539
C39   C     C_R   0.719646 0.120494 0.743847 0.119088
C40   C     C_R   0.280354 0.620495 0.256153 0.119088
C41   C     C_R   0.695535 0.146674 0.806496 0.179060
C42   C     C_R   0.304465 0.646681 0.193504 0.179060
C43   C     C_R   0.733680 0.146922 0.871321 -0.235584
C44   C     C_R   0.266319 0.646932 0.128680 -0.235584
C45   C     C_R   0.795695 0.122029 0.875934 -0.187400
C46   C     C_R   0.204304 0.622036 0.124066 -0.187401
C47   C     C_R   0.678202 0.120797 0.679516 -0.226586
C48   C     C_R   0.321798 0.620795 0.320484 -0.226586
C49   C     C_R   0.593769 0.174610 0.740511 -0.163748
C50   C     C_R   0.406230 0.674618 0.259489 -0.163746
C51   C     C_R   0.885344 0.070587 0.821006 -0.218026
C52   C     C_R   0.114655 0.570586 0.178994 -0.218026
H13   H     H_    0.692669 0.101947 0.629722 0.117590
H14   H     H_    0.307331 0.601940 0.370278 0.117590
H15   H     H_    0.958953 0.024173 0.765213 0.169251
H16   H     H_    0.041048 0.524163 0.234787 0.169251
H17   H     H_    0.785512 0.069094 0.637027 0.175159
H18   H     H_    0.214488 0.569084 0.362973 0.175159
H19   H     H_    0.823115 0.123181 0.927455 0.105356
H20   H     H_    0.176885 0.623191 0.072545 0.105358
O11   O     O_R   0.051730 0.724670 0.084120 -0.583029
O12   O     O_R   0.948270 0.224670 0.915880 -0.583028
O13   O     O_R   0.063080 0.393540 0.944820 -0.587207
O14   O     O_R   0.936920 0.893540 0.055180 -0.587207
C53   C     C_R   0.078191 0.562121 0.924899 0.965048
C54   C     C_R   0.921809 0.062121 0.075101 0.965047
O15   O     O_R   0.058800 0.395030 0.085390 -0.586158
O16   O     O_R   0.941200 0.895030 0.914610 -0.586159
O17   O     O_R   0.943980 0.223310 0.057440 -0.586283
O18   O     O_R   0.056020 0.723310 0.942560 -0.586283
C55   C     C_R   0.072968 0.563512 0.111253 0.943649
C56   C     C_R   0.927032 0.063512 0.888747 0.943649
O19   O     O_3   0.962360 0.556290 0.990650 -0.278109
O20   O     O_3   0.037640 0.056290 0.009350 -0.278109
V3    V     V_3+5 0.006980 0.281990 0.001730 1.180856
V4    V     V_3+5 0.993020 0.781990 0.998270 1.180856
N1    N     N_R   0.901430 0.018532 0.632552 0.254226
O21   O     O_R   0.959586 0.994915 0.637520 -0.327392
O22   O     O_R   0.868259 0.017979 0.570735 -0.329607
N2    N     N_R   0.098571 0.518516 0.367448 0.254226
O23   O     O_R   0.040415 0.494896 0.362480 -0.327392
O24   O     O_R   0.131742 0.517960 0.429264 -0.329607
N3    N     N_R   0.742922 0.460775 0.324663 0.235789
O25   O     O_R   0.692933 0.515844 0.344199 -0.422631
O26   O     O_R   0.789311 0.573759 0.334575 -0.350239
N4    N     N_R   0.257078 0.960775 0.675337 0.235788
O27   O     O_R   0.307067 0.015843 0.655801 -0.422630
O28   O     O_R   0.210689 0.073760 0.665426 -0.350240

loop_
_geom_bond_atom_site_label_1
_geom_bond_atom_site_label_2
_geom_bond_distance
_ccdc_geom_bond_type
C25   C49   1.392637 A    
C42   C44   1.398208 A    
C39   C41   1.421947 A    
N1    O21   1.301719 A    
O12   V3    1.985465 S    
C18   C24   1.217028 T    
O1    C3    1.315034 A    
C47   H13   1.077153 S    
O2    C4    1.315033 A    
C2    O7    1.307403 A    
N2    O24   1.301709 A    
C37   C51   1.421474 A    
O5    C3    1.317826 A    
C8    C18   1.458573 S    
C27   C47   1.407474 A    
C12   N4    1.443176 S    
C28   C48   1.407475 A    
C36   C38   1.431991 A    
C29   H15   1.083782 S    
C8    C10   1.403152 A    
C28   C50   1.395354 A    
C34   H18   1.075014 S    
C52   C55   1.481303 S    
C33   C35   1.415161 A    
C37   C45   1.404545 A    
O16   C56   1.314970 A    
C38   C46   1.404543 A    
H7    C49   1.083540 S    
C53   O18   1.315042 A    
N4    O27   1.301046 A    
C48   H14   1.077152 S    
C26   C42   1.404117 A    
C6    C8    1.400405 A    
C41   C43   1.398207 A    
N3    O25   1.301046 A    
C13   C15   1.405742 A    
C1    C28   1.476265 S    
C14   C20   1.461623 S    
C2    C27   1.476265 S    
C12   C14   1.422145 A    
C46   H20   1.082829 S    
O17   V3    1.960184 S    
O13   V3    1.971756 S    
O6    C4    1.317825 A    
C6    C16   1.402967 A    
O5    V1    1.971792 S    
C23   C54   1.453758 S    
O6    V2    1.971790 S    
C11   C13   1.422145 A    
N3    O26   1.301655 A    
C38   C52   1.421472 A    
C29   C51   1.396860 A    
H1    C15   1.083252 S    
H9    C43   1.084081 S    
N2    O23   1.301719 A    
O19   V3    2.182648 S    
C51   C56   1.481302 S    
C30   H16   1.083780 S    
C29   C31   1.399494 A    
C9    C11   1.415579 A    
C30   C32   1.399496 A    
C35   C37   1.431992 A    
C32   N2    1.441894 S    
O4    C2    1.307465 A    
C5    C15   1.402967 A    
C25   H11   1.083899 S    
C13   C19   1.461624 S    
C43   C45   1.389122 A    
C14   C16   1.405743 A    
O4    V2    1.999743 S    
C5    C7    1.400406 A    
C45   H19   1.082830 S    
O18   V4    1.960188 S    
C25   C41   1.404116 A    
O1    V2    1.960361 S    
H10   C44   1.084082 S    
C26   C50   1.392637 A    
O2    V1    1.960359 S    
H2    C16   1.083251 S    
O14   V4    1.971755 S    
O12   C56   1.314645 A    
C30   C52   1.396860 A    
C44   C46   1.389122 A    
O14   C54   1.318626 A    
C10   C12   1.415581 A    
O20   V4    2.182649 S    
O13   C53   1.318626 A    
C33   H17   1.075014 S    
H8    C50   1.083543 S    
O19   V4    1.739441 S    
O3    V1    1.999745 S    
O16   V4    1.999943 S    
C54   O17   1.315043 A    
C26   H12   1.083896 S    
C5    H3    1.083439 S    
C10   H6    1.083582 S    
C27   C49   1.395356 A    
C6    H4    1.083440 S    
O3    C1    1.307465 A    
C9    H5    1.083582 S    
C31   N1    1.441896 S    
C35   C39   1.437784 A    
C36   C40   1.437782 A    
C24   C53   1.453758 S    
C4    C21   1.453680 S    
C31   C33   1.404328 A    
O7    V1    1.989801 S    
C1    O8    1.307403 A    
C19   C21   1.217294 T    
O11   V4    1.985467 S    
O8    V2    1.989801 S    
C20   C22   1.217294 T    
O11   C55   1.314643 A    
C32   C34   1.404329 A    
C40   C48   1.426496 A    
C3    C22   1.453678 S    
C17   C23   1.217028 T    
C7    C17   1.458573 S    
N4    O28   1.301655 A    
O15   C55   1.314971 A    
C7    C9    1.403152 A    
N1    O22   1.301710 A    
O20   V3    1.739441 S    
O9    V2    1.739718 S    
O10   V1    1.739718 S    
C11   N3    1.443177 S    
O15   V3    1.999942 S    
C34   C36   1.415160 A    
C39   C47   1.426495 A    
C40   C42   1.421947 A    
