data_mof_unit_58018.cif
_audit_creation_date              2012-12-10T16:51:16-0500
_audit_creation_method            fapswitch 2.2
_symmetry_space_group_name_H-M    P1
_symmetry_Int_Tables_number       1
_space_group_crystal_system       triclinic
_cell_length_a                    27.802746
_cell_length_b                    8.716057
_cell_length_c                    7.523687
_cell_angle_alpha                 102.925436
_cell_angle_beta                  96.272647
_cell_angle_gamma                 93.982586
_cell_volume                      1758.06737534

loop_
_atom_site_label
_atom_site_type_symbol
_atom_type_description
_atom_site_fract_x
_atom_site_fract_y
_atom_site_fract_z
_atom_type_partial_charge
C1    C     C_R   0.497596 0.200422 0.454030 0.837588
C2    C     C_R   0.502404 0.799578 0.545970 0.837564
C3    C     C_R   0.102427 0.491061 0.542476 -0.054117
C4    C     C_R   0.897586 0.509485 0.457522 -0.054011
C5    C     C_R   0.123102 0.346333 0.489288 -0.099231
C6    C     C_R   0.876910 0.654221 0.510629 -0.099165
C7    C     C_R   0.091910 0.204420 0.439145 -0.024515
C8    C     C_R   0.908104 0.796129 0.560785 -0.024680
C9    C     C_R   0.133269 0.631232 0.613726 -0.032246
C10   C     C_R   0.866744 0.369306 0.386352 -0.032410
C11   C     C_R   0.354033 0.499085 0.502319 -0.147515
C12   C     C_R   0.645969 0.501058 0.497694 -0.147409
C13   C     C_R   0.968937 0.357650 0.417891 0.004381
C14   C     C_R   0.031076 0.642888 0.582126 0.004400
C15   C     C_R   0.979746 0.647048 0.545624 0.037720
C16   C     C_R   0.020267 0.353493 0.454366 0.037730
C17   C     C_R   0.948977 0.504429 0.475069 0.069556
C18   C     C_R   0.051036 0.496114 0.524931 0.069560
C19   C     C_R   0.936216 0.223994 0.318721 -0.048221
C20   C     C_R   0.063794 0.776536 0.681336 -0.048164
C21   C     C_R   0.886274 0.230115 0.312162 -0.161106
C22   C     C_R   0.113737 0.770414 0.687937 -0.161355
C23   C     C_R   0.407337 0.498823 0.499210 0.822182
C24   C     C_R   0.592663 0.501197 0.500791 0.822164
C25   C     C_R   0.041910 0.210018 0.434408 -0.205906
C26   C     C_R   0.958105 0.790526 0.565561 -0.205924
C27   C     C_2   0.490339 0.033419 0.432874 -0.238788
C28   C     C_2   0.509660 0.966581 0.567127 -0.238803
C29   C     C_R   0.174269 0.350229 0.493622 0.598145
C30   C     C_R   0.825741 0.650338 0.506204 0.597592
C31   C     C_R   0.183557 0.629027 0.615011 0.511450
C32   C     C_R   0.816458 0.371508 0.385114 0.511617
C33   C     C_R   0.287939 0.539589 0.689283 -0.132407
C34   C     C_R   0.712062 0.460438 0.310748 -0.132347
C35   C     C_R   0.337276 0.543608 0.674573 -0.182057
C36   C     C_R   0.662724 0.456292 0.325469 -0.182097
C37   C     C_R   0.319415 0.454120 0.341952 -0.157785
C38   C     C_R   0.680589 0.546502 0.658019 -0.157824
C39   C     C_R   0.269469 0.457129 0.357350 0.443114
C40   C     C_R   0.730544 0.543830 0.642619 0.443112
C41   C     C_R   0.253838 0.494840 0.532446 0.237900
C42   C     C_R   0.746170 0.505712 0.467543 0.237874
Cu1   Cu    Cu3+1 0.505380 0.517380 0.684380 0.983358
Cu2   Cu    Cu3+1 0.494620 0.482620 0.315620 0.983357
H1    H     H_    0.637590 0.418965 0.199944 0.193205
H2    H     H_    0.362409 0.580609 0.800126 0.193320
H3    H     H_    0.723833 0.428359 0.176589 0.164041
H4    H     H_    0.276161 0.571353 0.823455 0.164150
H5    H     H_    0.862290 0.125106 0.243076 0.201757
H6    H     H_    0.137719 0.875415 0.757066 0.201763
H7    H     H_    0.020601 0.099208 0.421181 0.142657
H8    H     H_    0.979417 0.901333 0.578809 0.142660
N1    N     N_R   0.202825 0.490835 0.549849 -0.457670
N2    N     N_R   0.797185 0.509723 0.450117 -0.457861
N3    N     N_2   0.486510 0.456430 0.038510 -0.221644
N4    N     N_2   0.513490 0.543570 0.961490 -0.221650
O1    O     O_R   0.503500 0.286120 0.619780 -0.591815
O2    O     O_R   0.496500 0.713880 0.380220 -0.591821
O3    O     O_R   0.494410 0.256780 0.308360 -0.588110
O4    O     O_R   0.505590 0.743220 0.691640 -0.588118
O5    O     O_R   0.434810 0.514700 0.655690 -0.594115
O6    O     O_R   0.565190 0.485300 0.344310 -0.594107
O7    O     O_R   0.425720 0.485350 0.344280 -0.589901
O8    O     O_R   0.574280 0.514650 0.655720 -0.589903
O9    O     O_2   0.195631 0.215913 0.441815 -0.485143
O10   O     O_2   0.804377 0.784679 0.557769 -0.484835
O11   O     O_2   0.787035 0.235579 0.324204 -0.520542
O12   O     O_2   0.212987 0.764924 0.676126 -0.520827
C43   C     C_1   0.333438 0.400171 0.160943 0.351066
N5    N     N_1   0.344100 0.356120 0.015151 -0.266350
C44   C     C_1   0.666554 0.600557 0.838983 0.350970
N6    N     N_1   0.655887 0.644663 0.984745 -0.266012
C45   C     C_1   0.455464 0.333897 0.924793 0.580332
N7    N     N_1   0.429395 0.230853 0.831575 -0.313219
C46   C     C_1   0.544528 0.666122 0.075210 0.580339
N8    N     N_1   0.570589 0.769185 0.168434 -0.313159
O13   O     O_3   0.235606 0.409911 0.201678 -0.557399
C47   C     C_3   0.217009 0.544775 0.155535 0.060560
H9    H     H_    0.244051 0.605615 0.090229 0.148250
H10   H     H_    0.207864 0.632059 0.276258 0.169261
C48   C     C_3   0.170643 0.493010 0.021957 -0.711874
H11   H     H_    0.143262 0.432459 0.086588 0.250710
H12   H     H_    0.155479 0.597980 0.985428 0.210159
H13   H     H_    0.178443 0.410508 0.895404 0.247115
O14   O     O_3   0.764404 0.591965 0.798212 -0.556998
C49   C     C_3   0.783163 0.457694 0.845325 0.060781
H14   H     H_    0.792584 0.370480 0.725110 0.168941
H15   H     H_    0.756128 0.396554 0.910332 0.147941
C50   C     C_3   0.829356 0.510527 0.979602 -0.712307
H16   H     H_    0.821285 0.592890 0.105812 0.247422
H17   H     H_    0.844694 0.405963 0.016569 0.209684
H18   H     H_    0.856706 0.571597 0.915370 0.251012
C51   C     C_1   0.109088 0.049457 0.390080 0.356553
N9    N     N_1   0.122633 0.925349 0.349131 -0.252112
C52   C     C_1   0.890930 0.951092 0.609906 0.356502
N10   N     N_1   0.877388 0.075199 0.650904 -0.251839
C53   C     C_1   0.950448 0.082849 0.203077 0.233122
N11   N     N_1   0.961000 0.968588 0.110283 -0.261037
C54   C     C_1   0.049557 0.917667 0.796986 0.233124
N12   N     N_1   0.038999 0.031916 0.889786 -0.260895
C55   C     C_1   0.456909 0.947906 0.273106 0.307695
N13   N     N_1   0.430333 0.880382 0.145995 -0.266949
C56   C     C_1   0.543090 0.052094 0.726897 0.307746
N14   N     N_1   0.569665 0.119617 0.854009 -0.266906

loop_
_geom_bond_atom_site_label_1
_geom_bond_atom_site_label_2
_ccdc_geom_bond_type
N3    N4    D    
C51   N9    T    
C37   C43   S    
C8    C26   A    
C45   N7    T    
C14   C18   A    
C52   N10   T    
C47   C48   S    
Cu1   Cu2   S    
C21   H5    S    
C53   N11   T    
C19   C53   S    
C39   C41   A    
O13   C47   S    
C30   N2    A    
C55   N13   T    
C39   O13   S    
C19   C21   A    
C26   H8    S    
C1    O3    A    
C47   H10   S    
C9    C22   A    
Cu2   O3    S    
C3    C18   A    
C11   C23   S    
C11   C37   A    
Cu2   O2    S    
C34   C42   A    
C12   C36   A    
C34   C36   A    
C22   H6    S    
C23   O7    A    
C24   O8    A    
N4    C46   S    
C8    C52   S    
C32   N2    A    
C48   H12   S    
Cu1   O8    S    
C48   H11   S    
C5    C29   A    
C10   C21   A    
C31   O12   S    
C7    C51   S    
C13   C19   A    
C14   C20   A    
C2    O4    A    
C4    C6    A    
C5    C7    A    
Cu1   O1    S    
C49   H14   S    
C15   C26   A    
C6    C8    A    
Cu2   O6    S    
O14   C49   S    
C27   C55   S    
C40   O14   S    
C46   N8    T    
C25   H7    S    
C3    C9    A    
C1    O1    A    
C54   N12   T    
C36   H1    S    
C31   N1    A    
C50   H18   S    
C41   N1    S    
C30   O10   S    
Cu1   O4    S    
C32   O11   S    
C29   O9    S    
C4    C17   A    
C6    C30   A    
C20   C22   A    
C50   H17   S    
C4    C10   A    
C56   N14   T    
C48   H13   S    
Cu1   O5    S    
C16   C25   A    
C15   C17   A    
C28   C56   S    
C38   C44   S    
C24   O6    A    
C47   H9    S    
C3    C5    A    
C49   C50   S    
C2    O2    A    
C12   C24   S    
C7    C25   A    
C13   C17   A    
C33   C41   A    
C11   C35   A    
C44   N6    T    
C37   C39   A    
C42   N2    S    
C38   C40   A    
Cu2   N3    S    
C20   C54   S    
C29   N1    A    
C40   C42   A    
C33   C35   A    
C49   H15   S    
C12   C38   A    
C43   N5    T    
C9    C31   A    
N3    C45   S    
C10   C32   A    
Cu1   N4    S    
C23   O5    A    
C16   C18   A    
Cu2   O7    S    
C13   C16   A    
C27   C28   D    
C1    C27   S    
C33   H4    S    
C14   C15   A    
C2    C28   S    
C34   H3    S    
C50   H16   S    
C35   H2    S    
