data_mof_unit_61652.cif
_audit_creation_date              2012-12-10T16:50:30-0500
_audit_creation_method            fapswitch 2.2
_symmetry_space_group_name_H-M    P1
_symmetry_Int_Tables_number       1
_space_group_crystal_system       triclinic
_cell_length_a                    18.73191
_cell_length_b                    19.042807
_cell_length_c                    19.02895
_cell_angle_alpha                 110.409636
_cell_angle_beta                  109.556899
_cell_angle_gamma                 109.465024
_cell_volume                      5158.23324468

loop_
_atom_site_label
_atom_site_type_symbol
_atom_type_description
_atom_site_fract_x
_atom_site_fract_y
_atom_site_fract_z
_atom_type_partial_charge
Br1   Br    Br    0.763986 0.700687 0.708515 -0.559180
Br2   Br    Br    0.893873 0.763742 0.193251 -0.520596
C1    C     C_R   0.387261 0.381145 0.505297 0.925315
C2    C     C_R   0.604000 0.336892 0.599685 -0.141331
C3    C     C_2   0.262176 0.254248 0.579933 -0.215272
C4    C     C_R   0.620524 0.501110 0.620309 0.929221
C5    C     C_2   0.182838 0.194902 0.507148 -0.167730
C6    C     C_2   0.325250 0.328472 0.583566 -0.156342
C7    C     C_2   0.336927 0.313457 0.515486 -0.327197
C8    C     C_2   0.175210 0.423663 0.175564 -0.146198
C9    C     C_2   0.187406 0.496392 0.174108 -0.334410
C10   C     C_2   0.248021 0.423779 0.236854 -0.145635
C11   C     C_2   0.307614 0.495347 0.315463 -0.333575
C12   C     C_R   0.750902 0.578338 0.769677 0.020629
C13   C     C_2   0.816078 0.831003 0.576475 -0.160616
C14   C     C_2   0.809635 0.826307 0.503060 -0.322349
C15   C     C_2   0.740041 0.767459 0.569803 -0.151322
C16   C     C_R   0.621171 0.619137 0.501442 0.925350
C17   C     C_2   0.698454 0.682169 0.510104 -0.158217
C18   C     C_R   0.995360 0.380983 0.876194 0.915723
C19   C     C_R   0.876810 0.496800 0.875884 0.873767
C20   C     C_R   0.001336 0.619457 0.119567 0.921466
C21   C     C_R   0.117629 0.498889 0.114447 0.926576
C22   C     C_R   0.997311 0.116553 0.618701 0.916921
C23   C     C_R   0.808094 0.495531 0.813201 -0.165970
C24   C     C_R   0.119448 0.121544 0.502562 0.882530
C25   C     C_R   0.996104 0.877227 0.380659 0.881108
C26   C     C_R   0.880163 0.884271 0.501613 0.932747
C27   C     C_2   0.918885 0.177879 0.672743 -0.148986
C28   C     C_R   0.378380 0.498205 0.380022 0.937081
C29   C     C_2   0.992592 0.175307 0.686698 -0.327613
C30   C     C_2   0.918447 0.239430 0.744607 -0.164621
C31   C     C_2   0.991387 0.316996 0.804469 -0.324388
C32   C     C_2   0.009359 0.748700 0.325643 -0.238795
C33   C     C_2   0.978631 0.799296 0.310130 0.119670
C34   C     C_R   0.745647 0.418273 0.732137 0.076000
C35   C     C_2   0.997088 0.674960 0.253551 -0.107963
C36   C     C_2   0.016185 0.688187 0.196107 -0.278115
C37   C     C_R   0.768635 0.663813 0.789710 0.293038
C38   C     C_R   0.816267 0.732339 0.876340 -0.162983
C39   C     C_R   0.854934 0.719989 0.943577 -0.162977
C40   C     C_R   0.852108 0.641381 0.923783 -0.116445
C41   C     C_R   0.803252 0.571347 0.836164 0.030765
C42   C     C_1   0.150289 0.208463 0.434674 0.229233
C43   C     C_1   0.734973 0.647378 0.459633 0.244132
C44   C     C_R   0.677455 0.418467 0.672297 0.074649
C45   C     C_R   0.684925 0.500047 0.687587 -0.201203
C46   C     C_R   0.747637 0.340034 0.710862 -0.149897
C47   C     C_R   0.678035 0.261797 0.635645 -0.135614
C48   C     C_R   0.605058 0.259830 0.581522 -0.137164
H1    H     H_    0.549115 0.198457 0.525110 0.136830
H2    H     H_    0.717940 0.791241 0.614099 0.194365
H3    H     H_    0.858465 0.133157 0.609755 0.165234
H4    H     H_    0.049744 0.212766 0.752017 0.158477
H5    H     H_    0.857891 0.222666 0.746322 0.158822
H6    H     H_    0.048482 0.337487 0.796871 0.161132
H7    H     H_    0.045485 0.762604 0.391490 0.159954
H8    H     H_    0.974810 0.612130 0.248754 0.170774
H9    H     H_    0.047647 0.753816 0.207867 0.176428
H10   H     H_    0.828307 0.796956 0.891406 0.171967
H11   H     H_    0.892693 0.773301 0.010602 0.184503
H12   H     H_    0.359584 0.393624 0.639783 0.175507
H13   H     H_    0.888042 0.635738 0.977411 0.157419
H14   H     H_    0.801868 0.338092 0.752586 0.132651
H15   H     H_    0.679582 0.202211 0.620825 0.132258
H16   H     H_    0.544025 0.330625 0.557242 0.151408
H17   H     H_    0.279857 0.249713 0.638031 0.170206
H18   H     H_    0.309187 0.246810 0.464603 0.164520
H19   H     H_    0.112561 0.363052 0.129608 0.169834
H20   H     H_    0.252524 0.554240 0.212889 0.157254
H21   H     H_    0.249762 0.363878 0.219324 0.169453
H22   H     H_    0.300070 0.551962 0.336528 0.158176
H23   H     H_    0.874220 0.881852 0.639781 0.180105
H24   H     H_    0.746886 0.782353 0.441923 0.158840
N1    N     N_1   0.124225 0.219070 0.377135 -0.199760
N2    N     N_1   0.763883 0.619602 0.419585 -0.189580
O1    O     O_R   0.409870 0.358470 0.449260 -0.638201
O2    O     O_R   0.948030 0.090450 0.538510 -0.617571
O3    O     O_R   0.141850 0.090470 0.551380 -0.618982
O4    O     O_R   0.409230 0.460600 0.550770 -0.614046
O5    O     O_R   0.039050 0.090460 0.448590 -0.609777
O6    O     O_R   0.051970 0.909550 0.461490 -0.637348
O7    O     O_R   0.949170 0.909540 0.358700 -0.569403
O8    O     O_R   0.960950 0.909540 0.551410 -0.610827
O9    O     O_R   0.858150 0.909530 0.448620 -0.624654
O10   O     O_R   0.591360 0.448940 0.540280 -0.627855
O11   O     O_R   0.590720 0.551070 0.641790 -0.599237
O12   O     O_R   0.048480 0.460610 0.906920 -0.619711
O13   O     O_R   0.590770 0.539400 0.449230 -0.617395
O14   O     O_R   0.590130 0.641530 0.550740 -0.596296
O15   O     O_R   0.409280 0.448930 0.358210 -0.615725
O16   O     O_R   0.408640 0.551060 0.459720 -0.622601
O17   O     O_R   0.946350 0.358500 0.906960 -0.624543
O18   O     O_R   0.854760 0.448970 0.905840 -0.623059
O19   O     O_R   0.956890 0.551080 0.905790 -0.611065
O20   O     O_R   0.945260 0.539450 0.086770 -0.604724
O21   O     O_R   0.047380 0.641560 0.086730 -0.629944
O22   O     O_R   0.036850 0.448980 0.087900 -0.617193
O23   O     O_R   0.138970 0.551100 0.087860 -0.623874
O24   O     O_R   0.050830 0.090460 0.641300 -0.627692
Zn1   Zn    Zn3+2 0.500430 0.431810 0.432220 0.974743
Zn2   Zn    Zn3+2 0.499570 0.568190 0.567780 0.994075
Zn3   Zn    Zn3+2 0.928680 0.431850 0.996880 0.968399
Zn4   Zn    Zn3+2 0.065060 0.568210 0.996820 0.971791
Zn5   Zn    Zn3+2 0.068640 0.000010 0.568630 0.966414
Zn6   Zn    Zn3+2 0.931360 0.999990 0.431370 1.006307

loop_
_geom_bond_atom_site_label_1
_geom_bond_atom_site_label_2
_ccdc_geom_bond_type
Br2   C33   S    
C14   C26   S    
C21   O23   A    
C18   O17   A    
C38   H10   S    
C26   O8    A    
C32   C35   S    
C39   C40   A    
O1    Zn1   S    
C39   H11   S    
C3    H17   S    
O17   Zn3   S    
C9    H20   S    
C2    C44   A    
O24   Zn5   S    
C5    C24   S    
C47   H15   S    
C43   N2    T    
C14   H24   S    
C16   C17   S    
C27   C30   S    
C46   H14   S    
C19   O18   A    
C13   C14   D    
C20   C36   S    
O3    Zn5   S    
C32   C33   D    
O6    Zn5   S    
O14   Zn2   S    
C12   C37   A    
O5    Zn6   S    
C6    C7    D    
C32   H7    S    
C34   C44   A    
C30   H5    S    
C35   H8    S    
O16   Zn2   S    
C31   H6    S    
O23   Zn4   S    
C20   O21   A    
C23   C41   A    
O15   Zn1   S    
C1    O4    A    
C15   H2    S    
O12   Zn4   S    
C48   H1    S    
C4    C45   S    
C16   O14   A    
C11   C28   S    
C28   O16   A    
C37   C38   A    
C3    C5    D    
C19   O19   A    
C25   C33   S    
C4    O11   A    
O4    Zn2   S    
C42   N1    T    
C35   C36   D    
C1    C7    S    
O11   Zn2   S    
O8    Zn5   S    
C5    C42   S    
C8    C10   S    
C18   C31   S    
C22   O2    A    
C38   C39   A    
C13   H23   S    
C10   H21   S    
O18   Zn3   S    
C24   O5    A    
C40   C41   A    
O9    Zn6   S    
C1    O1    A    
O19   Zn4   S    
C13   C15   S    
C19   C23   S    
C44   C45   A    
C46   C47   A    
O13   Zn1   S    
C22   O24   A    
C16   O13   A    
C20   O20   A    
C25   O6    A    
C28   O15   A    
C3    C6    S    
C17   C43   S    
C12   C45   A    
C11   H22   S    
C24   O3    A    
C4    O10   A    
O7    Zn6   S    
O2    Zn6   S    
C30   C31   D    
C25   O7    A    
C7    H18   S    
C27   C29   D    
C2    H16   S    
C27   H3    S    
C18   O12   A    
C9    C21   S    
C15   C17   D    
C34   C46   A    
C29   H4    S    
C22   C29   S    
O21   Zn4   S    
C8    C9    D    
Br1   C37   S    
C23   C34   A    
C36   H9    S    
C8    H19   S    
C21   O22   A    
C10   C11   D    
C47   C48   A    
O20   Zn3   S    
C2    C48   A    
C26   O9    A    
O10   Zn1   S    
C40   H13   S    
O22   Zn3   S    
C6    H12   S    
C12   C41   A    
