data_mof_unit_52161.cif
_audit_creation_date              2013-03-05T15:40:18-0500
_audit_creation_method            fapswitch 2.2
_symmetry_space_group_name_H-M    P1
_symmetry_Int_Tables_number       1
_space_group_crystal_system       triclinic
_cell_length_a                    28.160161
_cell_length_b                    18.45764
_cell_length_c                    17.096018
_cell_angle_alpha                 89.849049
_cell_angle_beta                  61.115804
_cell_angle_gamma                 90.029041
_cell_volume                      7780.51828812

loop_
_atom_site_label
_atom_site_type_symbol
_atom_site_description
_atom_site_fract_x
_atom_site_fract_y
_atom_site_fract_z
_atom_type_partial_charge
O1    O     O_R   0.746490 0.236330 0.638080 -0.595469
O2    O     O_R   0.253510 0.763670 0.361920 -0.603375
O3    O     O_R   0.253510 0.236330 0.361920 -0.592206
O4    O     O_R   0.746490 0.763670 0.638080 -0.605569
O5    O     O_R   0.246490 0.736330 0.638080 -0.594398
O6    O     O_R   0.753510 0.263670 0.361920 -0.605559
O7    O     O_R   0.753510 0.736330 0.361920 -0.597153
O8    O     O_R   0.246490 0.263670 0.638080 -0.605071
O9    O     O_R   0.674170 0.186160 0.516270 -0.599466
O10   O     O_R   0.325830 0.813840 0.483730 -0.601846
O11   O     O_R   0.325830 0.186160 0.483730 -0.599738
O12   O     O_R   0.674170 0.813840 0.516270 -0.601115
O13   O     O_R   0.174170 0.686160 0.516270 -0.599743
O14   O     O_R   0.825830 0.313840 0.483730 -0.601342
O15   O     O_R   0.825830 0.686160 0.483730 -0.600282
O16   O     O_R   0.174170 0.313840 0.516270 -0.598746
O17   O     O_R   0.739960 0.127620 0.525000 -0.575110
O18   O     O_R   0.260040 0.872380 0.475000 -0.572546
O19   O     O_R   0.260040 0.127620 0.475000 -0.575159
O20   O     O_R   0.739960 0.872380 0.525000 -0.572164
O21   O     O_R   0.239960 0.627620 0.525000 -0.574823
O22   O     O_R   0.760040 0.372380 0.475000 -0.572295
O23   O     O_R   0.760040 0.627620 0.475000 -0.575219
O24   O     O_R   0.239960 0.372380 0.525000 -0.566221
O25   O     O_R   0.680700 0.294870 0.629350 -0.581806
O26   O     O_R   0.319300 0.705130 0.370650 -0.595367
O27   O     O_R   0.319300 0.294870 0.370650 -0.576766
O28   O     O_R   0.680700 0.705130 0.629350 -0.595314
O29   O     O_R   0.180700 0.794870 0.629350 -0.582415
O30   O     O_R   0.819300 0.205130 0.370650 -0.594997
O31   O     O_R   0.819300 0.794870 0.370650 -0.581280
O32   O     O_R   0.180700 0.205130 0.629350 -0.595877
C1    C     C_R   0.702287 0.269130 0.675647 0.917479
C2    C     C_R   0.296235 0.726893 0.325135 0.901311
C3    C     C_R   0.300205 0.263875 0.323314 0.901329
C4    C     C_R   0.703800 0.726726 0.674802 0.906056
C5    C     C_R   0.202321 0.769193 0.675633 0.916739
C6    C     C_R   0.796194 0.226820 0.325176 0.905782
C7    C     C_R   0.797706 0.769141 0.324394 0.915722
C8    C     C_R   0.203021 0.228164 0.675492 0.900658
C9    C     C_R   0.690593 0.130131 0.537940 0.953178
C10   C     C_R   0.305884 0.872329 0.475041 0.949640
C11   C     C_R   0.309221 0.129994 0.463276 0.936910
C12   C     C_R   0.693983 0.872337 0.525564 0.948926
C13   C     C_R   0.190619 0.630086 0.537613 0.945839
C14   C     C_R   0.805941 0.372385 0.474768 0.949452
C15   C     C_R   0.809360 0.630166 0.462484 0.952851
C16   C     C_R   0.193976 0.372339 0.525459 0.948953
Zn1   Zn    Zn3+2 0.792340 0.208750 0.507670 1.196269
Zn2   Zn    Zn3+2 0.207660 0.791250 0.492330 1.189984
Zn3   Zn    Zn3+2 0.207660 0.208750 0.492330 1.193900
Zn4   Zn    Zn3+2 0.792340 0.791250 0.507670 1.190956
Zn5   Zn    Zn3+2 0.292340 0.708750 0.507670 1.200595
Zn6   Zn    Zn3+2 0.707660 0.291250 0.492330 1.189306
Zn7   Zn    Zn3+2 0.707660 0.708750 0.492330 1.195618
Zn8   Zn    Zn3+2 0.292340 0.291250 0.507670 1.204842
C17   C     C_R   0.537219 0.137058 0.537089 -0.155871
C18   C     C_R   0.445794 0.875588 0.514628 -0.140754
C19   C     C_R   0.458576 0.137228 0.477897 -0.150292
C20   C     C_R   0.551463 0.875980 0.493704 -0.142576
C21   C     C_R   0.038985 0.637384 0.530671 -0.159658
C22   C     C_R   0.946636 0.376112 0.511689 -0.140810
C23   C     C_R   0.960828 0.637501 0.470177 -0.159598
C24   C     C_R   0.052193 0.376039 0.491113 -0.139243
C25   C     C_R   0.516845 0.203528 0.523574 0.356178
C26   C     C_R   0.471865 0.809172 0.510934 0.365823
C27   C     C_R   0.478316 0.203585 0.492838 0.354322
C28   C     C_R   0.525903 0.809431 0.495692 0.366297
C29   C     C_R   0.019120 0.703814 0.515957 0.357963
C30   C     C_R   0.972289 0.309598 0.509236 0.366533
C31   C     C_R   0.980881 0.703873 0.484541 0.358152
C32   C     C_R   0.026292 0.309567 0.494127 0.366804
C33   C     C_R   0.476433 0.072138 0.497214 -0.020369
C34   C     C_R   0.522903 0.940737 0.506090 -0.019406
C35   C     C_R   0.519183 0.072059 0.517577 -0.020706
C36   C     C_R   0.473588 0.940687 0.505268 -0.018152
C37   C     C_R   0.978502 0.572444 0.490223 -0.019589
C38   C     C_R   0.024139 0.440998 0.501744 -0.018583
C39   C     C_R   0.021055 0.572389 0.511138 -0.019944
C40   C     C_R   0.974914 0.441044 0.500656 -0.018636
C41   C     C_R   0.953756 0.506539 0.489412 0.078392
C42   C     C_R   0.045591 0.506440 0.512357 0.077958
C43   C     C_R   0.452088 0.006216 0.495126 0.078272
C44   C     C_R   0.544178 0.006164 0.517328 0.077724
C45   C     C_R   0.877831 0.441194 0.492219 -0.069929
C46   C     C_R   0.107412 0.568945 0.550551 -0.064654
C47   C     C_R   0.121543 0.441027 0.509243 -0.073108
C48   C     C_R   0.892365 0.569160 0.450255 -0.064885
C49   C     C_R   0.377052 0.940713 0.494936 -0.069720
C50   C     C_R   0.606801 0.068748 0.553649 -0.065577
C51   C     C_R   0.621031 0.941083 0.511171 -0.070349
C52   C     C_R   0.391218 0.068958 0.454973 -0.060021
C53   C     C_R   0.835828 0.438857 0.467837 -0.183834
C54   C     C_R   0.155274 0.566566 0.559227 -0.138125
C55   C     C_R   0.163888 0.438694 0.532877 -0.196650
C56   C     C_R   0.844644 0.566787 0.441152 -0.136376
C57   C     C_R   0.335594 0.938627 0.469181 -0.184303
C58   C     C_R   0.655226 0.066525 0.560492 -0.136481
C59   C     C_R   0.663841 0.938718 0.533628 -0.184452
C60   C     C_R   0.344263 0.066578 0.443579 -0.135691
C61   C     C_R   0.823895 0.500841 0.433567 0.321126
C62   C     C_R   0.176018 0.500585 0.566801 0.318394
C63   C     C_R   0.323977 0.000723 0.434741 0.318987
C64   C     C_R   0.676294 0.000560 0.567247 0.322445
C65   C     C_R   0.908163 0.505575 0.476525 -0.006075
C66   C     C_R   0.091325 0.505400 0.524871 -0.006305
C67   C     C_R   0.406884 0.005268 0.481116 -0.008703
C68   C     C_R   0.590438 0.005231 0.528307 -0.006350
C69   C     C_R   0.105982 0.380829 0.474856 0.451313
C70   C     C_R   0.924438 0.632762 0.435126 0.446191
C71   C     C_R   0.892972 0.380959 0.527355 0.449659
C72   C     C_R   0.075461 0.632526 0.565544 0.446979
C73   C     C_R   0.605432 0.881114 0.476499 0.449309
C74   C     C_R   0.422913 0.132604 0.441625 0.456388
C75   C     C_R   0.392256 0.880126 0.529499 0.450176
C76   C     C_R   0.574588 0.132176 0.570131 0.445934
C77   C     C_R   0.711726 0.247682 0.961247 -0.183781
C78   C     C_R   0.271221 0.717657 0.052135 -0.185540
C79   C     C_R   0.277315 0.259642 0.050620 -0.191087
C80   C     C_R   0.728775 0.717398 0.947901 -0.185137
C81   C     C_R   0.211763 0.748111 0.961347 -0.185246
C82   C     C_R   0.770956 0.217184 0.052409 -0.186103
C83   C     C_R   0.788286 0.747803 0.038669 -0.186437
C84   C     C_R   0.220320 0.228767 0.956558 -0.193468
C85   C     C_R   0.704086 0.181319 0.006889 0.348150
C86   C     C_R   0.277845 0.784507 0.008046 0.382313
C87   C     C_R   0.288528 0.195789 0.999680 0.332879
C88   C     C_R   0.722384 0.784241 0.991470 0.382024
C89   C     C_R   0.204702 0.681382 0.006038 0.350291
C90   C     C_R   0.778149 0.283675 0.007350 0.381841
C91   C     C_R   0.795110 0.681064 0.994531 0.348389
C92   C     C_R   0.209253 0.292688 0.007321 0.383272
C93   C     C_R   0.733946 0.165862 0.051672 0.331504
C94   C     C_R   0.248637 0.799439 0.962433 0.366913
C95   C     C_R   0.259364 0.179673 0.954279 0.328824
C96   C     C_R   0.751571 0.799099 0.037116 0.367337
C97   C     C_R   0.234653 0.665989 0.050666 0.333481
C98   C     C_R   0.749109 0.298558 0.961457 0.370025
C99   C     C_R   0.765139 0.665688 0.949924 0.331076
C100  C     C_R   0.236777 0.307262 0.055673 0.398253
C101  C     C_R   0.636501 0.312883 0.952256 0.428009
C102  C     C_R   0.356061 0.674288 0.051080 0.442677
C103  C     C_R   0.350619 0.329824 0.059665 0.432531
C104  C     C_R   0.643648 0.674618 0.949168 0.440843
C105  C     C_R   0.136342 0.812713 0.952288 0.424990
C106  C     C_R   0.855804 0.173845 0.051316 0.440988
C107  C     C_R   0.863880 0.812397 0.047607 0.425456
C108  C     C_R   0.137913 0.182321 0.953269 0.439572
C109  C     C_R   0.619355 0.350491 0.897330 -0.225527
C110  C     C_R   0.385911 0.658092 0.096516 -0.229322
C111  C     C_R   0.382819 0.345084 0.101513 -0.236489
C112  C     C_R   0.613808 0.658539 0.903698 -0.221851
C113  C     C_R   0.119295 0.850438 0.897320 -0.230824
C114  C     C_R   0.885734 0.157823 0.096664 -0.219535
C115  C     C_R   0.880786 0.850257 0.102577 -0.230533
C116  C     C_R   0.110645 0.161993 0.905250 -0.223760
C117  C     C_R   0.647772 0.343182 0.805380 -0.118153
C118  C     C_R   0.370067 0.687212 0.180058 -0.137032
C119  C     C_R   0.373025 0.308785 0.179553 -0.167579
C120  C     C_R   0.629790 0.687639 0.820026 -0.131797
C121  C     C_R   0.147800 0.843250 0.805352 -0.116790
C122  C     C_R   0.869930 0.186969 0.180166 -0.132188
C123  C     C_R   0.852013 0.843344 0.194496 -0.116878
C124  C     C_R   0.127595 0.189369 0.820246 -0.129298
C125  C     C_R   0.681285 0.283551 0.770266 -0.168768
C126  C     C_R   0.316247 0.708994 0.231187 -0.191793
C127  C     C_R   0.325165 0.269770 0.225569 -0.182727
C128  C     C_R   0.683754 0.708834 0.768755 -0.183847
C129  C     C_R   0.181390 0.783696 0.770218 -0.169397
C130  C     C_R   0.816120 0.208760 0.231318 -0.184692
C131  C     C_R   0.818521 0.783650 0.229853 -0.169998
C132  C     C_R   0.181093 0.213476 0.771008 -0.188349
C133  C     C_R   0.699657 0.244893 0.823612 -0.081441
C134  C     C_R   0.281378 0.712896 0.191652 -0.083850
C135  C     C_R   0.296463 0.246612 0.180083 -0.064130
C136  C     C_R   0.718688 0.712396 0.808228 -0.081453
C137  C     C_R   0.199866 0.745192 0.823532 -0.081227
C138  C     C_R   0.781184 0.212546 0.191893 -0.080154
C139  C     C_R   0.799956 0.745109 0.176784 -0.080125
C140  C     C_R   0.213680 0.222452 0.814146 -0.078413
C141  C     C_R   0.680971 0.266074 0.912757 0.047933
C142  C     C_R   0.303436 0.702191 0.099003 0.044246
C143  C     C_R   0.308992 0.278110 0.097237 0.043920
C144  C     C_R   0.696519 0.702022 0.901044 0.044546
C145  C     C_R   0.181041 0.766295 0.912744 0.045161
C146  C     C_R   0.803166 0.201687 0.099287 0.044742
C147  C     C_R   0.819004 0.766012 0.087309 0.045248
C148  C     C_R   0.189830 0.212673 0.907344 0.047397
O33   O     O_R   0.062020 0.072840 0.007170 -0.559497
O34   O     O_R   0.937980 0.927160 0.992830 -0.555324
O35   O     O_R   0.937980 0.072840 0.992830 -0.562655
O36   O     O_R   0.062020 0.927160 0.007170 -0.554937
O37   O     O_R   0.562020 0.572840 0.007170 -0.560533
O38   O     O_R   0.437980 0.427160 0.992830 -0.547315
O39   O     O_R   0.437980 0.572840 0.992830 -0.555944
O40   O     O_R   0.562020 0.427160 0.007170 -0.557717
O41   O     O_R   0.947860 0.073950 0.109290 -0.602012
O42   O     O_R   0.052140 0.926050 0.890710 -0.590849
O43   O     O_R   0.052140 0.073950 0.890710 -0.602806
O44   O     O_R   0.947860 0.926050 0.109290 -0.591126
O45   O     O_R   0.447860 0.573950 0.109290 -0.597119
O46   O     O_R   0.552140 0.426050 0.890710 -0.595260
O47   O     O_R   0.552140 0.573950 0.890710 -0.600996
O48   O     O_R   0.447860 0.426050 0.109290 -0.606585
C149  C     C_R   0.070453 0.103996 0.937662 0.895869
C150  C     C_R   0.925176 0.901294 0.066313 0.927925
C151  C     C_R   0.928053 0.102636 0.063376 0.891350
C152  C     C_R   0.074956 0.901485 0.933611 0.929967
C153  C     C_R   0.571685 0.602939 0.936788 0.893903
C154  C     C_R   0.424985 0.400826 0.066714 0.917270
C155  C     C_R   0.428142 0.602744 0.063296 0.890574
C156  C     C_R   0.574994 0.401526 0.933593 0.926432
Zn9   Zn    Zn3+2 0.505960 0.500000 0.080520 1.210296
Zn10  Zn    Zn3+2 0.494040 0.500000 0.919480 1.211646
Zn11  Zn    Zn3+2 0.005960 1.000000 0.080520 1.210566
Zn12  Zn    Zn3+2 0.994040 0.000000 0.919480 1.209559
Cl1   Cl    Cl    0.058360 0.226216 0.490004 -0.399141
Cl2   Cl    Cl    0.953055 0.787832 0.476738 -0.393157
Cl3   Cl    Cl    0.939989 0.226274 0.513831 -0.396335
Cl4   Cl    Cl    0.047186 0.787716 0.523305 -0.394094
Cl5   Cl    Cl    0.558509 0.726194 0.489911 -0.395512
Cl6   Cl    Cl    0.449969 0.287387 0.485897 -0.395893
Cl7   Cl    Cl    0.440089 0.725751 0.513967 -0.392316
Cl8   Cl    Cl    0.544704 0.287564 0.531048 -0.395856
Cl9   Cl    Cl    0.786580 0.497432 0.374372 -0.482498
Cl10  Cl    Cl    0.213555 0.496950 0.625625 -0.479060
Cl11  Cl    Cl    0.287701 0.997556 0.373756 -0.476644
Cl12  Cl    Cl    0.714534 0.996907 0.624879 -0.483565
Cl13  Cl    Cl    0.155547 0.339186 0.375414 -0.452201
Cl14  Cl    Cl    0.933371 0.691887 0.346905 -0.432268
Cl15  Cl    Cl    0.842901 0.338976 0.626507 -0.447846
Cl16  Cl    Cl    0.066760 0.691395 0.653474 -0.431238
Cl17  Cl    Cl    0.654878 0.840256 0.376242 -0.444178
Cl18  Cl    Cl    0.433931 0.190993 0.352141 -0.486348
Cl19  Cl    Cl    0.342112 0.837173 0.627705 -0.450497
Cl20  Cl    Cl    0.567378 0.191038 0.657177 -0.442516
Cl21  Cl    Cl    0.760200 0.381402 0.902828 -0.348994
Cl22  Cl    Cl    0.226553 0.581600 0.104598 -0.380530
Cl23  Cl    Cl    0.220200 0.385402 0.123357 -0.341267
Cl24  Cl    Cl    0.772965 0.581255 0.896730 -0.372333
Cl25  Cl    Cl    0.258853 0.882954 0.905351 -0.355036
Cl26  Cl    Cl    0.725176 0.081827 0.106673 -0.371539
Cl27  Cl    Cl    0.741451 0.882438 0.093839 -0.349773
Cl28  Cl    Cl    0.271415 0.097297 0.895158 -0.378076
Cl29  Cl    Cl    0.656835 0.117677 0.008327 -0.367524
Cl30  Cl    Cl    0.323018 0.850110 0.010077 -0.358590
Cl31  Cl    Cl    0.339598 0.136054 0.992102 -0.379321
Cl32  Cl    Cl    0.677534 0.849966 0.988741 -0.355661
Cl33  Cl    Cl    0.158036 0.617194 0.006546 -0.363854
Cl34  Cl    Cl    0.823812 0.348919 0.008518 -0.355263
Cl35  Cl    Cl    0.841488 0.616826 0.994729 -0.364907
Cl36  Cl    Cl    0.160867 0.355073 0.009987 -0.352044
Cl37  Cl    Cl    0.604684 0.323359 0.069969 -0.476096
Cl38  Cl    Cl    0.383425 0.660934 0.934329 -0.449323
Cl39  Cl    Cl    0.362099 0.371352 0.957851 -0.434176
Cl40  Cl    Cl    0.615947 0.661638 0.066130 -0.454213
Cl41  Cl    Cl    0.103929 0.822299 0.070164 -0.436207
Cl42  Cl    Cl    0.883085 0.160366 0.934590 -0.455943
Cl43  Cl    Cl    0.896655 0.821824 0.929632 -0.434629
Cl44  Cl    Cl    0.108135 0.170367 0.070826 -0.463872
C157  C     C_2   0.649259 0.403916 0.746318 0.978989
O49   O     O_2   0.682789 0.452265 0.727291 -0.594136
O50   O     O_R   0.612577 0.405484 0.713084 -0.700785
H1    H     H_    0.617836 0.449450 0.674024 0.359597
C158  C     C_2   0.411325 0.699128 0.209422 0.985401
O51   O     O_2   0.416619 0.655341 0.258499 -0.540022
O52   O     O_R   0.444977 0.759976 0.178376 -0.744486
H2    H     H_    0.471850 0.762235 0.201815 0.377269
C159  C     C_2   0.416221 0.303375 0.205468 1.039415
O53   O     O_2   0.416153 0.343373 0.262444 -0.516911
O54   O     O_R   0.459457 0.256029 0.158376 -0.725903
H3    H     H_    0.488497 0.260012 0.176992 0.406776
C160  C     C_2   0.588596 0.699892 0.790557 0.980779
O55   O     O_2   0.583005 0.656207 0.741900 -0.546660
O56   O     O_R   0.555362 0.760962 0.821003 -0.745871
H4    H     H_    0.528518 0.763466 0.797517 0.376532
C161  C     C_2   0.149224 0.903947 0.746295 0.979847
O57   O     O_2   0.182779 0.952281 0.727113 -0.593809
O58   O     O_R   0.112480 0.905468 0.713182 -0.698303
H5    H     H_    0.117703 0.949410 0.674104 0.360187
C162  C     C_2   0.911223 0.198805 0.209492 0.983123
O59   O     O_2   0.916415 0.155061 0.258716 -0.546207
O60   O     O_R   0.945087 0.259433 0.178103 -0.744015
H6    H     H_    0.972013 0.261589 0.201442 0.380126
C163  C     C_2   0.850074 0.904469 0.253083 0.977185
O61   O     O_2   0.816444 0.952403 0.271182 -0.593336
O62   O     O_R   0.886429 0.906865 0.286940 -0.699415
H7    H     H_    0.880872 0.951023 0.325560 0.359568
C164  C     C_2   0.087633 0.197215 0.787369 0.986288
O63   O     O_2   0.084311 0.151135 0.738906 -0.548767
O64   O     O_R   0.053008 0.257010 0.814211 -0.746560
H8    H     H_    0.027214 0.256506 0.788549 0.377293
C165  C     C_2   0.737952 0.183127 0.788276 1.040810
O65   O     O_2   0.781756 0.185904 0.786857 -0.534721
O66   O     O_R   0.723526 0.121634 0.757018 -0.713654
H9    H     H_    0.752708 0.083044 0.735188 0.392298
C166  C     C_2   0.221918 0.724894 0.245850 1.024550
O67   O     O_2   0.200435 0.775504 0.228672 -0.552824
O68   O     O_R   0.190642 0.677539 0.316202 -0.767294
H10   H     H_    0.150796 0.691010 0.348312 0.358577
C167  C     C_2   0.255506 0.187245 0.216261 1.046628
O69   O     O_2   0.211301 0.194220 0.219861 -0.538127
O70   O     O_R   0.267864 0.123318 0.246603 -0.711146
H11   H     H_    0.236996 0.086975 0.269877 0.387902
C168  C     C_2   0.778258 0.723721 0.753807 1.025668
O71   O     O_2   0.800297 0.773793 0.770647 -0.554642
O72   O     O_R   0.808994 0.676364 0.683598 -0.760697
H12   H     H_    0.848970 0.689351 0.651305 0.357451
C169  C     C_2   0.238317 0.683581 0.788161 1.042578
O73   O     O_2   0.282067 0.686529 0.786904 -0.532938
O74   O     O_R   0.224083 0.622019 0.756730 -0.713248
H13   H     H_    0.253365 0.583563 0.734824 0.392997
C170  C     C_2   0.721745 0.224686 0.246160 1.024380
O75   O     O_2   0.700289 0.275251 0.228846 -0.555230
O76   O     O_R   0.690459 0.177524 0.316738 -0.759262
H14   H     H_    0.650634 0.191105 0.348920 0.358053
C171  C     C_2   0.761017 0.683878 0.212743 1.038730
O77   O     O_2   0.716877 0.687909 0.215459 -0.533562
O78   O     O_R   0.775179 0.621525 0.243207 -0.711765
H15   H     H_    0.745517 0.583427 0.265707 0.391464
C172  C     C_2   0.272592 0.239662 0.763718 1.024911
O79   O     O_2   0.290131 0.294405 0.781073 -0.548334
O80   O     O_R   0.307894 0.192363 0.697229 -0.749984
H16   H     H_    0.346958 0.209562 0.667674 0.363376

loop_
_geom_bond_atom_site_label_1
_geom_bond_atom_site_label_2
_geom_bond_distance
_ccdc_geom_bond_type
C117  C157  1.493678 S    
C112  C153  1.458648 S    
C104  C144  1.401090 A    
O5    C5    1.248404 A    
C86   Cl30  1.768317 S    
O64   H8    1.013907 S    
O7    Zn7   2.027122 S    
O31   Zn4   2.085464 S    
O42   Zn12  2.002551 S    
O8    Zn8   2.027122 S    
O4    C4    1.253834 A    
C74   Cl18  1.769336 S    
C167  O69   1.223137 D    
C118  C126  1.394745 A    
C130  C138  1.437864 A    
C82   C90   1.408783 A    
C12   C59   1.459287 S    
C63   Cl11  1.778525 S    
O54   H3    1.013373 S    
O43   C149  1.272706 A    
O44   Zn11  1.999652 S    
C22   C30   1.415173 A    
C61   Cl9   1.777598 S    
C7    C131  1.452566 S    
C70   Cl14  1.775802 S    
O34   C150  1.222787 A    
C140  C172  1.487501 S    
O56   H4    1.013904 S    
C50   C76   1.424339 A    
C107  C115  1.425996 A    
C19   C33   1.401533 A    
C55   C62   1.397338 A    
C81   C89   1.410063 A    
O2    C2    1.255357 A    
C103  C111  1.428595 A    
C33   C35   1.405454 A    
C108  Cl44  1.777730 S    
C36   C43   1.400217 A    
C64   Cl12  1.777548 S    
C17   C76   1.417277 A    
C78   C142  1.499268 S    
C89   Cl33  1.765770 S    
C126  C134  1.437750 A    
C105  Cl41  1.774967 S    
O80   H16   1.013896 S    
C10   C57   1.457654 S    
C17   C25   1.419550 A    
O27   C3    1.301480 A    
C113  C121  1.384192 A    
C94   Cl25  1.769646 S    
O35   Zn12  1.992678 S    
C113  C152  1.444838 S    
C38   C42   1.401134 A    
O70   H11   1.013793 S    
C106  C114  1.424506 A    
O46   Zn10  2.002551 S    
O37   Zn9   1.987134 S    
C57   C63   1.396492 A    
C102  C142  1.400937 A    
O30   Zn1   2.085884 S    
C23   C31   1.419450 A    
C159  O54   1.397157 S    
O24   Zn8   2.021951 S    
C117  C125  1.385525 A    
C90   C98   1.406657 A    
C135  C143  1.407541 A    
C136  C144  1.409095 A    
C84   C95   1.411147 A    
O23   Zn7   2.021951 S    
C108  C148  1.398461 A    
O9    C9    1.258815 A    
C163  O62   1.399173 S    
O13   C13   1.257261 A    
C119  C127  1.387671 A    
C101  C141  1.399242 A    
C120  C128  1.393350 A    
O40   C156  1.224301 A    
C89   C97   1.412453 A    
C86   C94   1.406881 A    
O12   C12   1.260265 A    
C172  O79   1.222945 D    
O7    C7    1.246240 A    
O9    Zn6   2.107244 S    
O8    C8    1.256010 A    
C138  C170  1.487896 S    
C33   C43   1.405277 A    
C25   Cl8   1.770405 S    
O11   Zn8   2.110107 S    
C111  C119  1.394495 A    
C119  C159  1.485410 S    
C49   C75   1.422836 A    
C29   Cl4   1.770428 S    
C71   Cl15  1.773398 S    
O16   Zn3   2.110107 S    
C4    C128  1.459030 S    
C134  C142  1.408887 A    
C18   C36   1.399649 A    
O22   Zn6   2.019686 S    
O30   C6    1.294347 A    
C31   Cl2   1.770422 S    
C34   C36   1.395542 A    
C137  C169  1.484459 S    
C79   C100  1.410414 A    
C22   C40   1.399584 A    
O18   C10   1.291330 A    
C5    C129  1.454475 S    
C157  O49   1.222535 D    
C38   C40   1.395263 A    
C35   C44   1.404534 A    
C170  O76   1.398784 S    
C84   C92   1.409521 A    
O39   Zn10  1.992678 S    
O2    Zn2   2.030398 S    
C19   C27   1.418623 A    
C45   C53   1.432125 A    
C22   C71   1.404508 A    
C168  O72   1.398774 S    
C47   C55   1.432615 A    
O6    C6    1.255249 A    
O33   Zn11  1.987134 S    
C114  C151  1.459677 S    
C121  C129  1.385434 A    
C103  Cl39  1.780696 S    
C161  O57   1.222520 D    
C166  O68   1.398770 S    
C131  C139  1.436584 A    
C46   C66   1.402830 A    
C129  C137  1.435831 A    
O20   C12   1.290103 A    
C91   Cl35  1.765598 S    
O21   C13   1.299917 A    
C169  O74   1.396920 S    
C41   C65   1.403770 A    
C123  C163  1.494075 S    
O23   C15   1.299891 A    
O24   C16   1.291130 A    
O17   Zn1   2.019686 S    
C84   C148  1.494073 S    
C79   C143  1.495000 S    
C115  C123  1.382395 A    
C133  C165  1.484287 S    
C105  C145  1.399126 A    
C138  C146  1.408859 A    
C165  O65   1.223043 D    
C93   Cl26  1.765970 S    
O38   C154  1.231128 A    
C158  O52   1.396766 S    
O3    C3    1.257888 A    
C15   C56   1.463585 S    
C164  O63   1.223548 D    
O35   C151  1.230093 A    
C80   C144  1.500403 S    
O28   C4    1.294419 A    
O6    Zn6   2.030398 S    
C106  Cl42  1.776531 S    
C127  C135  1.431519 A    
C122  C162  1.488199 S    
C128  C136  1.438395 A    
C124  C132  1.395858 A    
C96   Cl27  1.768930 S    
C99   Cl24  1.765918 S    
C24   C38   1.399343 A    
C114  C122  1.384155 A    
C1    C125  1.454462 S    
C34   C44   1.402102 A    
C26   Cl7   1.768502 S    
C39   C42   1.405048 A    
O52   H2    1.013901 S    
C162  O60   1.396790 S    
C30   Cl3   1.768537 S    
C102  Cl38  1.776345 S    
C17   C35   1.404907 A    
C50   C68   1.403376 A    
C104  C112  1.424950 A    
C121  C161  1.493654 S    
C48   C65   1.402782 A    
C24   C69   1.404418 A    
C109  C117  1.384064 A    
C21   C39   1.403574 A    
C160  O56   1.396757 S    
C42   C66   1.403912 A    
C107  Cl43  1.774730 S    
O12   Zn7   2.110107 S    
C91   C99   1.413197 A    
O13   Zn2   2.107244 S    
O60   H6    1.013914 S    
O47   C153  1.276944 A    
C51   C59   1.431694 A    
C56   C61   1.383162 A    
C21   C72   1.417729 A    
C77   C85   1.409986 A    
O45   C155  1.276318 A    
O25   C1    1.298019 A    
C79   C87   1.409713 A    
C48   C56   1.426181 A    
C111  C154  1.461342 S    
O10   C10   1.258332 A    
C85   Cl29  1.765656 S    
C77   C98   1.411637 A    
C75   Cl19  1.772789 S    
O50   H1    1.013833 S    
O14   C14   1.259959 A    
C73   Cl17  1.774139 S    
C104  Cl40  1.776136 S    
C92   Cl36  1.768148 S    
C135  C167  1.489808 S    
C87   C95   1.407903 A    
C88   C96   1.407218 A    
C139  C147  1.407291 A    
C85   C93   1.412680 A    
C62   Cl10  1.777589 S    
C137  C145  1.407531 A    
C98   Cl21  1.768998 S    
C171  O78   1.397420 S    
O10   Zn5   2.107244 S    
C140  C148  1.409553 A    
C69   Cl13  1.773339 S    
O33   C149  1.234021 A    
C25   C27   1.415653 A    
O58   H5    1.013836 S    
C109  C156  1.445099 S    
C81   C94   1.412026 A    
C123  C131  1.383317 A    
O36   Zn11  1.992681 S    
C48   C70   1.425625 A    
C132  C140  1.437947 A    
C37   C39   1.406308 A    
C59   C64   1.397861 A    
C133  C141  1.407471 A    
O76   H14   1.013996 S    
C118  C158  1.487978 S    
C159  O53   1.223046 D    
O19   C11   1.300727 A    
C6    C130  1.460783 S    
C167  O70   1.397877 S    
O1    C1    1.248572 A    
O72   H12   1.013965 S    
C11   C60   1.462706 S    
O66   H9    1.013723 S    
O3    Zn3   2.027122 S    
O27   Zn8   2.085464 S    
C107  C147  1.399228 A    
C60   C63   1.382144 A    
C103  C143  1.402161 A    
C95   Cl28  1.767994 S    
O68   H10   1.013964 S    
O32   Zn3   2.085464 S    
C163  O61   1.222529 D    
O62   H7    1.013840 S    
C122  C130  1.394610 A    
C37   C41   1.405028 A    
C76   Cl20  1.775666 S    
O15   Zn4   2.110107 S    
O25   Zn6   2.085884 S    
C116  C149  1.457311 S    
O45   Zn9   2.002549 S    
O22   C14   1.290663 A    
O41   C151  1.276197 A    
C87   Cl31  1.767214 S    
C53   C61   1.397193 A    
C8    C132  1.464462 S    
O18   Zn2   2.019686 S    
C110  C118  1.384378 A    
C83   C91   1.410247 A    
C51   C68   1.410286 A    
C106  C146  1.400871 A    
O46   C156  1.269223 A    
C45   C71   1.422359 A    
O38   Zn10  1.987134 S    
C80   C88   1.408879 A    
C47   C69   1.422685 A    
C92   C100  1.405841 A    
C72   Cl16  1.775796 S    
C101  Cl37  1.774918 S    
C110  C155  1.460217 S    
C102  C110  1.424480 A    
C170  O75   1.222955 D    
C19   C74   1.414988 A    
C136  C168  1.487997 S    
C44   C68   1.403138 A    
C100  Cl23  1.767671 S    
C82   C146  1.499361 S    
O78   H15   1.013761 S    
C20   C28   1.415394 A    
O20   Zn4   2.021951 S    
C168  O71   1.222966 D    
O29   C5    1.298140 A    
C108  C116  1.419384 A    
C2    C126  1.461152 S    
O34   Zn12  1.987134 S    
C26   C28   1.414373 A    
O74   H13   1.013742 S    
C112  C120  1.382395 A    
C16   C55   1.460171 S    
C166  O67   1.222961 D    
O47   Zn10  1.999651 S    
C28   Cl5   1.768550 S    
O15   C15   1.256755 A    
C115  C150  1.442705 S    
O16   C16   1.259598 A    
C101  C109  1.425357 A    
C169  O73   1.222958 D    
C32   Cl1   1.768569 S    
C47   C66   1.410788 A    
O4    Zn4   2.027122 S    
O5    Zn5   2.030398 S    
C124  C164  1.487974 S    
C77   C141  1.498328 S    
O14   Zn1   2.107244 S    
C125  C133  1.435717 A    
C97   Cl22  1.765580 S    
C29   C31   1.416590 A    
C46   C54   1.426058 A    
O26   C2    1.294445 A    
O31   C7    1.298812 A    
C172  O80   1.398907 S    
C3    C127  1.470558 S    
O11   C11   1.255059 A    
C78   C97   1.412307 A    
C158  O51   1.223427 D    
O41   Zn11  2.002549 S    
C105  C113  1.425156 A    
O32   C8    1.295641 A    
O36   C152  1.224534 A    
C49   C67   1.409632 A    
C20   C73   1.404642 A    
C45   C65   1.410519 A    
C13   C54   1.463906 S    
O28   Zn7   2.085464 S    
C18   C26   1.415020 A    
O29   Zn2   2.085884 S    
C90   Cl34  1.768460 S    
O42   C152  1.268917 A    
O43   Zn12  1.999651 S    
C88   Cl32  1.768385 S    
C157  O50   1.399178 S    
C162  O59   1.223474 D    
O48   Zn9   1.999652 S    
C51   C73   1.422688 A    
C49   C57   1.433526 A    
C27   Cl6   1.770770 S    
C46   C72   1.425615 A    
C82   C93   1.412615 A    
O39   C155  1.230409 A    
C52   C67   1.401639 A    
O37   C153  1.229012 A    
C160  O55   1.223461 D    
C80   C99   1.412735 A    
C161  O58   1.399186 S    
C18   C75   1.405194 A    
O26   Zn5   2.085884 S    
C52   C60   1.427233 A    
C23   C37   1.403662 A    
C21   C29   1.419399 A    
O44   C150  1.269477 A    
C40   C41   1.401244 A    
C139  C171  1.483725 S    
C134  C166  1.487908 S    
C83   C96   1.411887 A    
C23   C70   1.417859 A    
C165  O66   1.396888 S    
O21   Zn5   2.019686 S    
O40   Zn9   1.992681 S    
C14   C53   1.459309 S    
O1    Zn1   2.030398 S    
C58   C64   1.383455 A    
C20   C34   1.399338 A    
C164  O64   1.396762 S    
C43   C67   1.404513 A    
C24   C32   1.415073 A    
C83   C147  1.499606 S    
C171  O77   1.223531 D    
O17   C9    1.298736 A    
C81   C145  1.498281 S    
O19   Zn3   2.021951 S    
C116  C124  1.385910 A    
O48   C154  1.271204 A    
C9    C58   1.464352 S    
C30   C32   1.414156 A    
C120  C160  1.488250 S    
C78   C86   1.408697 A    
C52   C74   1.424616 A    
C50   C58   1.424446 A    
C54   C62   1.383525 A    
