data_mof_unit_26246.cif
_audit_creation_date              2012-12-10T17:45:32-0500
_audit_creation_method            fapswitch 2.2
_symmetry_space_group_name_H-M    P1
_symmetry_Int_Tables_number       1
_space_group_crystal_system       triclinic
_cell_length_a                    11.46503
_cell_length_b                    10.793047
_cell_length_c                    10.037818
_cell_angle_alpha                 92.717979
_cell_angle_beta                  90.866493
_cell_angle_gamma                 90.362838
_cell_volume                      1240.5356771

loop_
_atom_site_label
_atom_site_type_symbol
_atom_type_description
_atom_site_fract_x
_atom_site_fract_y
_atom_site_fract_z
_atom_type_partial_charge
C1    C     C_R   0.513548 0.261135 0.496763 0.919861
C2    C     C_R   0.674686 0.085046 0.822780 0.184178
C3    C     C_R   0.640965 0.961992 0.839652 -0.162813
C4    C     C_R   0.616669 0.887585 0.724355 0.280855
C5    C     C_R   0.567813 0.942576 0.611288 -0.072790
C6    C     C_R   0.584492 0.070726 0.601234 -0.072042
C7    C     C_R   0.540510 0.128676 0.488159 -0.093217
C8    C     C_R   0.503243 0.056492 0.374885 -0.067936
C9    C     C_R   0.469116 0.935042 0.391396 0.184816
C10   C     C_R   0.508257 0.874734 0.505616 -0.118012
C11   C     C_R   0.292543 0.434010 0.115143 0.302950
C12   C     C_R   0.282518 0.500429 0.499101 0.926693
C13   C     C_R   0.187199 0.471549 0.056026 0.160548
C14   C     C_R   0.189475 0.549090 0.946842 -0.176192
C15   C     C_R   0.297777 0.571137 0.884257 -0.013904
C16   C     C_R   0.397813 0.508890 0.929525 -0.057482
C17   C     C_R   0.398936 0.476546 0.065366 -0.009558
C18   C     C_R   0.597845 0.525873 0.074576 0.366824
C19   C     C_R   0.601023 0.505779 0.933820 0.338226
C20   C     C_R   0.499037 0.740397 0.502624 0.935305
C21   C     C_R   0.717471 0.502921 0.500522 0.950779
C22   C     C_1   0.161926 0.502589 0.497017 -0.048705
C23   C     C_1   0.059474 0.504709 0.496662 0.138256
C24   C     C_1   0.940694 0.506511 0.498597 0.149446
C25   C     C_1   0.838248 0.506109 0.500525 0.004161
C26   C     C_R   0.658018 0.133699 0.696965 0.274096
N1    N     N_R   0.498930 0.498800 0.142780 -0.137261
N2    N     N_R   0.498900 0.498720 0.857170 -0.164003
O1    O     O_R   0.500000 0.316780 0.614690 -0.608148
O2    O     O_R   0.499990 0.316750 0.385360 -0.556219
O3    O     O_R   0.334450 0.500030 0.614670 -0.614093
O4    O     O_R   0.334440 0.500000 0.385330 -0.600487
O5    O     O_R   0.500010 0.683250 0.614640 -0.637295
O6    O     O_R   0.500000 0.683220 0.385310 -0.560178
O7    O     O_R   0.665560 0.500000 0.614670 -0.547671
O8    O     O_R   0.665550 0.499970 0.385330 -0.581166
Zn1   Zn    Zn3+2 0.500010 0.500020 0.653130 1.038450
Zn2   Zn    Zn3+2 0.499990 0.499980 0.346870 1.084249
C27   C     C_2   0.513541 0.099836 0.237137 0.518581
H1    H     H_    0.454735 0.066334 0.157754 0.119176
O9    O     O_2   0.593454 0.168513 0.208779 -0.517054
C28   C     C_2   0.078523 0.605113 0.902692 0.645695
H2    H     H_    0.016303 0.638813 0.976081 0.113628
O10   O     O_2   0.052502 0.608234 0.784709 -0.501533
C29   C     C_2   0.317996 0.686633 0.812620 0.533471
H3    H     H_    0.402148 0.732637 0.823434 0.101475
O11   O     O_2   0.242865 0.733306 0.744253 -0.530579
Br1   Br    Br    0.755784 0.492605 0.864739 -0.274261
Br2   Br    Br    0.777042 0.240265 0.635012 -0.387217
Br3   Br    Br    0.760774 0.178000 0.960402 -0.305368
C30   C     C_2   0.648074 0.905312 0.970707 0.534315
H4    H     H_    0.692884 0.951495 0.055102 0.135119
O12   O     O_2   0.599068 0.806673 0.986944 -0.573245
Br4   Br    Br    0.736317 0.767340 0.692705 -0.391370
Br5   Br    Br    0.361217 0.858117 0.260084 -0.457883
Br6   Br    Br    0.727148 0.615378 0.159818 -0.336541
Br7   Br    Br    0.288642 0.284668 0.211473 -0.415401
Br8   Br    Br    0.040049 0.417828 0.125920 -0.351527

loop_
_geom_bond_atom_site_label_1
_geom_bond_atom_site_label_2
_ccdc_geom_bond_type
C16   N2    A    
C23   C24   S    
O3    Zn1   S    
C6    C7    A    
C9    Br5   S    
C8    C27   S    
O4    Zn2   S    
C9    C10   A    
C10   C20   S    
C18   Br6   S    
C14   C28   S    
C20   O6    A    
O8    Zn2   S    
C2    C3    A    
C3    C4    A    
C7    C8    A    
C2    C26   A    
C21   O8    A    
C11   Br7   S    
C13   C14   A    
C12   O4    A    
C19   N2    A    
C11   C13   A    
C6    C26   A    
C28   O10   D    
N2    Zn1   S    
C21   O7    A    
C20   O5    A    
C1    O1    A    
C1    O2    A    
O7    Zn1   S    
C29   O11   D    
C12   O3    A    
C5    C6    A    
C29   H3    S    
C16   C17   A    
C28   H2    S    
C15   C29   S    
N1    Zn2   S    
C30   H4    S    
C17   N1    A    
C12   C22   S    
C5    C10   A    
C24   C25   T    
O2    Zn2   S    
C27   O9    D    
C18   C19   A    
C26   Br2   S    
O1    Zn1   S    
C27   H1    S    
C3    C30   S    
C14   C15   A    
C11   C17   A    
C21   C25   S    
C13   Br8   S    
C2    Br3   S    
C4    Br4   S    
C1    C7    S    
C4    C5    A    
C22   C23   T    
O5    Zn1   S    
C18   N1    A    
C15   C16   A    
C19   Br1   S    
C8    C9    A    
C30   O12   D    
O6    Zn2   S    
