data_mof_unit_8445.cif
_audit_creation_date              2013-03-05T16:27:23-0500
_audit_creation_method            fapswitch 2.2
_symmetry_space_group_name_H-M    P1
_symmetry_Int_Tables_number       1
_space_group_crystal_system       triclinic
_cell_length_a                    18.309816
_cell_length_b                    18.290002
_cell_length_c                    18.298173
_cell_angle_alpha                 119.732827
_cell_angle_beta                  90.233383
_cell_angle_gamma                 120.050663
_cell_volume                      4338.30669327

loop_
_atom_site_label
_atom_site_type_symbol
_atom_site_description
_atom_site_fract_x
_atom_site_fract_y
_atom_site_fract_z
_atom_type_partial_charge
Zn1   Zn    Zn3+2 0.457010 0.413240 0.543760 1.000533
Zn2   Zn    Zn3+2 0.456230 0.586760 0.542990 0.975612
Zn3   Zn    Zn3+2 0.456230 0.413270 0.369490 0.981182
Zn4   Zn    Zn3+2 0.630520 0.586730 0.543760 0.956385
O1    O     O_3   0.500000 0.500000 0.500000 -0.488465
O2    O     O_R   0.676800 0.731580 0.616070 -0.653447
O3    O     O_R   0.384470 0.268410 0.445190 -0.622079
O4    O     O_R   0.383920 0.560720 0.615530 -0.628119
O5    O     O_R   0.554810 0.439290 0.323210 -0.647747
O6    O     O_R   0.383160 0.560750 0.443890 -0.631546
O7    O     O_R   0.677560 0.560680 0.616830 -0.667998
O8    O     O_R   0.383160 0.439320 0.322450 -0.652836
O9    O     O_R   0.556120 0.439250 0.616830 -0.617272
O10   O     O_R   0.384470 0.439280 0.616070 -0.656179
O11   O     O_R   0.676800 0.560710 0.445190 -0.639594
O12   O     O_R   0.554810 0.731590 0.615530 -0.656312
O13   O     O_R   0.383920 0.268420 0.323210 -0.655787
C1    C     C_R   0.640091 0.780016 0.640174 0.782516
C2    C     C_R   0.360480 0.219879 0.359957 0.852023
C3    C     C_R   0.361543 0.501163 0.641282 0.777361
C4    C     C_R   0.640123 0.500801 0.360018 0.851744
C5    C     C_R   0.358499 0.499369 0.359148 0.813447
C6    C     C_R   0.641476 0.502070 0.643214 0.842873
C7    C     C_3   0.795934 0.609563 0.752695 0.261975
H1    H     H_    0.827468 0.611398 0.700850 0.022108
C8    C     C_3   0.854757 0.610151 0.815316 0.142878
H2    H     H_    0.912719 0.617779 0.791853 0.069502
H3    H     H_    0.660778 0.563268 0.821078 0.215648
H4    H     H_    0.730767 0.536773 0.901013 0.199679
C9    C     C_3   0.660280 0.494314 0.774732 -0.350686
C10   C     C_3   0.711603 0.415495 0.644741 0.111639
C11   C     C_3   0.700206 0.504651 0.702615 -0.054741
H5    H     H_    0.746102 0.430607 0.598752 0.090767
C12   C     C_3   0.801759 0.504318 0.804558 -0.035469
C13   C     C_3   0.715158 0.483895 0.828297 -0.375793
C14   C     C_3   0.772819 0.417011 0.705125 -0.524475
H6    H     H_    0.833149 0.429512 0.685117 0.157380
H7    H     H_    0.738253 0.341254 0.695972 0.246872
H8    H     H_    0.589103 0.426872 0.744398 0.217477
H9    H     H_    0.673371 0.404396 0.811797 0.212178
C15   C     C_R   0.288543 0.052513 0.341206 0.089238
C16   C     C_R   0.311418 0.108178 0.303708 -0.036317
C17   C     C_R   0.289697 0.054168 0.210309 -0.211368
H10   H     H_    0.310375 0.094630 0.178655 0.177771
C18   C     C_R   0.235895 0.946335 0.156275 -0.182518
H11   H     H_    0.216297 0.906458 0.084395 0.185471
C19   C     C_R   0.203625 0.891514 0.195173 -0.047149
C20   C     C_R   0.236326 0.946173 0.287924 0.087717
C21   C     C_3   0.188058 0.938942 0.352222 -0.455115
C22   C     C_3   0.245336 0.056551 0.410995 0.291358
H12   H     H_    0.115461 0.902126 0.324302 0.230528
H13   H     H_    0.203318 0.906210 0.382400 0.223923
H14   H     H_    0.294129 0.092757 0.475238 0.104900
C23   C     C_R   0.788825 0.575703 0.341471 0.096800
C24   C     C_R   0.695673 0.509058 0.304148 -0.140256
C25   C     C_R   0.656310 0.454607 0.211632 -0.305031
H15   H     H_    0.584224 0.407079 0.180962 0.192020
C26   C     C_R   0.709253 0.456711 0.156667 0.487490
C27   C     C_R   0.802957 0.510175 0.194721 -0.246433
C28   C     C_R   0.841376 0.576190 0.287738 0.037524
C29   C     C_3   0.909972 0.592448 0.349856 0.176158
C30   C     C_3   0.851842 0.592031 0.409275 -0.530973
H16   H     H_    0.916084 0.526754 0.320351 0.098775
H17   H     H_    0.822181 0.524394 0.412824 0.178605
H18   H     H_    0.882101 0.667438 0.474830 0.234291
C31   C     C_R   0.789001 0.946923 0.724398 0.046288
C32   C     C_R   0.696095 0.891561 0.702532 -0.009959
C33   C     C_R   0.658298 0.945400 0.745061 -0.207717
H19   H     H_    0.586994 0.904607 0.733686 0.152698
C34   C     C_R   0.712112 0.053309 0.799357 -0.196406
H20   H     H_    0.681120 0.093290 0.828592 0.172879
C35   C     C_R   0.804087 0.108177 0.811313 -0.021525
C36   C     C_R   0.841936 0.053415 0.777396 0.006028
C37   C     C_3   0.902809 0.058777 0.722867 0.148704
C38   C     C_3   0.844507 0.941095 0.664734 -0.520865
H21   H     H_    0.972283 0.094740 0.761075 0.111699
H22   H     H_    0.806862 0.904077 0.594808 0.240285
H23   H     H_    0.879662 0.908501 0.670940 0.181345
C39   C     C_R   0.269376 0.558319 0.342157 0.071078
C40   C     C_R   0.295539 0.491772 0.303892 -0.024134
C41   C     C_R   0.256622 0.414383 0.211549 -0.207118
H24   H     H_    0.271109 0.357313 0.180380 0.174393
C42   C     C_R   0.202769 0.414326 0.157710 -0.203690
H25   H     H_    0.176747 0.357143 0.086136 0.172603
C43   C     C_R   0.187975 0.491803 0.196155 -0.021933
C44   C     C_R   0.216715 0.558681 0.288969 0.011930
C45   C     C_3   0.265749 0.673695 0.350499 0.149212
C46   C     C_3   0.324023 0.672890 0.409359 -0.510501
H26   H     H_    0.223021 0.697667 0.382295 0.163994
H27   H     H_    0.395502 0.711726 0.413560 0.238153
H28   H     H_    0.313361 0.694249 0.474715 0.193861
C47   C     C_R   0.305665 0.586594 0.753879 0.021677
C48   C     C_R   0.307795 0.501725 0.698856 -0.095543
C49   C     C_R   0.253636 0.413953 0.699752 -0.206980
H29   H     H_    0.254150 0.346644 0.660154 0.154945
C50   C     C_R   0.197896 0.412632 0.752271 -0.180364
H30   H     H_    0.157900 0.344870 0.752678 0.196431
C51   C     C_R   0.193824 0.498128 0.802851 -0.032345
C52   C     C_R   0.247057 0.582047 0.798827 -0.001198
C53   C     C_3   0.276407 0.689437 0.837353 -0.525670
C54   C     C_3   0.347210 0.697882 0.789891 0.879719
H31   H     H_    0.222933 0.690285 0.809633 0.192072
H32   H     H_    0.305257 0.739219 0.911516 0.202455
Zn5   Zn    Zn3+2 0.042950 0.586670 0.956190 1.015935
Zn6   Zn    Zn3+2 0.043720 0.586650 0.130470 1.038857
Zn7   Zn    Zn3+2 0.043720 0.413150 0.956960 1.001371
Zn8   Zn    Zn3+2 0.869430 0.413180 0.956190 0.986442
O14   O     O_3   0.999960 0.499910 0.999960 -0.508068
O15   O     O_R   0.823160 0.439210 0.054770 -0.615201
O16   O     O_R   0.115490 0.560640 0.883890 -0.644943
O17   O     O_R   0.116030 0.731490 0.176740 -0.609761
O18   O     O_R   0.945140 0.268320 0.884430 -0.634670
O19   O     O_R   0.116800 0.560590 0.177500 -0.618495
O20   O     O_R   0.822390 0.439230 0.883130 -0.655919
O21   O     O_R   0.116800 0.439160 0.056060 -0.660341
O22   O     O_R   0.943840 0.560660 0.883130 -0.619179
O23   O     O_R   0.115490 0.731510 0.054770 -0.634645
O24   O     O_R   0.823160 0.268340 0.883890 -0.643423
O25   O     O_R   0.945140 0.560620 0.176740 -0.624012
O26   O     O_R   0.116030 0.439190 0.884430 -0.627101
C55   C     C_R   0.859570 0.501209 0.139776 0.805722
C56   C     C_R   0.139348 0.499542 0.859612 0.836340
C57   C     C_R   0.140689 0.779953 0.139849 0.833586
C58   C     C_R   0.859817 0.219877 0.860662 0.835611
C59   C     C_R   0.140125 0.499205 0.140781 0.827985
C60   C     C_R   0.858779 0.501888 0.860519 0.833402
O27   O     O_3   0.789080 0.694250 0.801765 -0.596996
C61   C     C_3   0.835591 0.769237 0.783233 0.119199
H33   H     H_    0.805868 0.813277 0.801033 0.166093
H34   H     H_    0.826983 0.734715 0.711070 0.153251
C62   C     C_3   0.935125 0.845091 0.839721 -0.318704
H35   H     H_    0.942155 0.880277 0.911556 0.275019
H36   H     H_    0.967162 0.803403 0.821265 0.225657
C63   C     C_3   0.983479 0.930737 0.825328 -0.986227
H37   H     H_    0.979926 0.897524 0.754450 0.265474
H38   H     H_    0.055006 0.985371 0.868223 0.279764
H39   H     H_    0.952919 0.974015 0.843243 0.264365
O28   O     O_3   0.193880 0.095047 0.414763 -0.615141
C64   C     C_3   0.185256 0.140059 0.500047 0.091599
H40   H     H_    0.162693 0.188152 0.505305 0.174036
H41   H     H_    0.250605 0.193412 0.554975 0.131156
C65   C     C_3   0.114813 0.057456 0.511509 -0.358310
H42   H     H_    0.051052 0.004214 0.454883 0.258913
H43   H     H_    0.138058 0.011809 0.511511 0.243915
C66   C     C_3   0.097741 0.106491 0.599001 -0.873203
H44   H     H_    0.160173 0.158071 0.656723 0.247905
H45   H     H_    0.045714 0.045199 0.605161 0.282213
H46   H     H_    0.073869 0.152044 0.600255 0.293419
O29   O     O_3   0.666704 0.395764 0.065322 -0.619741
C67   C     C_3   0.671185 0.457456 0.037755 0.136819
H47   H     H_    0.669770 0.420068 0.967399 0.178386
H48   H     H_    0.734762 0.536978 0.076661 0.114980
C68   C     C_3   0.590105 0.462506 0.041307 -0.400180
H49   H     H_    0.527546 0.383059 0.005605 0.241550
H50   H     H_    0.594284 0.507077 0.111987 0.224004
C69   C     C_3   0.586194 0.514296 0.998274 -0.913468
H51   H     H_    0.648804 0.593286 0.031778 0.278774
H52   H     H_    0.528710 0.520064 0.004747 0.276789
H53   H     H_    0.576914 0.467982 0.926142 0.257171
N1    N     N_R   0.995879 0.692950 0.390737 0.246472
O30   O     O_R   0.069504 0.698416 0.391604 -0.405071
O31   O     O_R   0.999580 0.776730 0.423523 -0.413259
N2    N     N_R   0.898486 0.103026 0.676011 0.233380
O32   O     O_R   0.970550 0.186444 0.692131 -0.423293
O33   O     O_R   0.822256 0.065680 0.624628 -0.369800
N3    N     N_R   0.315299 0.727210 0.310424 0.237935
O34   O     O_R   0.367715 0.707143 0.269812 -0.381000
O35   O     O_R   0.306012 0.794954 0.314373 -0.367568
N4    N     N_R   0.891411 0.698691 0.909338 0.232818
O36   O     O_R   0.839391 0.715012 0.953198 -0.378729
O37   O     O_R   0.977738 0.763201 0.949572 -0.411288
O38   O     O_3   0.334330 0.709701 0.720714 -0.657342
C70   C     C_3   0.380765 0.814356 0.750688 0.121833
H54   H     H_    0.383181 0.814902 0.690278 0.165347
H55   H     H_    0.451831 0.862833 0.793002 0.154124
C71   C     C_3   0.332332 0.862642 0.798260 -0.396161
H56   H     H_    0.260344 0.810445 0.756998 0.236976
H57   H     H_    0.337811 0.873944 0.864026 0.229715
C72   C     C_3   0.373237 0.967511 0.814201 -0.903501
H58   H     H_    0.445270 0.021097 0.855573 0.268289
H59   H     H_    0.337867 0.001295 0.850013 0.268546
H60   H     H_    0.366443 0.958918 0.749551 0.269909
O39   O     O_3   0.435052 0.770105 0.854324 -0.683496
C73   C     C_3   0.496528 0.749271 0.820766 0.034682
H61   H     H_    0.495104 0.741072 0.756292 0.176362
H62   H     H_    0.481426 0.678170 0.812502 0.140338
C74   C     C_3   0.590848 0.839111 0.888280 -0.337162
H63   H     H_    0.611529 0.908488 0.889903 0.216778
H64   H     H_    0.590919 0.857471 0.956024 0.253516
C75   C     C_3   0.658328 0.813098 0.864682 -0.911722
H65   H     H_    0.642522 0.748846 0.869481 0.277521
H66   H     H_    0.726765 0.881808 0.911876 0.270296
H67   H     H_    0.657038 0.789947 0.795852 0.240453
N5    N     N_R   0.625347 0.313564 0.589494 0.244886
O40   O     O_R   0.575822 0.269441 0.625165 -0.388528
O41   O     O_R   0.599695 0.263924 0.502961 -0.387377

loop_
_geom_bond_atom_site_label_1
_geom_bond_atom_site_label_2
_geom_bond_distance
_ccdc_geom_bond_type
C27   C55   1.458544 S    
N5    O41   1.301140 A    
C45   C46   1.523396 S    
C61   C62   1.531167 S    
C75   H65   1.111030 S    
Zn8   O15   1.939790 S    
C15   C16   1.396765 A    
C43   C59   1.435357 S    
N2    O32   1.300019 A    
C3    C48   1.444392 S    
C62   C63   1.526162 S    
O15   C55   1.278525 A    
C61   H33   1.109652 S    
C63   H39   1.111211 S    
C66   H44   1.110867 S    
Zn7   O18   1.934151 S    
C18   H11   1.083119 S    
O6    C5    1.276137 A    
C8    H2    1.115771 S    
C48   C49   1.411614 A    
C37   H21   1.112756 S    
C9    C13   1.541309 S    
C42   H25   1.083184 S    
Zn1   O1    1.947646 S    
Zn6   O19   1.947933 S    
C69   H51   1.110968 S    
N2    O33   1.302361 A    
C7    C8    1.561809 S    
O18   C58   1.280916 A    
C37   N2    1.465677 S    
O20   C60   1.279172 A    
C64   C65   1.534603 S    
C45   N3    1.465230 S    
O19   C59   1.276185 A    
O8    C5    1.276194 A    
C73   H61   1.111463 S    
O9    C6    1.280990 A    
C54   O38   1.422917 S    
C10   C11   1.566447 S    
C12   C13   1.554305 S    
N4    O36   1.301441 A    
O7    C6    1.274891 A    
C29   H16   1.113280 S    
C47   C48   1.391206 A    
C74   C75   1.526015 S    
C30   H17   1.112039 S    
Zn3   O8    1.947744 S    
C75   H67   1.107634 S    
C66   H45   1.110635 S    
Zn5   O22   1.947152 S    
C8    C12   1.570515 S    
C71   C72   1.526265 S    
C19   C20   1.395561 A    
C8    N4    1.473537 S    
C73   H62   1.111284 S    
C33   H19   1.082896 S    
C21   H12   1.112708 S    
C67   C68   1.532602 S    
C50   C51   1.410369 A    
C7    O27   1.427317 S    
Zn8   O14   1.948582 S    
C10   H5    1.115226 S    
Zn3   O13   1.934261 S    
C34   H20   1.083029 S    
C68   H50   1.110864 S    
Zn2   O12   1.934152 S    
Zn8   O24   1.937161 S    
C12   C14   1.550455 S    
C54   O39   1.426091 S    
C26   O29   1.383758 S    
C72   H60   1.111042 S    
C70   H55   1.110927 S    
N5    O40   1.301522 A    
Zn6   O17   1.934158 S    
C27   C28   1.396709 A    
O22   C60   1.276400 A    
C35   C58   1.450926 S    
N3    O35   1.300638 A    
N4    O37   1.301400 A    
C65   C66   1.525042 S    
C49   H29   1.080524 S    
C38   H23   1.110643 S    
C39   C46   1.496159 S    
C41   C42   1.390275 A    
O26   C56   1.278192 A    
C41   H24   1.083153 S    
C18   C19   1.406796 A    
C36   C37   1.498032 S    
C71   H57   1.110160 S    
O2    C1    1.281518 A    
Zn6   O14   1.953251 S    
C22   H14   1.115939 S    
C37   C38   1.523944 S    
O17   C57   1.280773 A    
C32   C33   1.407482 A    
C9    C11   1.558336 S    
O10   C3    1.276566 A    
C7    H1    1.118530 S    
Zn4   O2    1.937261 S    
C29   N1    1.464021 S    
C4    C24   1.452664 S    
C44   C45   1.499934 S    
C35   C36   1.396690 A    
C23   C28   1.378547 A    
C23   C30   1.495178 S    
C62   H36   1.110684 S    
C1    C32   1.449792 S    
C43   C44   1.394596 A    
C31   C36   1.378989 A    
C53   H32   1.111976 S    
C72   H58   1.111062 S    
C28   C29   1.495651 S    
Zn4   O7    1.946803 S    
N1    O31   1.302438 A    
O39   C73   1.411505 S    
C7    C11   1.571045 S    
Zn8   O20   1.946654 S    
Zn3   O5    1.937388 S    
C17   C18   1.396352 A    
C19   C57   1.450108 S    
C52   C53   1.486624 S    
C46   H28   1.111647 S    
O11   C4    1.281066 A    
C12   C60   1.491114 S    
C21   H13   1.111572 S    
C50   H30   1.082846 S    
C24   C25   1.405701 A    
C53   H31   1.111359 S    
O4    C3    1.280705 A    
C68   C69   1.526349 S    
C49   C50   1.404290 A    
C38   H22   1.112102 S    
O25   C55   1.284626 A    
C47   C54   1.506886 S    
O12   C1    1.280236 A    
C71   H56   1.111515 S    
C42   C43   1.404800 A    
C46   H27   1.112334 S    
C21   C22   1.523256 S    
O3    C2    1.282171 A    
C45   H26   1.112216 S    
C17   H10   1.082980 S    
N3    O34   1.302326 A    
C67   H48   1.117059 S    
Zn2   O1    1.954423 S    
Zn1   O9    1.947254 S    
C25   H15   1.083356 S    
C62   H35   1.111339 S    
Zn2   O6    1.947213 S    
O24   C58   1.281122 A    
C15   C22   1.495092 S    
Zn5   O14   1.947794 S    
C66   H46   1.109776 S    
O38   C70   1.418638 S    
Zn5   O23   1.937108 S    
C70   C71   1.533689 S    
C51   C56   1.442881 S    
C23   C24   1.394223 A    
C20   C21   1.492820 S    
C75   H66   1.110313 S    
C30   H18   1.111890 S    
Zn7   O26   1.936721 S    
Zn1   O3    1.936959 S    
C69   H53   1.110638 S    
Zn2   O4    1.936870 S    
C40   C41   1.405002 A    
Zn3   O1    1.953251 S    
C61   H34   1.112989 S    
C10   N5    1.469897 S    
C63   H38   1.110279 S    
C64   H40   1.110846 S    
C22   O28   1.415947 S    
C63   H37   1.110662 S    
H4    C13   1.109544 S    
O21   C59   1.275872 A    
C73   C74   1.528289 S    
Zn7   O21   1.947315 S    
C6    C11   1.492905 S    
Zn4   O11   1.939744 S    
C69   H52   1.110315 S    
C13   H9    1.113203 S    
C26   C27   1.421026 A    
C5    C40   1.435714 S    
C74   H63   1.111624 S    
O29   C67   1.416502 S    
O16   C56   1.278679 A    
C14   H7    1.113170 S    
Zn5   O16   1.940065 S    
C64   H41   1.114473 S    
C2    C16   1.452181 S    
O5    C4    1.280290 A    
Zn7   O14   1.954275 S    
C14   H6    1.113506 S    
C31   C38   1.496083 S    
H3    C9    1.112372 S    
C53   C54   1.549310 S    
O13   C2    1.279622 A    
C15   C20   1.377164 A    
C25   C26   1.400590 A    
C9    H8    1.110414 S    
C31   C32   1.395194 A    
C65   H43   1.110895 S    
O23   C57   1.279863 A    
C29   C30   1.524658 S    
N1    O30   1.300305 A    
C74   H64   1.111767 S    
O28   C64   1.412741 S    
C70   H54   1.111242 S    
C39   C40   1.393740 A    
Zn4   O1    1.948432 S    
C33   C34   1.397348 A    
C51   C52   1.387675 A    
C16   C17   1.407555 A    
C65   H42   1.111550 S    
C10   C14   1.551246 S    
Zn6   O25   1.937285 S    
C34   C35   1.406265 A    
Zn1   O10   1.940213 S    
C68   H49   1.111579 S    
C39   C44   1.371894 A    
O27   C61   1.419568 S    
C47   C52   1.349289 A    
C67   H47   1.111044 S    
C72   H59   1.110524 S    
