data_mof_unit_13007.cif
_audit_creation_date              2013-03-05T16:07:19-0500
_audit_creation_method            fapswitch 2.2
_symmetry_space_group_name_H-M    P1
_symmetry_Int_Tables_number       1
_space_group_crystal_system       triclinic
_cell_length_a                    6.962709
_cell_length_b                    13.718986
_cell_length_c                    20.205997
_cell_angle_alpha                 103.102928
_cell_angle_beta                  89.937667
_cell_angle_gamma                 90.996972
_cell_volume                      1879.55915445

loop_
_atom_site_label
_atom_site_type_symbol
_atom_site_description
_atom_site_fract_x
_atom_site_fract_y
_atom_site_fract_z
_atom_type_partial_charge
O1    O     O_R   0.506770 0.599700 0.449550 -0.578061
O2    O     O_R   0.179980 0.595740 0.587960 -0.612479
O3    O     O_R   0.004580 0.400300 0.550450 -0.603944
C1    C     C_R   0.348673 0.617791 0.615016 0.906714
O4    O     O_R   0.177380 0.611700 0.452380 -0.570970
O5    O     O_R   0.001970 0.416370 0.413900 -0.532361
C2    C     C_R   0.347677 0.640052 0.437071 1.048196
O6    O     O_R   0.509390 0.583630 0.586100 -0.602034
O7    O     O_3   0.337530 0.435890 0.487530 -0.257333
V1    V     V_3+5 0.064660 0.511890 0.502310 1.216035
O8    O     O_R   0.671950 0.404260 0.412040 -0.580470
C3    C     C_R   0.839746 0.379136 0.385958 0.988199
O9    O     O_R   0.674540 0.388300 0.547620 -0.605090
C4    C     C_R   0.842296 0.361922 0.564260 0.896814
V2    V     V_3+5 0.564030 0.488110 0.497690 1.211154
O10   O     O_3   0.841030 0.564110 0.512470 -0.290260
C5    C     C_R   0.839004 0.111269 0.609442 -0.169973
H1    H     H_    0.831280 0.161425 0.516342 0.097235
H2    H     H_    0.840740 0.986073 0.691925 0.128276
C6    C     C_R   0.847527 0.285139 0.603835 -0.068521
C7    C     C_R   0.871891 0.315275 0.931287 -0.153879
C8    C     C_R   0.871184 0.391281 0.896125 -0.086928
C9    C     C_R   0.864901 0.368599 0.825351 -0.183425
C10   C     C_R   0.859059 0.267984 0.787559 0.093011
C11   C     C_R   0.858409 0.190334 0.824075 0.104748
C12   C     C_R   0.853909 0.241840 0.714920 0.083186
C13   C     C_R   0.846447 0.139030 0.680712 0.190963
C14   C     C_R   0.845972 0.064542 0.717697 -0.242610
C15   C     C_R   0.852226 0.089589 0.788162 -0.218556
C16   C     C_R   0.855498 0.314018 0.674765 -0.243269
C17   C     C_R   0.838615 0.183976 0.571271 -0.182141
C18   C     C_R   0.865102 0.215141 0.896060 -0.171083
H3    H     H_    0.877929 0.334575 0.986322 0.116636
H4    H     H_    0.864785 0.431759 0.802004 0.110508
H5    H     H_    0.876082 0.468664 0.923964 0.113976
H6    H     H_    0.851887 0.028916 0.814322 0.117134
C19   C     C_R   0.709921 0.240560 0.205486 0.137032
C20   C     C_R   0.867401 0.179819 0.185245 -0.203300
C21   C     C_R   0.013355 0.180475 0.233596 -0.118466
H7    H     H_    0.133977 0.131151 0.220940 0.120726
C22   C     C_R   0.001120 0.242239 0.299727 -0.055885
H8    H     H_    0.113486 0.239481 0.336165 0.115458
C23   C     C_R   0.845202 0.306628 0.318752 -0.261716
C24   C     C_R   0.698155 0.302694 0.270725 0.159057
C25   C     C_3   0.493278 0.270498 0.276073 0.139880
C26   C     C_3   0.506894 0.205807 0.204702 -0.587292
H9    H     H_    0.469160 0.227187 0.315835 0.042292
H10   H     H_    0.423900 0.229589 0.164384 0.250961
H11   H     H_    0.492909 0.124701 0.203538 0.165864
C27   C     C_R   0.499403 0.680221 0.730467 0.166036
C28   C     C_R   0.352332 0.684077 0.684121 -0.214849
C29   C     C_R   0.197258 0.747678 0.707584 -0.157374
H12   H     H_    0.079223 0.752576 0.673864 0.134315
C30   C     C_R   0.198248 0.810371 0.773328 -0.152933
H13   H     H_    0.082255 0.862110 0.788052 0.131730
C31   C     C_R   0.354546 0.811526 0.817568 -0.227559
C32   C     C_R   0.501027 0.742803 0.795334 0.165348
C33   C     C_3   0.712566 0.760405 0.793081 -0.457360
C34   C     C_3   0.710550 0.692091 0.722493 -0.475221
H14   H     H_    0.790978 0.728851 0.831102 0.191488
H15   H     H_    0.749129 0.839576 0.793107 0.186159
H16   H     H_    0.787340 0.620903 0.719721 0.186937
C35   C     C_R   0.485344 0.880453 0.388294 -0.157559
H17   H     H_    0.480187 0.829496 0.481063 0.120211
H18   H     H_    0.584689 0.991760 0.301363 0.122843
H19   H     H_    0.556007 0.950606 0.412226 0.114722
C36   C     C_R   0.361456 0.718121 0.397605 -0.265774
C37   C     C_R   0.229479 0.704097 0.075941 -0.168267
C38   C     C_R   0.137136 0.648824 0.116293 -0.084152
C39   C     C_R   0.163502 0.673898 0.186236 -0.072567
C40   C     C_R   0.299044 0.748479 0.217121 0.095165
C41   C     C_R   0.378440 0.811247 0.176563 0.107074
C42   C     C_R   0.348362 0.766604 0.287697 -0.069289
C43   C     C_R   0.444973 0.857573 0.318384 0.175567
C44   C     C_R   0.507882 0.922936 0.278518 -0.223287
C45   C     C_R   0.481779 0.898294 0.208369 -0.232321
C46   C     C_R   0.316676 0.694810 0.327773 0.264094
C47   C     C_R   0.442229 0.811621 0.427628 -0.220403
C48   C     C_R   0.341880 0.788279 0.105573 -0.181705
H20   H     H_    0.197371 0.687342 0.022004 0.110465
H21   H     H_    0.070063 0.636527 0.215337 0.171306
H22   H     H_    0.036963 0.589377 0.093618 0.128297
O11   O     O_R   0.203450 0.916320 0.913910 -0.599379
O12   O     O_R   0.535520 0.888300 0.047620 -0.602182
O13   O     O_R   0.710860 0.083650 0.086100 -0.597922
C49   C     C_R   0.365140 0.863767 0.065479 0.930534
O14   O     O_R   0.532860 0.904250 0.912040 -0.599300
O15   O     O_R   0.708190 0.099710 0.949550 -0.589939
C50   C     C_R   0.363992 0.882672 0.884815 0.941502
O16   O     O_R   0.206120 0.900260 0.050460 -0.595558
O17   O     O_3   0.375280 0.064080 0.012470 -0.271563
V3    V     V_3+5 0.648180 0.988110 0.997690 1.156435
O18   O     O_R   0.038220 0.111740 0.952370 -0.591318
C51   C     C_R   0.870473 0.137873 0.935575 0.935719
O19   O     O_R   0.040880 0.095790 0.087940 -0.594399
C52   C     C_R   0.873471 0.113897 0.116215 0.947519
V4    V     V_3+5 0.148800 0.011950 0.002300 1.167189
O20   O     O_3   0.871820 0.935920 0.987530 -0.283216
N1    N     N_R   0.364819 0.354641 0.282567 0.276012
O21   O     O_R   0.250766 0.363100 0.233204 -0.332787
O22   O     O_R   0.344563 0.413808 0.342022 -0.331166
H23   H     H_    0.746003 0.731528 0.681568 0.188582
N2    N     N_R   0.277585 0.592719 0.295941 0.233052
O23   O     O_R   0.393305 0.546448 0.249021 -0.354460
O24   O     O_R   0.116248 0.550438 0.307783 -0.363343
H24   H     H_    0.541390 0.948705 0.179329 0.131762
H25   H     H_    0.832577 0.033054 0.583194 0.113539
H26   H     H_    0.861312 0.393290 0.696720 0.099541

loop_
_geom_bond_atom_site_label_1
_geom_bond_atom_site_label_2
_geom_bond_distance
_ccdc_geom_bond_type
C37   H20   1.084335 S    
C18   C51   1.465541 S    
O18   C51   1.295550 A    
C22   H8    1.081910 S    
O19   C52   1.300416 A    
C36   C46   1.408318 A    
C41   C45   1.407115 A    
V4    O20   2.164804 S    
V3    O20   1.717829 S    
C21   C22   1.414110 A    
C6    C16   1.398613 A    
C25   C26   1.516128 S    
C29   H12   1.080773 S    
C8    H5    1.082886 S    
C15   H6    1.082436 S    
C12   C13   1.423133 A    
C27   C34   1.488918 S    
C14   C15   1.387450 A    
O12   C49   1.300407 A    
C41   C48   1.419415 A    
C5    H25   1.083996 S    
O5    C3    1.306162 A    
C20   C21   1.408953 A    
O13   C52   1.301938 A    
C7    H3    1.083836 S    
C33   H14   1.111579 S    
V2    O10   2.164753 S    
C31   C32   1.404045 A    
C42   C43   1.419607 A    
C39   H21   1.075241 S    
C38   H22   1.083053 S    
N2    O23   1.301629 A    
O8    V2    2.001907 S    
O15   V3    2.029021 S    
C37   C38   1.383977 A    
C9    C10   1.417851 A    
C39   C40   1.416039 A    
O1    V2    2.036186 S    
O7    V1    2.170828 S    
O16   V4    2.037719 S    
C1    O6    1.306105 A    
C11   C18   1.417332 A    
C35   H19   1.084065 S    
O9    C4    1.295782 A    
C22   C23   1.408950 A    
C36   C47   1.397325 A    
O13   V3    2.004959 S    
C29   C30   1.409350 A    
C26   H10   1.110029 S    
C25   H9    1.113302 S    
C11   C15   1.407811 A    
O11   C50   1.304483 A    
C7    C18   1.396599 A    
O15   C51   1.294737 A    
C43   C44   1.399256 A    
C1    C28   1.483548 S    
C28   C29   1.412809 A    
C5    C13   1.404414 A    
C4    C6    1.460722 S    
C10   C11   1.426698 A    
C25   N1    1.454907 S    
O17   V3    2.170820 S    
C40   C42   1.432022 A    
C33   C34   1.518679 S    
O2    C1    1.297699 A    
C44   C45   1.391967 A    
C19   C20   1.392931 A    
N1    O21   1.302439 A    
C26   H11   1.110180 S    
C9    H4    1.076443 S    
C27   C28   1.398144 A    
N2    O24   1.302035 A    
O17   V4    1.713238 S    
H2    C14   1.084386 S    
O3    C4    1.295011 A    
C31   C50   1.483224 S    
N1    O22   1.297487 A    
C12   C16   1.415218 A    
O6    V2    2.001930 S    
O14   C50   1.299299 A    
C23   C24   1.403353 A    
C49   O16   1.287465 A    
C5    C17   1.392388 A    
C46   N2    1.424103 S    
O2    V1    2.007822 S    
O18   V4    2.037024 S    
C21   H7    1.081433 S    
O14   V3    2.007872 S    
C24   C25   1.497015 S    
O4    C2    1.300244 A    
C30   H13   1.080872 S    
C34   H16   1.111804 S    
C45   H24   1.080906 S    
C16   H26   1.077463 S    
O1    C2    1.297037 A    
C34   H23   1.111408 S    
H17   C47   1.083551 S    
C10   C12   1.430085 A    
O5    V1    2.004852 S    
O8    C3    1.300706 A    
O19   V4    2.001706 S    
C30   C31   1.406668 A    
C35   C43   1.403481 A    
C3    C23   1.491218 S    
H18   C44   1.084399 S    
C19   C24   1.401337 A    
O9    V2    2.037048 S    
O7    V2    1.713822 S    
O4    V1    2.023862 S    
O3    V1    2.028999 S    
V1    O10   1.717932 S    
C27   C32   1.394510 A    
C32   C33   1.490720 S    
C33   H15   1.111151 S    
C38   C39   1.388271 A    
C2    C36   1.475044 S    
C40   C41   1.421663 A    
C37   C48   1.400282 A    
O11   V4    2.002332 S    
C20   C52   1.481370 S    
C13   C14   1.396034 A    
C42   C46   1.424157 A    
C8    C9    1.393457 A    
H1    C17   1.083542 S    
O12   V3    2.023706 S    
C19   C26   1.482917 S    
C7    C8    1.388595 A    
C35   C47   1.394065 A    
C48   C49   1.459233 S    
C6    C17   1.394987 A    
