data_mof_unit_54242.cif
_audit_creation_date              2012-12-10T19:14:27-0500
_audit_creation_method            fapswitch 2.2
_symmetry_space_group_name_H-M    P1
_symmetry_Int_Tables_number       1
_space_group_crystal_system       triclinic
_cell_length_a                    10.686215
_cell_length_b                    9.672244
_cell_length_c                    19.120492
_cell_angle_alpha                 89.938947
_cell_angle_beta                  89.452608
_cell_angle_gamma                 90.374008
_cell_volume                      1976.15436126

loop_
_atom_site_label
_atom_site_type_symbol
_atom_type_description
_atom_site_fract_x
_atom_site_fract_y
_atom_site_fract_z
_atom_type_partial_charge
C1    C     C_R   0.258512 0.499198 0.505885 0.846291
C2    C     C_3   0.068349 0.347972 0.522014 0.015395
C3    C     C_3   0.924392 0.595422 0.556568 -0.424387
C4    C     C_3   0.925124 0.351532 0.517337 -0.464683
C5    C     C_3   0.086085 0.539082 0.430915 -0.500801
C6    C     C_3   0.122610 0.497393 0.506559 -0.002215
C7    C     C_3   0.880397 0.498808 0.495703 0.074883
C8    C     C_R   0.494542 0.500061 0.365501 0.885995
C9    C     C_3   0.941207 0.538718 0.421047 0.338008
C10   C     C_3   0.410788 0.080944 0.446586 -0.226975
C11   C     C_3   0.411110 0.918041 0.446385 -0.223264
C12   C     C_R   0.431597 0.492268 0.070895 0.413534
C13   C     C_3   0.625208 0.082130 0.480840 -0.233762
C14   C     C_3   0.625268 0.919531 0.481472 -0.234254
C15   C     C_3   0.463540 0.080871 0.567905 -0.238417
C16   C     C_3   0.462123 0.918285 0.567707 -0.235533
C17   C     C_R   0.743036 0.500068 0.496057 0.885503
C18   C     C_R   0.498308 0.499819 0.634678 0.851461
C19   C     C_R   0.506361 0.617602 0.251157 -0.238576
C20   C     C_R   0.425906 0.383150 0.258321 -0.229948
C21   C     C_R   0.490490 0.618320 0.178954 -0.013706
C22   C     C_R   0.403306 0.382067 0.186733 -0.023005
C23   C     C_R   0.420199 0.610553 0.817195 -0.149198
C24   C     C_R   0.438325 0.499441 0.146511 -0.089597
C25   C     C_R   0.477148 0.499822 0.290322 -0.087038
C26   C     C_R   0.434930 0.486565 0.930242 0.297941
C27   C     C_3   0.895438 0.681158 0.389598 -0.331473
C28   C     C_3   0.936408 0.819135 0.422628 -0.938248
C29   C     C_3   0.918329 0.425822 0.362345 -0.476739
C30   C     C_3   0.784742 0.400007 0.338263 -0.869339
C31   C     C_2   0.535400 0.742521 0.139782 0.914187
C32   C     C_2   0.340441 0.258353 0.156124 0.904261
C33   C     C_3   0.121014 0.609653 0.632648 -0.408467
C34   C     C_R   0.490218 0.372120 0.818929 -0.153864
C35   C     C_3   0.105611 0.750493 0.667625 -0.899654
C36   C     C_3   0.109235 0.280534 0.592183 -0.369153
C37   C     C_3   0.093994 0.123197 0.590625 -0.945484
C38   C     C_R   0.440121 0.615338 0.745397 -0.210583
C39   C     C_R   0.509010 0.376518 0.747228 -0.202984
C40   C     C_R   0.484746 0.498282 0.710241 -0.036248
C41   C     C_R   0.446124 0.489160 0.854345 0.086556
C42   C     C_3   0.067832 0.609042 0.557093 0.001612
H1    H     H_    0.546760 0.707172 0.276733 0.179107
H2    H     H_    0.526533 0.880202 0.608692 0.152174
H3    H     H_    0.370105 0.120172 0.583688 0.160026
H4    H     H_    0.367152 0.879564 0.582221 0.146022
H5    H     H_    0.695287 0.120716 0.518887 0.147150
H6    H     H_    0.693540 0.883110 0.520785 0.145422
H7    H     H_    0.386804 0.702327 0.843654 0.152675
H8    H     H_    0.510442 0.277189 0.846588 0.152618
H9    H     H_    0.419001 0.709635 0.717365 0.149205
H10   H     H_    0.542793 0.284817 0.720817 0.143410
H11   H     H_    0.092170 0.711797 0.534194 0.188638
H12   H     H_    0.399432 0.294147 0.289773 0.175022
H13   H     H_    0.102267 0.279573 0.478998 0.168923
H14   H     H_    0.889919 0.551367 0.607097 0.165999
H15   H     H_    0.880798 0.322821 0.568366 0.186769
H16   H     H_    0.881649 0.698816 0.555477 0.174151
H17   H     H_    0.892283 0.270137 0.480802 0.172319
H18   H     H_    0.129080 0.639458 0.416273 0.190039
H19   H     H_    0.134199 0.466914 0.394050 0.145580
H20   H     H_    0.889213 0.839163 0.472788 0.247076
H21   H     H_    0.038615 0.830714 0.428648 0.249353
H22   H     H_    0.907084 0.904303 0.387497 0.248256
H23   H     H_    0.435503 0.119556 0.393407 0.162702
H24   H     H_    0.927909 0.687492 0.334228 0.210869
H25   H     H_    0.791940 0.682321 0.387400 0.206101
H26   H     H_    0.731578 0.340877 0.377934 0.279173
H27   H     H_    0.737711 0.497640 0.324698 0.243312
H28   H     H_    0.786886 0.335281 0.290326 0.261877
H29   H     H_    0.971737 0.457432 0.314561 0.221717
H30   H     H_    0.959194 0.324613 0.376593 0.205448
H31   H     H_    0.564381 0.949009 0.140410 0.363368
H32   H     H_    0.227739 0.179855 0.081682 0.355000
H33   H     H_    0.159709 0.830237 0.638310 0.248856
H34   H     H_    0.436425 0.880417 0.393196 0.167834
H35   H     H_    0.005420 0.780149 0.669643 0.267666
H36   H     H_    0.141709 0.746012 0.721851 0.261411
H37   H     H_    0.073453 0.532318 0.666415 0.213684
H38   H     H_    0.222250 0.585174 0.632431 0.204941
H39   H     H_    0.994498 0.093856 0.582667 0.264954
H40   H     H_    0.151627 0.077609 0.548039 0.248805
H41   H     H_    0.124898 0.079558 0.641266 0.257000
H42   H     H_    0.207915 0.305006 0.604712 0.216750
H43   H     H_    0.051754 0.318721 0.636500 0.205675
H44   H     H_    0.314743 0.118624 0.458034 0.144820
H45   H     H_    0.314913 0.878761 0.457577 0.143097
H46   H     H_    0.655876 0.120277 0.428503 0.147433
H47   H     H_    0.657219 0.880273 0.429717 0.158647
H48   H     H_    0.530126 0.117937 0.608221 0.146641
N1    N     N_R   0.496341 0.393209 0.036552 -0.143098
N2    N     N_R   0.366603 0.587291 0.034244 -0.125481
N3    N     N_R   0.497746 0.390274 0.967281 -0.162895
N4    N     N_R   0.368617 0.584682 0.964801 -0.157389
N5    N     N_3   0.499750 0.138610 0.498490 -0.034787
N6    N     N_3   0.499750 0.861390 0.498490 -0.036787
O1    O     O_R   0.314910 0.616040 0.499990 -0.629722
O2    O     O_R   0.530019 0.872566 0.171584 -0.777678
O3    O     O_2   0.351590 0.145147 0.183911 -0.609773
O4    O     O_R   0.265476 0.271288 0.096934 -0.797476
O5    O     O_R   0.314910 0.383960 0.499990 -0.632984
O6    O     O_R   0.500100 0.616080 0.398110 -0.626357
O7    O     O_R   0.500100 0.383920 0.398110 -0.627535
O8    O     O_R   0.685320 0.616040 0.499960 -0.630280
O9    O     O_R   0.685320 0.383960 0.499960 -0.639208
O10   O     O_R   0.500130 0.616000 0.601840 -0.626935
O11   O     O_R   0.500130 0.384000 0.601840 -0.631219
O12   O     O_2   0.580841 0.731522 0.081134 -0.616709
Zn1   Zn    Zn3+2 0.500150 0.654960 0.499970 0.903519
Zn2   Zn    Zn3+2 0.500150 0.345040 0.499970 0.897047

loop_
_geom_bond_atom_site_label_1
_geom_bond_atom_site_label_2
_ccdc_geom_bond_type
C11   N6    S    
C26   N4    A    
O9    Zn2   S    
C3    C42   S    
C31   O12   D    
C12   N1    A    
C21   C31   S    
C35   H33   S    
C22   C32   S    
C13   N5    S    
O7    Zn2   S    
C33   C42   S    
C36   C37   S    
C19   C21   A    
C17   O8    A    
C3    C7    S    
C2    H13   S    
C42   H11   S    
C15   N5    S    
C5    C6    S    
C23   H7    S    
C20   C25   A    
C15   C16   S    
C4    H17   S    
C31   O2    S    
C18   C40   S    
C18   O11   A    
C11   H45   S    
C7    C17   S    
C4    H15   S    
C16   H2    S    
C9    C29   S    
C29   H30   S    
C26   N3    A    
C39   H10   S    
C13   C14   S    
C8    C25   S    
C37   H39   S    
C2    C6    S    
C34   C41   A    
C4    C7    S    
C14   N6    S    
C30   H28   S    
C19   H1    S    
H31   O2    S    
C34   H8    S    
C16   N6    S    
C1    C6    S    
C20   H12   S    
C1    O1    A    
C39   C40   A    
C13   H5    S    
C33   H37   S    
H32   O4    S    
C38   H9    S    
O5    Zn2   S    
C35   H35   S    
C34   C39   A    
C2    C4    S    
C18   O10   A    
C14   H47   S    
C5    C9    S    
C29   C30   S    
C17   O9    A    
N1    N3    A    
O1    Zn1   S    
C3    H14   S    
N2    N4    A    
C5    H19   S    
C28   H22   S    
C20   C22   A    
O11   Zn2   S    
C22   C24   A    
C37   H40   S    
C15   H3    S    
C16   H4    S    
C1    O5    A    
C30   H27   S    
C9    C27   S    
C10   H23   S    
C2    C36   S    
C7    C9    S    
C10   H44   S    
C5    H18   S    
C12   N2    A    
N5    Zn2   S    
C14   H6    S    
C33   H38   S    
C36   H43   S    
C23   C38   A    
N6    Zn1   S    
C12   C24   S    
C35   H36   S    
C23   C41   A    
C32   O3    D    
C11   H34   S    
C27   H24   S    
C15   H48   S    
C38   C40   A    
O8    Zn1   S    
C10   N5    S    
C36   H42   S    
C13   H46   S    
C33   C35   S    
C19   C25   A    
C8    O7    A    
C27   H25   S    
C10   C11   S    
C3    H16   S    
C32   O4    S    
C6    C42   S    
C21   C24   A    
C27   C28   S    
C28   H21   S    
C37   H41   S    
O6    Zn1   S    
C8    O6    A    
C30   H26   S    
C26   C41   S    
C29   H29   S    
O10   Zn1   S    
C28   H20   S    
