data_mof_unit_41333.cif
_audit_creation_date              2012-12-10T20:45:36-0500
_audit_creation_method            fapswitch 2.2
_symmetry_space_group_name_H-M    P1
_symmetry_Int_Tables_number       1
_space_group_crystal_system       triclinic
_cell_length_a                    10.668995
_cell_length_b                    10.65978
_cell_length_c                    9.847548
_cell_angle_alpha                 89.974907
_cell_angle_beta                  90.206703
_cell_angle_gamma                 90.170091
_cell_volume                      1119.94083509

loop_
_atom_site_label
_atom_site_type_symbol
_atom_type_description
_atom_site_fract_x
_atom_site_fract_y
_atom_site_fract_z
_atom_type_partial_charge
C1    C     C_R   0.503290 0.259902 0.500061 0.880934
C2    C     C_R   0.229647 0.862058 0.151313 0.471230
C3    C     C_R   0.932578 0.571691 0.405752 -0.252530
C4    C     C_R   0.872296 0.496836 0.501763 -0.077172
C5    C     C_R   0.938894 0.428165 0.600182 -0.007095
C6    C     C_R   0.067457 0.432406 0.597039 -0.248360
C7    C     C_R   0.127836 0.505927 0.499899 -0.076575
C8    C     C_R   0.061465 0.578625 0.404580 0.008035
C9    C     C_R   0.862828 0.401409 0.837888 -0.090646
C10   C     C_R   0.803427 0.330593 0.938561 -0.132777
C11   C     C_R   0.760500 0.209498 0.909463 -0.129259
C12   C     C_R   0.260250 0.503080 0.499763 0.878190
C13   C     C_R   0.777057 0.159102 0.779720 -0.111115
C14   C     C_R   0.834420 0.230437 0.677996 -0.150185
C15   C     C_R   0.877763 0.351953 0.706781 0.118483
C16   C     C_R   0.513075 0.063635 0.623164 0.027453
C17   C     C_R   0.522257 0.128526 0.501153 -0.071749
C18   C     C_R   0.555690 0.065088 0.381909 -0.249083
C19   C     C_R   0.556976 0.935263 0.382070 -0.212037
C20   C     C_R   0.524630 0.871265 0.501450 -0.127390
C21   C     C_R   0.515458 0.935840 0.623587 0.000018
C22   C     C_3   0.418212 0.928261 0.733056 0.339155
C23   C     C_R   0.504500 0.739990 0.500034 0.877009
C24   C     C_3   0.416544 0.070909 0.732618 -0.515077
C25   C     C_R   0.444325 0.404209 0.071212 0.184870
C26   C     C_R   0.565920 0.587274 0.072254 -0.110492
C27   C     C_R   0.566348 0.586950 0.928139 -0.058414
C28   C     C_R   0.443040 0.405058 0.928523 0.206832
C29   C     C_3   0.307306 0.371070 0.924084 -0.486128
C30   C     C_3   0.309918 0.367185 0.078129 -0.470085
C31   C     C_R   0.739816 0.497283 0.500499 0.871664
C32   C     C_R   0.241503 0.865957 0.293343 -0.279002
C33   C     C_R   0.189013 0.771487 0.373162 -0.231650
C34   C     C_R   0.122682 0.671585 0.313375 0.024128
C35   C     C_R   0.109410 0.667763 0.169594 0.355652
C36   C     C_R   0.163664 0.763033 0.090969 -0.118770
H1    H     H_    0.714873 0.154540 0.987532 0.118997
H2    H     H_    0.745502 0.064663 0.758087 0.130720
H3    H     H_    0.845583 0.191029 0.577417 0.122627
H4    H     H_    0.572404 0.114559 0.287524 0.166436
H5    H     H_    0.573902 0.886053 0.287683 0.174687
H6    H     H_    0.328796 0.884084 0.699368 0.121258
H7    H     H_    0.326288 0.110549 0.695834 0.166454
H8    H     H_    0.454507 0.114465 0.826823 0.215685
H9    H     H_    0.617051 0.659172 0.126875 0.143962
H10   H     H_    0.290166 0.942805 0.342496 0.151814
H11   H     H_    0.618251 0.658239 0.873812 0.158067
H12   H     H_    0.247977 0.447963 0.883049 0.234461
H13   H     H_    0.290387 0.277743 0.877490 0.200658
H14   H     H_    0.251200 0.440149 0.126317 0.244021
H15   H     H_    0.297623 0.271164 0.120180 0.196602
H16   H     H_    0.198244 0.777447 0.482589 0.141543
H17   H     H_    0.154272 0.760050 0.981432 0.175189
H18   H     H_    0.878903 0.628565 0.335063 0.167791
H19   H     H_    0.120642 0.377162 0.669630 0.155547
H20   H     H_    0.895744 0.495173 0.861346 0.161201
H21   H     H_    0.790788 0.369535 0.039087 0.142304
N1    N     N_R   0.499160 0.499140 0.142800 -0.110845
N2    N     N_R   0.499160 0.499180 0.857150 -0.106260
O1    O     O_R   0.500020 0.316790 0.614690 -0.607032
O2    O     O_R   0.500000 0.316760 0.385350 -0.631391
O3    O     O_R   0.316770 0.500030 0.614670 -0.624046
O4    O     O_R   0.316750 0.499990 0.385330 -0.613867
O5    O     O_R   0.500000 0.683240 0.614650 -0.603299
O6    O     O_R   0.499980 0.683210 0.385310 -0.615958
O7    O     O_R   0.683250 0.500010 0.614670 -0.616447
O8    O     O_R   0.683230 0.499970 0.385330 -0.629381
Zn1   Zn    Zn3+2 0.500010 0.500020 0.653130 0.966082
Zn2   Zn    Zn3+2 0.499990 0.499980 0.346870 0.943527
O9    O     O_3   0.280195 0.953833 0.069148 -0.742068
H22   H     H_    0.324835 0.015879 0.126884 0.322690
O10   O     O_3   0.464470 0.876527 0.854860 -0.712794
H23   H     H_    0.547663 0.914442 0.875131 0.323950
O11   O     O_3   0.045398 0.573968 0.101516 -0.810812
H24   H     H_    0.026365 0.504352 0.164596 0.339865

loop_
_geom_bond_atom_site_label_1
_geom_bond_atom_site_label_2
_ccdc_geom_bond_type
C31   O7    A    
O7    Zn1   S    
C30   H15   S    
C35   O11   S    
C16   C21   A    
C35   C36   A    
C6    H19   S    
C7    C8    A    
C29   H13   S    
C25   C28   A    
C31   O8    A    
C26   C27   A    
O5    Zn1   S    
C21   C22   S    
C28   C29   S    
C18   C19   A    
C5    C6    A    
C3    H18   S    
C2    C36   A    
C2    C32   A    
C34   C35   A    
C11   H1    S    
C18   H4    S    
C36   H17   S    
C26   H9    S    
C14   H3    S    
C19   C20   A    
C16   C17   A    
O9    H22   S    
C9    C10   A    
C30   H14   S    
C16   C24   S    
C13   C14   A    
C22   O10   S    
C33   C34   A    
C7    C12   S    
O11   H24   S    
C29   H12   S    
O4    Zn2   S    
C10   H21   S    
C3    C8    A    
C1    O1    A    
C12   O4    A    
O10   H23   S    
C33   H16   S    
C29   C30   S    
N2    Zn1   S    
C12   O3    A    
C20   C23   S    
C17   C18   A    
C9    H20   S    
C8    C34   S    
C26   N1    A    
C13   H2    S    
C23   O5    A    
C24   H8    S    
C22   C24   S    
C25   N1    A    
C3    C4    A    
C28   N2    A    
C27   H11   S    
C25   C30   S    
C32   H10   S    
C4    C5    A    
C1    O2    A    
N1    Zn2   S    
C6    C7    A    
C1    C17   S    
O3    Zn1   S    
O2    Zn2   S    
C32   C33   A    
C23   O6    A    
C9    C15   A    
C27   N2    A    
C11   C13   A    
C22   H6    S    
O6    Zn2   S    
C5    C15   S    
C4    C31   S    
C10   C11   A    
C20   C21   A    
O1    Zn1   S    
C24   H7    S    
C14   C15   A    
O8    Zn2   S    
C2    O9    S    
C19   H5    S    
