data_mof_unit_29304.cif
_audit_creation_date              2013-03-05T15:49:56-0500
_audit_creation_method            fapswitch 2.2
_symmetry_space_group_name_H-M    P1
_symmetry_Int_Tables_number       1
_space_group_crystal_system       triclinic
_cell_length_a                    6.938324
_cell_length_b                    19.879744
_cell_length_c                    23.872021
_cell_angle_alpha                 93.686325
_cell_angle_beta                  91.346457
_cell_angle_gamma                 88.09923
_cell_volume                      3283.34385251

loop_
_atom_site_label
_atom_site_type_symbol
_atom_site_description
_atom_site_fract_x
_atom_site_fract_y
_atom_site_fract_z
_atom_type_partial_charge
O1    O     O_R   0.620100 0.812200 0.810870 -0.601264
O2    O     O_R   0.379900 0.187800 0.189130 -0.604646
O3    O     O_R   0.296960 0.671650 0.794750 -0.601565
O4    O     O_R   0.703040 0.328350 0.205250 -0.603897
O5    O     O_R   0.120160 0.687800 0.689130 -0.576189
O6    O     O_R   0.879840 0.312200 0.310870 -0.575593
C1    C     C_R   0.469395 0.647188 0.804872 0.910409
C2    C     C_R   0.530638 0.352851 0.195175 0.911396
O7    O     O_R   0.290810 0.810670 0.817290 -0.565261
O8    O     O_R   0.709190 0.189330 0.182710 -0.565710
O9    O     O_R   0.113980 0.827820 0.711840 -0.570527
O10   O     O_R   0.886020 0.172180 0.288160 -0.562181
C3    C     C_R   0.458982 0.832167 0.834037 0.988558
C4    C     C_R   0.541363 0.167372 0.166321 0.983868
O11   O     O_R   0.626290 0.672180 0.788160 -0.598959
O12   O     O_R   0.373710 0.327820 0.211840 -0.597313
O13   O     O_3   0.451520 0.755460 0.715370 -0.252946
O14   O     O_3   0.548480 0.244540 0.284630 -0.238493
V1    V     V_3+5 0.179200 0.748980 0.756420 1.213988
V2    V     V_3+5 0.820800 0.251020 0.243580 1.222075
O15   O     O_R   0.783880 0.828350 0.705250 -0.594162
O16   O     O_R   0.216120 0.171650 0.294750 -0.585658
C5    C     C_R   0.948864 0.852256 0.694397 1.045551
C6    C     C_R   0.051578 0.146959 0.304936 1.024011
O17   O     O_R   0.790030 0.689320 0.682700 -0.609092
O18   O     O_R   0.209970 0.310680 0.317300 -0.596028
C7    C     C_R   0.959446 0.668175 0.665764 0.987227
C8    C     C_R   0.040601 0.331877 0.334236 0.965620
V3    V     V_3+5 0.678400 0.751010 0.743570 1.196911
V4    V     V_3+5 0.321600 0.248990 0.256430 1.216155
O19   O     O_3   0.955950 0.744540 0.784620 -0.281797
O20   O     O_3   0.044050 0.255460 0.215380 -0.284398
C9    C     C_R   0.880190 0.430792 0.386375 -0.082558
C10   C     C_R   0.116489 0.568438 0.614226 -0.141435
C11   C     C_R   0.029653 0.381581 0.383289 -0.202550
C12   C     C_R   0.971394 0.619192 0.616316 -0.195262
C13   C     C_R   0.168014 0.380045 0.426971 -0.059270
C14   C     C_R   0.838299 0.622714 0.571464 -0.075867
C15   C     C_R   0.159359 0.427218 0.473763 -0.011867
C16   C     C_R   0.849942 0.576630 0.523967 -0.051848
C17   C     C_R   0.010274 0.477879 0.475709 -0.020131
C18   C     C_R   0.998385 0.525706 0.522163 -0.018867
C19   C     C_R   0.870526 0.479749 0.431662 0.006650
C20   C     C_R   0.131160 0.521302 0.567783 0.009445
C21   C     C_R   0.291548 0.423130 0.519588 0.166725
C22   C     C_R   0.711348 0.578386 0.479555 0.139457
C23   C     C_R   0.275424 0.469477 0.566691 0.440262
C24   C     C_R   0.722757 0.530343 0.433502 0.458320
H1    H     H_    0.773134 0.431408 0.352612 0.149029
H2    H     H_    0.216428 0.565403 0.649599 0.150759
H3    H     H_    0.278499 0.340349 0.424746 0.176070
H4    H     H_    0.724614 0.661238 0.574476 0.181444
C25   C     C_R   0.943893 0.912754 0.661467 -0.255507
C26   C     C_R   0.064519 0.085728 0.337377 -0.278460
C27   C     C_R   0.834456 0.028989 0.656327 -0.104846
C28   C     C_R   0.251834 0.983347 0.352347 -0.075146
C29   C     C_R   0.862527 0.972026 0.686436 -0.254174
C30   C     C_R   0.199543 0.035819 0.319265 -0.198039
C31   C     C_R   0.989968 0.909590 0.603772 0.285419
C32   C     C_R   0.973503 0.080939 0.389521 0.292123
C33   C     C_R   0.975858 0.969794 0.573228 -0.059195
C34   C     C_R   0.043360 0.031212 0.427306 -0.053156
C35   C     C_R   0.889980 0.028867 0.600185 -0.030211
C36   C     C_R   0.181002 0.981365 0.406669 -0.026573
C37   C     C_R   0.044317 0.973902 0.517206 -0.016228
C38   C     C_R   0.990797 0.030513 0.485354 -0.008625
C39   C     C_R   0.907595 0.087587 0.514555 -0.219412
C40   C     C_R   0.183126 0.927300 0.494792 -0.221462
C41   C     C_R   0.862646 0.087831 0.571172 0.544910
C42   C     C_R   0.255035 0.931709 0.441329 0.553028
H5    H     H_    0.268882 0.038326 0.279246 0.125583
H6    H     H_    0.812789 0.973435 0.729159 0.127529
H7    H     H_    0.768138 0.073429 0.677461 0.161951
H8    H     H_    0.357004 0.946052 0.336075 0.156063
H9    H     H_    0.889960 0.135220 0.495879 0.203822
H10   H     H_    0.251462 0.889760 0.519880 0.200953
C43   C     C_R   0.491637 0.585809 0.836318 -0.101421
C44   C     C_R   0.508608 0.414271 0.163776 -0.093519
C45   C     C_R   0.604054 0.469602 0.838614 -0.166311
C46   C     C_R   0.397692 0.530651 0.161601 -0.182272
C47   C     C_R   0.565617 0.526695 0.808967 -0.150083
C48   C     C_R   0.435650 0.473490 0.191207 -0.172474
C49   C     C_R   0.456998 0.587567 0.894253 -0.248505
C50   C     C_R   0.542988 0.412505 0.105833 -0.248469
C51   C     C_R   0.499905 0.530292 0.925987 0.109226
C52   C     C_R   0.500770 0.469869 0.074155 0.108310
C53   C     C_R   0.573680 0.470970 0.896602 0.176761
C54   C     C_R   0.427635 0.529257 0.103584 0.188100
C55   C     C_R   0.475656 0.529948 0.985647 0.062826
C56   C     C_R   0.525135 0.470234 0.014505 0.061106
C57   C     C_R   0.596596 0.412869 0.982720 -0.198246
C58   C     C_R   0.404618 0.587360 0.017457 -0.199270
C59   C     C_R   0.619746 0.413404 0.925169 -0.233351
C60   C     C_R   0.381842 0.586860 0.075033 -0.237969
H11   H     H_    0.676096 0.368081 0.902736 0.134567
H12   H     H_    0.325982 0.632237 0.097496 0.134467
H13   H     H_    0.596365 0.365159 0.086772 0.103720
H14   H     H_    0.402797 0.634829 0.913265 0.104491
H15   H     H_    0.406627 0.475266 0.235698 0.120599
H16   H     H_    0.595032 0.524944 0.764497 0.115951
H17   H     H_    0.661266 0.424407 0.816226 0.126576
H18   H     H_    0.341200 0.575919 0.184047 0.120148
H19   H     H_    0.637276 0.366299 0.001086 0.130973
H20   H     H_    0.364310 0.633972 0.999105 0.131195
C61   C     C_R   0.686596 0.069330 0.106589 0.543822
C62   C     C_R   0.315943 0.929600 0.894548 0.549866
C63   C     C_R   0.532576 0.116645 0.117879 -0.331902
C64   C     C_R   0.468445 0.881865 0.883246 -0.331747
C65   C     C_R   0.365990 0.114637 0.083249 -0.293969
C66   C     C_R   0.633825 0.882757 0.918488 -0.297067
C67   C     C_R   0.352523 0.068150 0.036813 0.162235
C68   C     C_R   0.647278 0.928938 0.965269 0.162509
C69   C     C_R   0.506696 0.021892 0.024713 0.005519
C70   C     C_R   0.493208 0.975184 0.977508 0.004851
C71   C     C_R   0.674451 0.022428 0.059514 -0.038201
C72   C     C_R   0.326416 0.975265 0.942378 -0.040630
C73   C     C_R   0.187316 0.067683 0.001914 -0.199053
C74   C     C_R   0.812669 0.929514 0.000142 -0.199514
C75   C     C_R   0.174393 0.021902 0.955219 -0.174432
C76   C     C_R   0.826388 0.975737 0.046614 -0.174853
H21   H     H_    0.247113 0.150303 0.091932 0.179240
H22   H     H_    0.752216 0.846927 0.909708 0.176689
H23   H     H_    0.067469 0.102829 0.010739 0.139928
H24   H     H_    0.932584 0.894426 0.991249 0.137878
H25   H     H_    0.044234 0.023108 0.929310 0.177502
H26   H     H_    0.957237 0.974890 0.072229 0.175802
O21   O     O_3   0.851560 0.070216 0.140369 -0.615956
C77   C     C_3   0.824713 0.028862 0.185231 -0.230930
H27   H     H_    0.795832 0.975997 0.169926 0.125072
H28   H     H_    0.706538 0.049276 0.212766 0.127473
H29   H     H_    0.959283 0.027758 0.211166 0.158492
O22   O     O_3   0.157120 0.932380 0.858579 -0.615140
C78   C     C_3   0.196979 0.976183 0.816386 -0.249514
H30   H     H_    0.301499 0.951998 0.786080 0.138659
H31   H     H_    0.250983 0.025546 0.833939 0.124546
H32   H     H_    0.061274 0.987243 0.793132 0.162876
N1    N     N_R   0.440962 0.371341 0.519373 0.244263
O23   O     O_R   0.460469 0.332591 0.561168 -0.336991
O24   O     O_R   0.572853 0.368830 0.481371 -0.403627
N2    N     N_R   0.556310 0.628134 0.480908 0.246503
O25   O     O_R   0.378914 0.609661 0.473430 -0.355403
O26   O     O_R   0.593686 0.691913 0.481839 -0.338759
O27   O     O_3   0.391952 0.460657 0.613708 -0.592204
C79   C     C_3   0.564192 0.494805 0.607952 -0.156076
H33   H     H_    0.534852 0.549514 0.603309 0.117332
H34   H     H_    0.648419 0.472150 0.572050 0.162375
H35   H     H_    0.654264 0.489951 0.646574 0.155380
O28   O     O_3   0.582965 0.531305 0.391184 -0.589391
C80   C     C_3   0.641367 0.574401 0.350504 -0.157839
H36   H     H_    0.781329 0.556831 0.331933 0.103426
H37   H     H_    0.651135 0.627324 0.368285 0.179766
H38   H     H_    0.531472 0.573950 0.315981 0.156039
O29   O     O_3   0.779916 0.145542 0.597306 -0.610552
C81   C     C_3   0.927724 0.190201 0.613661 -0.129357
H39   H     H_    0.000420 0.208100 0.576578 0.158139
H40   H     H_    0.035386 0.166653 0.642371 0.108771
H41   H     H_    0.862363 0.235086 0.636893 0.185344
O30   O     O_3   0.395530 0.885209 0.422353 -0.611390
C82   C     C_3   0.576893 0.907256 0.442746 -0.099561
H42   H     H_    0.586283 0.909176 0.489425 0.154572
H43   H     H_    0.609117 0.957315 0.427472 0.137653
H44   H     H_    0.690058 0.870756 0.426688 0.198819
N3    N     N_R   0.802626 0.121798 0.400831 0.218852
O31   O     O_R   0.642513 0.093474 0.411756 -0.413714
O32   O     O_R   0.806542 0.187231 0.401107 -0.393656
N4    N     N_R   0.016373 0.844197 0.575098 0.209662
O33   O     O_R   0.906656 0.826831 0.531976 -0.378739
O34   O     O_R   0.144394 0.800905 0.593099 -0.395749

loop_
_geom_bond_atom_site_label_1
_geom_bond_atom_site_label_2
_geom_bond_distance
_ccdc_geom_bond_type
C54   C60   1.393875 A    
C50   C52   1.427042 A    
C14   C16   1.413237 A    
C17   C19   1.414882 A    
C17   C18   1.415659 A    
C53   C59   1.393798 A    
N3    O31   1.301230 A    
O4    C2    1.299549 A    
V1    O19   1.710564 S    
C77   H27   1.113223 S    
C68   C70   1.410053 A    
C25   C31   1.418229 A    
C15   C17   1.419013 A    
C26   C32   1.418973 A    
C62   O22   1.382853 S    
N1    O24   1.301161 A    
O9    V1    1.984595 S    
C50   H13   1.076977 S    
C11   C13   1.401776 A    
N2    O26   1.301250 A    
O3    C1    1.299694 A    
C80   H37   1.112487 S    
V2    O20   1.710564 S    
C13   H3    1.081485 S    
C52   C54   1.419597 A    
C30   H5    1.084393 S    
C14   H4    1.081382 S    
C67   C73   1.401037 A    
C43   C49   1.407347 A    
C6    C26   1.483309 S    
O27   C79   1.407618 S    
C23   O27   1.384724 S    
C32   N3    1.435711 S    
O13   V3    1.699302 S    
C32   C34   1.445027 A    
C48   H15   1.083783 S    
C33   C35   1.422219 A    
O7    C3    1.301212 A    
C34   C36   1.425935 A    
C65   C67   1.400245 A    
C9    C11   1.401756 A    
O5    C7    1.295538 A    
O7    V1    1.999029 S    
O6    C8    1.296129 A    
C35   C41   1.404683 A    
C8    C11   1.484503 S    
O8    V2    1.999030 S    
O22   C78   1.411073 S    
C49   H14   1.076999 S    
C27   C35   1.402989 A    
C78   H32   1.104733 S    
C28   C36   1.400899 A    
O3    V1    1.982563 S    
O14   V4    1.699302 S    
C36   C42   1.405102 A    
C28   C30   1.382311 A    
C19   C24   1.411657 A    
C81   H40   1.113933 S    
C20   C23   1.411872 A    
C1    C43   1.475136 S    
C21   C23   1.411260 A    
C38   C39   1.407218 A    
C2    O12   1.293506 A    
C46   C54   1.403666 A    
C2    C44   1.475119 S    
C63   C65   1.405297 A    
C79   H35   1.109187 S    
N4    O33   1.301273 A    
C18   C20   1.414966 A    
C3    C64   1.487220 S    
C45   C53   1.403530 A    
O11   V3    1.997456 S    
C66   C68   1.402745 A    
C51   C53   1.419615 A    
O15   C5    1.291980 A    
O17   V3    1.994018 S    
C22   C24   1.411074 A    
C10   H2    1.083405 S    
C31   C33   1.440395 A    
C34   C38   1.442233 A    
C9    C19   1.408635 A    
N4    O34   1.301248 A    
C28   H8    1.083260 S    
N2    O25   1.301113 A    
C81   H41   1.109390 S    
C79   H34   1.111465 S    
C52   C56   1.438425 A    
C80   H38   1.109350 S    
C45   C47   1.390893 A    
C61   O21   1.384467 S    
C1    O11   1.293374 A    
O15   V3    2.005815 S    
C41   O29   1.384224 S    
C62   C72   1.414314 A    
C39   C41   1.393880 A    
O4    V2    1.982561 S    
C16   C22   1.415817 A    
C33   C37   1.437809 A    
C57   C59   1.387734 A    
C61   C63   1.419023 A    
C44   C48   1.395675 A    
C16   C18   1.419446 A    
C82   H42   1.112983 S    
C43   C47   1.395674 A    
V3    O19   2.143916 S    
C37   C40   1.404790 A    
O10   V2    1.984597 S    
C21   N1    1.436484 S    
C82   H44   1.109294 S    
C10   C20   1.408196 A    
C67   C69   1.410124 A    
C74   H24   1.083806 S    
O28   C80   1.410585 S    
C55   C58   1.411039 A    
C60   H12   1.084386 S    
C31   N4    1.437953 S    
C81   H39   1.112696 S    
C76   H26   1.082891 S    
C75   H25   1.083008 S    
C46   C48   1.390979 A    
C4    C63   1.486192 S    
C49   C51   1.427156 A    
O18   V4    1.994017 S    
C51   C55   1.438512 A    
C27   C29   1.385781 A    
O8    C4    1.299953 A    
C78   H30   1.112320 S    
O16   C6    1.291897 A    
O1    C3    1.297885 A    
O1    V3    1.992757 S    
O12   V4    1.997456 S    
C56   C57   1.411016 A    
O21   C77   1.410784 S    
C55   C56   1.438279 A    
C77   H29   1.108505 S    
C22   N2    1.436389 S    
C69   C70   1.416725 A    
C26   C30   1.396868 A    
C25   C29   1.394211 A    
O16   V4    2.005813 S    
N3    O32   1.301558 A    
C61   C71   1.416109 A    
C57   H19   1.076117 S    
C79   H33   1.111908 S    
C77   H28   1.112655 S    
C70   C72   1.413136 A    
C71   C76   1.407596 A    
O5    V1    1.994572 S    
C47   H16   1.083861 S    
C7    C12   1.483202 S    
C40   H10   1.077528 S    
O6    V2    1.994571 S    
N1    O23   1.301067 A    
O10   C6    1.302793 A    
O18   C8    1.299832 A    
C72   C75   1.407082 A    
C15   C21   1.415570 A    
O2    V4    1.992756 S    
C73   C75   1.396128 A    
C82   H43   1.112887 S    
C73   H23   1.083868 S    
C13   C15   1.412628 A    
C80   H36   1.113283 S    
C66   H22   1.084486 S    
C12   C14   1.401072 A    
V4    O20   2.143914 S    
C65   H21   1.084599 S    
C58   C60   1.387893 A    
O30   C82   1.411698 S    
C62   C64   1.416609 A    
C24   O28   1.384515 S    
C5    C25   1.477539 S    
O9    C5    1.299422 A    
O13   V1    2.160158 S    
C10   C12   1.400891 A    
C64   C66   1.406705 A    
O14   V2    2.160159 S    
C29   H6    1.082716 S    
O2    C4    1.298646 A    
C74   C76   1.397810 A    
C58   H20   1.076140 S    
C27   H7    1.083229 S    
C44   C50   1.407170 A    
C39   H9    1.074437 S    
C59   H11   1.084393 S    
C37   C38   1.432370 A    
C46   H18   1.083997 S    
C78   H31   1.114949 S    
C40   C42   1.390219 A    
C68   C74   1.401696 A    
C45   H17   1.083985 S    
C42   O30   1.384596 S    
O29   C81   1.410457 S    
C9    H1    1.083535 S    
C69   C71   1.413956 A    
O17   C7    1.299836 A    
