data_mof_unit_31937.cif
_audit_creation_date              2012-12-10T20:35:49-0500
_audit_creation_method            fapswitch 2.2
_symmetry_space_group_name_H-M    P1
_symmetry_Int_Tables_number       1
_space_group_crystal_system       triclinic
_cell_length_a                    15.747718
_cell_length_b                    10.687535
_cell_length_c                    9.85867
_cell_angle_alpha                 89.362493
_cell_angle_beta                  89.752233
_cell_angle_gamma                 90.534496
_cell_volume                      1659.06525741

loop_
_atom_site_label
_atom_site_type_symbol
_atom_type_description
_atom_site_fract_x
_atom_site_fract_y
_atom_site_fract_z
_atom_type_partial_charge
C1    C     C_R   0.502726 0.259664 0.500292 0.859596
C2    C     C_3   0.947765 0.429666 0.624047 -0.104092
C3    C     C_3   0.916813 0.514477 0.501334 0.195169
C4    C     C_3   0.952739 0.649753 0.526026 0.011533
C5    C     C_3   0.049705 0.648509 0.499291 -0.448779
C6    C     C_1   0.825302 0.510936 0.498138 -0.047358
C7    C     C_1   0.174531 0.510823 0.503070 -0.074192
C8    C     C_1   0.249685 0.506812 0.501367 -0.185322
C9    C     C_R   0.538136 0.062282 0.615689 0.142692
C10   C     C_R   0.517282 0.128209 0.497878 -0.104741
C11   C     C_R   0.515941 0.065783 0.373194 -0.231325
C12   C     C_R   0.338340 0.501414 0.500369 0.912494
C13   C     C_R   0.517454 0.936701 0.372157 -0.233519
C14   C     C_R   0.520282 0.871010 0.495837 -0.102452
C15   C     C_R   0.540121 0.934290 0.614460 0.130313
C16   C     C_3   0.503398 0.922017 0.753839 -0.470847
C17   C     C_3   0.499674 0.063431 0.754355 -0.519005
C18   C     C_R   0.428768 0.463792 0.072118 0.083266
C19   C     C_R   0.567109 0.546709 0.070935 -0.130723
C20   C     C_R   0.567080 0.546791 0.926996 -0.148765
C21   C     C_R   0.429082 0.464056 0.929389 0.168447
C22   C     C_3   0.386906 0.339486 0.922882 0.292994
C23   C     C_R   0.504003 0.739980 0.499104 0.870502
C24   C     C_3   0.385111 0.338085 0.078733 -0.170654
C25   C     C_R   0.661598 0.500628 0.499612 0.907111
C26   C     C_3   0.047883 0.435755 0.631056 0.005011
C27   C     C_3   0.051187 0.445831 0.376178 -0.564064
C28   C     C_3   0.953023 0.455471 0.365788 -0.005898
C29   C     C_1   0.750141 0.505745 0.498628 -0.217905
C30   C     C_3   0.083025 0.511729 0.505439 0.279371
H1    H     H_    0.930701 0.332159 0.594294 0.147860
H2    H     H_    0.506872 0.114996 0.277812 0.168942
H3    H     H_    0.508892 0.889499 0.276422 0.174442
H4    H     H_    0.439566 0.876544 0.755678 0.210559
H5    H     H_    0.549725 0.883176 0.827543 0.202000
H6    H     H_    0.433488 0.097065 0.753119 0.195068
H7    H     H_    0.542351 0.106814 0.830454 0.201786
H8    H     H_    0.621912 0.582457 0.124286 0.152760
H9    H     H_    0.067828 0.337120 0.614297 0.086616
H10   H     H_    0.621849 0.582694 0.872072 0.153100
H11   H     H_    0.430901 0.270371 0.878396 0.068288
H12   H     H_    0.427705 0.265166 0.121438 0.147722
H13   H     H_    0.083551 0.487900 0.285496 0.188782
H14   H     H_    0.069732 0.345492 0.377765 0.157416
H15   H     H_    0.927890 0.357845 0.359587 0.141588
H16   H     H_    0.082510 0.711050 0.571339 0.169076
H17   H     H_    0.064187 0.688712 0.396994 0.166134
H18   H     H_    0.945092 0.668939 0.635776 0.171143
N1    N     N_R   0.499430 0.499140 0.142800 -0.106372
N2    N     N_R   0.499430 0.499180 0.857150 -0.132637
O1    O     O_R   0.500010 0.316790 0.614690 -0.617874
O2    O     O_R   0.500000 0.316760 0.385350 -0.625163
O3    O     O_R   0.377150 0.500020 0.614720 -0.574470
O4    O     O_R   0.377140 0.499990 0.385380 -0.617000
O5    O     O_R   0.500000 0.683240 0.614650 -0.619967
O6    O     O_R   0.499990 0.683210 0.385310 -0.622629
O7    O     O_R   0.622860 0.500010 0.614620 -0.624559
O8    O     O_R   0.622850 0.499980 0.385280 -0.618591
Zn1   Zn    Zn3+2 0.500010 0.500020 0.653130 0.956025
Zn2   Zn    Zn3+2 0.499990 0.499980 0.346870 0.939799
C31   C     C_3   0.091350 0.464250 0.770417 -0.359341
C32   C     C_3   0.100129 0.600864 0.813505 -0.868653
H19   H     H_    0.152265 0.647977 0.756052 0.260126
H20   H     H_    0.040656 0.653639 0.801744 0.236422
H21   H     H_    0.117904 0.603483 0.922349 0.241081
H22   H     H_    0.060335 0.409887 0.853326 0.205274
H23   H     H_    0.156889 0.427804 0.766354 0.244482
C33   C     C_3   0.900544 0.450181 0.762537 -0.379501
C34   C     C_3   0.887649 0.327217 0.841661 -0.921389
H24   H     H_    0.842097 0.265908 0.787238 0.261402
H25   H     H_    0.948236 0.276377 0.853850 0.253178
H26   H     H_    0.861142 0.346378 0.943665 0.260533
H27   H     H_    0.933406 0.518568 0.827392 0.223599
H28   H     H_    0.836506 0.489997 0.748225 0.214957
C35   C     C_3   0.907710 0.759633 0.450811 -0.407493
C36   C     C_3   0.842815 0.825345 0.540839 -0.922724
H29   H     H_    0.793787 0.758241 0.578667 0.266344
H30   H     H_    0.875040 0.868964 0.628729 0.253532
H31   H     H_    0.810840 0.900086 0.481504 0.258298
H32   H     H_    0.954887 0.831694 0.417294 0.206200
H33   H     H_    0.874081 0.727762 0.359461 0.232481
O9    O     O_3   0.306595 0.349590 0.860290 -0.586755
C37   C     C_3   0.282694 0.232776 0.806322 -0.371970
H34   H     H_    0.295364 0.153572 0.877707 0.157954
H35   H     H_    0.315285 0.218712 0.707593 0.179578
H36   H     H_    0.213460 0.232046 0.786992 0.168962
C38   C     C_3   0.295992 0.341503 0.146964 -0.259816
C39   C     C_3   0.288680 0.246133 0.263051 -0.926072
H37   H     H_    0.296198 0.149882 0.223623 0.252688
H38   H     H_    0.337898 0.263381 0.340744 0.280872
H39   H     H_    0.225242 0.253135 0.311882 0.239033
H40   H     H_    0.282297 0.436194 0.186421 0.216193
H41   H     H_    0.244296 0.319002 0.075104 0.237894
C40   C     C_3   0.930078 0.519192 0.227768 -0.371415
C41   C     C_3   0.836363 0.510868 0.187831 -0.894220
H42   H     H_    0.810631 0.415148 0.206839 0.263242
H43   H     H_    0.797763 0.580200 0.242521 0.265656
H44   H     H_    0.830056 0.533026 0.078046 0.239935
H45   H     H_    0.953122 0.617387 0.222751 0.202732
H46   H     H_    0.965282 0.469721 0.146512 0.207998

loop_
_geom_bond_atom_site_label_1
_geom_bond_atom_site_label_2
_ccdc_geom_bond_type
C38   C39   S    
O5    Zn1   S    
C18   C21   A    
C24   H12   S    
C41   H42   S    
C36   H31   S    
C3    C6    S    
O3    Zn1   S    
C41   H44   S    
C7    C8    T    
O4    Zn2   S    
C5    H17   S    
N1    Zn2   S    
C18   C24   S    
N2    Zn1   S    
C22   O9    S    
C3    C28   S    
C26   C31   S    
C36   H30   S    
C2    C33   S    
C16   H5    S    
C4    H18   S    
C20   H10   S    
C26   H9    S    
O7    Zn1   S    
C22   H11   S    
C33   H28   S    
C15   C16   S    
C28   C40   S    
C34   H25   S    
C31   H23   S    
C4    C35   S    
C32   H20   S    
O2    Zn2   S    
C16   H4    S    
C27   H14   S    
C19   C20   A    
C16   C17   S    
C20   N2    A    
C17   H6    S    
C35   H32   S    
C12   O3    A    
C7    C30   S    
C13   C14   A    
C27   C30   S    
C34   H24   S    
C25   O7    A    
C31   H22   S    
C21   N2    A    
C1    O2    A    
C25   C29   S    
C28   H15   S    
C23   O6    A    
C36   H29   S    
C33   C34   S    
C33   H27   S    
O6    Zn2   S    
C2    H1    S    
C14   C23   S    
C34   H26   S    
C35   C36   S    
C13   H3    S    
C32   H19   S    
C19   H8    S    
C19   N1    A    
C37   H34   S    
C39   H39   S    
C40   H46   S    
C8    C12   S    
C6    C29   T    
C40   C41   S    
C2    C26   S    
C17   H7    S    
C1    O1    A    
C9    C17   S    
C37   H35   S    
C39   H38   S    
C11   H2    S    
C26   C30   S    
C22   C24   S    
O1    Zn1   S    
C25   O8    A    
C3    C4    S    
C38   H40   S    
C5    C30   S    
C9    C10   A    
C32   H21   S    
C35   H33   S    
C1    C10   S    
C4    C5    S    
C41   H43   S    
C23   O5    A    
C5    H16   S    
C2    C3    S    
C9    C15   A    
C11   C13   A    
C40   H45   S    
C38   H41   S    
C31   C32   S    
C24   C38   S    
C10   C11   A    
C27   H13   S    
C37   H36   S    
C39   H37   S    
O9    C37   S    
C27   C28   S    
C14   C15   A    
C21   C22   S    
O8    Zn2   S    
C12   O4    A    
C18   N1    A    
