data_mof_unit_67083.cif
_audit_creation_date              2012-12-11T17:41:24-0500
_audit_creation_method            fapswitch 2.2
_symmetry_space_group_name_H-M    P1
_symmetry_Int_Tables_number       1
_space_group_crystal_system       triclinic
_cell_length_a                    8.181915
_cell_length_b                    12.661812
_cell_length_c                    14.197899
_cell_angle_alpha                 92.692932
_cell_angle_beta                  90.721326
_cell_angle_gamma                 98.326727
_cell_volume                      1453.47958913

loop_
_atom_site_label
_atom_site_type_symbol
_atom_type_description
_atom_site_fract_x
_atom_site_fract_y
_atom_site_fract_z
_atom_type_partial_charge
Ba1   Ba    Ba6+2 0.855630 0.555280 0.454520 1.638879
Ba2   Ba    Ba6+2 0.334200 0.444810 0.545490 1.641015
Br1   Br    Br    0.973488 0.173925 0.002788 -0.698421
C1    C     C_3   0.602043 0.948216 0.177528 -0.395049
C2    C     C_R   0.183008 0.498924 0.195931 0.040475
C3    C     C_R   0.338437 0.550378 0.225958 -0.296123
C4    C     C_3   0.142777 0.805161 0.194420 0.357192
C5    C     C_R   0.450968 0.597751 0.162291 0.019153
C6    C     C_R   0.405820 0.601052 0.067469 -0.148398
C7    C     C_R   0.248434 0.552933 0.034762 -0.003192
C8    C     C_R   0.136684 0.498366 0.098242 -0.022776
C9    C     C_R   0.051908 0.503567 0.902088 -0.024916
C10   C     C_R   0.939696 0.449734 0.965707 0.023331
C11   C     C_R   0.007168 0.500504 0.804023 0.051783
C12   C     C_3   0.647331 0.857246 0.234125 0.329595
C13   C     C_R   0.853543 0.446130 0.773632 -0.293426
C14   C     C_R   0.739245 0.401226 0.837620 0.002980
C15   C     C_R   0.782618 0.400984 0.932952 -0.100741
C16   C     C_3   0.127460 0.843233 0.095051 -0.346347
C17   C     C_R   0.204117 0.557162 0.938853 -0.037552
C18   C     C_R   0.760238 0.176813 0.538965 -0.272529
C19   C     C_R   0.429071 0.813120 0.460789 -0.286092
C20   C     C_R   0.405315 0.994903 0.427235 -0.104576
C21   C     C_R   0.340684 0.887372 0.422359 -0.009539
C22   C     C_R   0.575661 0.846220 0.512304 0.067446
C23   C     C_3   0.475009 0.309529 0.257544 0.292195
C24   C     C_R   0.639309 0.956933 0.522652 -0.057076
C25   C     C_R   0.553769 0.031571 0.477571 -0.063859
C26   C     C_R   0.617182 0.141372 0.485799 0.041905
C27   C     C_R   0.849067 0.104719 0.579635 -0.013472
C28   C     C_3   0.224565 0.762930 0.655394 0.276794
C29   C     C_R   0.786982 0.995669 0.574395 -0.093299
C30   C     C_3   0.228181 0.882109 0.674426 -0.344119
C31   C     C_3   0.968948 0.237136 0.344851 0.294846
C32   C     C_3   0.952385 0.117485 0.323336 -0.323644
C33   C     C_3   0.714809 0.673438 0.738414 0.306082
C34   C     C_3   0.455420 0.286926 0.151488 -0.366398
C35   C     C_3   0.731995 0.697761 0.844401 -0.390892
C36   C     C_3   0.048224 0.164841 0.805855 0.309187
C37   C     C_3   0.071167 0.107504 0.896174 0.028929
C38   C     C_3   0.543469 0.142886 0.765017 0.350246
C39   C     C_3   0.578773 0.047857 0.819629 -0.405037
C40   C     C_R   0.983667 0.446047 0.061673 0.028123
H1    H     H_    0.739120 0.890078 0.290178 0.079199
H2    H     H_    0.831981 0.651156 0.711764 0.010705
H3    H     H_    0.613221 0.606073 0.724700 0.063830
H4    H     H_    0.552334 0.007630 0.224975 0.101973
H5    H     H_    0.839099 0.760952 0.860323 0.127623
H6    H     H_    0.751137 0.625200 0.881218 0.055801
H7    H     H_    0.618000 0.725746 0.871342 0.120737
H8    H     H_    0.533537 0.820249 0.268651 -0.049875
H9    H     H_    0.506726 0.916506 0.123105 0.113603
H10   H     H_    0.357221 0.330865 0.285034 0.018370
H11   H     H_    0.575474 0.377783 0.270953 0.058839
H12   H     H_    0.310180 0.909539 0.735886 0.113540
H13   H     H_    0.351239 0.221622 0.135733 0.164540
H14   H     H_    0.429822 0.359594 0.116663 0.067277
H15   H     H_    0.570736 0.262709 0.122626 0.138384
H16   H     H_    0.712479 0.987948 0.141662 0.167889
H17   H     H_    0.166927 0.784011 0.043186 0.057633
H18   H     H_    0.111553 0.248665 0.814227 0.095636
H19   H     H_    0.914327 0.164479 0.793273 -0.037528
H20   H     H_    0.204760 0.108880 0.911782 0.129738
H21   H     H_    0.011599 0.022934 0.887290 0.084065
H22   H     H_    0.661501 0.179601 0.734619 -0.064837
H23   H     H_    0.274484 0.926419 0.612505 0.085578
H24   H     H_    0.455346 0.114263 0.705995 0.080264
H25   H     H_    0.674104 0.074533 0.875287 0.161902
H26   H     H_    0.624208 0.987565 0.771168 0.085890
H27   H     H_    0.060593 0.727798 0.198979 0.090348
H28   H     H_    0.465110 0.010856 0.854166 0.125310
H29   H     H_    0.375083 0.549675 0.299399 0.071500
H30   H     H_    0.493956 0.640241 0.019356 0.069646
H31   H     H_    0.693605 0.363293 0.981372 0.083517
H32   H     H_    0.818639 0.444120 0.699734 0.068816
H33   H     H_    0.896871 0.401304 0.106886 0.116799
H34   H     H_    0.101791 0.899157 0.690021 0.137281
H35   H     H_    0.290905 0.601784 0.893531 0.095802
H36   H     H_    0.334651 0.048764 0.393736 0.106239
H37   H     H_    0.857875 0.942846 0.608850 0.102045
H38   H     H_    0.809261 0.261050 0.543085 0.062243
H39   H     H_    0.272626 0.792957 0.206878 -0.072484
H40   H     H_    0.378215 0.729240 0.455425 0.070594
H41   H     H_    0.997363 0.852581 0.078936 0.163496
H42   H     H_    0.206751 0.921372 0.088383 0.125151
H43   H     H_    0.349978 0.746378 0.639145 0.005399
H44   H     H_    0.140031 0.738081 0.594102 0.078937
H45   H     H_    0.849077 0.258636 0.366967 -0.007914
H46   H     H_    0.061340 0.258224 0.402869 0.077069
H47   H     H_    0.860197 0.094169 0.265642 0.129236
H48   H     H_    0.911587 0.073595 0.386432 0.074816
H49   H     H_    0.073292 0.095500 0.301344 0.148061
O1    O     O_2   0.887370 0.460630 0.272300 -0.471373
O2    O     O_2   0.181000 0.111890 0.554935 -0.475852
O3    O     O_3   0.118079 0.110240 0.731954 -0.623033
O4    O     O_3   0.129410 0.451380 0.388510 -0.499213
O5    O     O_3   0.575400 0.626570 0.547370 -0.491274
O6    O     O_2   0.344320 0.238700 0.455090 -0.463370
O7    O     O_3   0.513901 0.217836 0.299226 -0.647400
O8    O     O_2   0.398543 0.406872 0.835215 -0.482354
O9    O     O_3   0.472056 0.213397 0.826052 -0.583684
O10   O     O_3   0.670210 0.653170 0.329170 -0.476424
O11   O     O_2   0.790449 0.592257 0.164879 -0.503546
O12   O     O_3   0.680218 0.765191 0.695802 -0.643288
O13   O     O_3   0.016726 0.289033 0.262789 -0.606973
O14   O     O_3   0.717987 0.785990 0.173404 -0.591129
O15   O     O_2   0.845380 0.761330 0.544970 -0.472448
O16   O     O_3   0.088930 0.704860 0.376040 -0.490807
O17   O     O_2   0.002089 0.889276 0.434739 -0.482491
O18   O     O_3   0.096192 0.881897 0.259515 -0.597749
O19   O     O_2   0.302330 0.539400 0.727760 -0.468293
O20   O     O_3   0.060300 0.548700 0.611500 -0.496890
O21   O     O_3   0.519500 0.346920 0.670840 -0.474815
O22   O     O_3   0.171930 0.711139 0.736821 -0.641353
O23   O     O_3   0.614310 0.373510 0.452640 -0.480341
O24   O     O_3   0.100780 0.295230 0.623970 -0.478257
P1    P     P_3+3 0.054400 0.427280 0.286870 0.985099
P2    P     P_3+3 0.668300 0.742890 0.573060 0.968815
P3    P     P_3+3 0.132290 0.842881 0.373754 0.950131
P4    P     P_3+3 0.135310 0.572810 0.713130 0.971947
P5    P     P_3+3 0.059596 0.155366 0.623789 0.944685
P6    P     P_3+3 0.657639 0.654965 0.206453 0.955842
P7    P     P_3+3 0.526546 0.241619 0.421729 0.934630
P8    P     P_3+3 0.531961 0.344617 0.793515 0.975838

loop_
_geom_bond_atom_site_label_1
_geom_bond_atom_site_label_2
_ccdc_geom_bond_type
C30   H12   S    
C13   H32   S    
C38   C39   S    
O13   P1    S    
C22   P2    S    
C4    H27   S    
C38   H24   S    
C35   H6    S    
C3    H29   S    
Ba2   O20   S    
C37   H20   S    
C6    H30   S    
C10   C15   A    
C1    H9    S    
C12   O14   S    
C25   C26   A    
C12   H1    S    
C2    C8    A    
Ba1   O20   S    
C2    C3    A    
C31   C32   S    
Ba2   O21   S    
Ba1   Ba2   S    
O5    P2    S    
C30   H34   S    
C34   H13   S    
Ba2   O24   S    
Ba2   O5    S    
C7    C17   A    
C5    C6    A    
C19   C22   A    
C20   C21   A    
C28   C30   S    
C33   H3    S    
C12   H8    S    
C6    C7    A    
O15   P2    D    
C35   H5    S    
C34   H15   S    
C23   O7    S    
C32   H49   S    
O3    P5    S    
C15   H31   S    
C28   H43   S    
C39   H25   S    
O16   P3    S    
O14   P6    S    
O1    P1    D    
C23   H11   S    
C30   H23   S    
O12   P2    S    
O6    P7    D    
C36   H18   S    
Ba2   O19   S    
O9    P8    S    
C28   H44   S    
O24   P5    S    
O4    P1    S    
O23   P7    S    
Ba1   O5    S    
C36   C37   S    
O20   P4    S    
Ba2   P4    S    
C13   C14   A    
C38   H22   S    
C18   C26   A    
C39   H26   S    
C2    P1    S    
O19   P4    D    
O8    P8    D    
O2    P5    D    
C29   H37   S    
Ba2   O23   S    
C14   P8    S    
C27   P5    S    
C9    C17   A    
C14   C15   A    
C33   H2    S    
C31   H45   S    
C20   C25   A    
C8    C40   A    
C36   O3    S    
Ba1   O15   S    
C18   H38   S    
Br1   C37   S    
C11   P4    S    
C11   C13   A    
C16   H41   S    
C23   H10   S    
C10   C40   A    
O17   P3    D    
O7    P7    S    
C40   H33   S    
C36   H19   S    
C21   P3    S    
C28   O22   S    
C24   C29   A    
C31   O13   S    
C9    C11   A    
C16   H42   S    
O18   P3    S    
C3    C5    A    
C23   C34   S    
C35   H7    S    
C16   H17   S    
C22   C24   A    
C18   C27   A    
C4    C16   S    
C37   H21   S    
C4    O18   S    
C17   H35   S    
C33   O12   S    
C19   H40   S    
C1    C12   S    
Ba2   O4    S    
C31   H46   S    
O10   P6    S    
C27   C29   A    
C5    P6    S    
O21   P8    S    
Ba1   O4    S    
C26   P7    S    
C1    H16   S    
C33   C35   S    
C39   H28   S    
C38   O9    S    
C19   C21   A    
Ba1   P2    S    
O22   P4    S    
C7    C8    A    
Ba1   O16   S    
C32   H47   S    
C4    H39   S    
C9    C10   A    
Ba2   O6    S    
Ba1   O1    S    
C24   C25   A    
Ba1   O23   S    
C20   H36   S    
Ba1   P1    S    
O11   P6    D    
Ba1   O10   S    
C34   H14   S    
C1    H4    S    
C32   H48   S    
