data_mof_unit_15961.cif
_audit_creation_date              2012-12-10T18:30:23-0500
_audit_creation_method            fapswitch 2.2
_symmetry_space_group_name_H-M    P1
_symmetry_Int_Tables_number       1
_space_group_crystal_system       triclinic
_cell_length_a                    15.094858
_cell_length_b                    14.164972
_cell_length_c                    15.492683
_cell_angle_alpha                 90.608935
_cell_angle_beta                  81.667869
_cell_angle_gamma                 104.559062
_cell_volume                      3171.25245351

loop_
_atom_site_label
_atom_site_type_symbol
_atom_type_description
_atom_site_fract_x
_atom_site_fract_y
_atom_site_fract_z
_atom_type_partial_charge
C1    C     C_R   0.558309 0.515943 0.337923 0.905996
C2    C     C_R   0.441598 0.487890 0.662129 0.898927
C3    C     C_R   0.554742 0.555082 0.100664 -0.002535
C4    C     C_R   0.443013 0.524228 0.900846 0.003315
C5    C     C_R   0.649674 0.597375 0.068110 -0.111318
C6    C     C_R   0.347050 0.508795 0.934246 -0.111780
C7    C     C_R   0.485605 0.543730 0.046041 0.043228
C8    C     C_R   0.511905 0.552321 0.955712 0.031914
C9    C     C_R   0.606352 0.590314 0.922449 -0.302215
C10   C     C_R   0.390900 0.526345 0.079888 -0.307911
C11   C     C_R   0.674938 0.610828 0.976622 0.539885
C12   C     C_R   0.321832 0.506911 0.026108 0.536770
C13   C     C_R   0.155297 0.358346 0.363669 -0.372048
C14   C     C_R   0.831318 0.611806 0.658601 -0.383095
C15   C     C_R   0.242617 0.377087 0.387931 0.472826
C16   C     C_R   0.754169 0.612606 0.619810 0.479858
C17   C     C_R   0.205352 0.495825 0.488151 0.513147
C18   C     C_R   0.792409 0.501808 0.512586 0.512490
C19   C     C_R   0.109555 0.460043 0.479269 -0.112782
C20   C     C_R   0.875273 0.503390 0.547828 -0.112323
C21   C     C_R   0.087546 0.393592 0.412246 0.047814
C22   C     C_R   0.892614 0.559297 0.622450 0.031256
C23   C     C_R   0.498268 0.329205 0.499711 0.884119
C24   C     C_R   0.501710 0.670785 0.500359 0.882568
C25   C     C_R   0.035087 0.486635 0.532612 0.088810
C26   C     C_R   0.944366 0.458227 0.508650 0.096792
C27   C     C_R   0.925657 0.384754 0.447581 -0.176754
C28   C     C_R   0.046005 0.534888 0.611595 -0.150272
C29   C     C_R   0.996519 0.354828 0.398562 -0.145014
C30   C     C_R   0.974955 0.569257 0.656638 -0.158434
C31   C     C_1   0.495297 0.226764 0.498962 -0.131534
C32   C     C_1   0.504620 0.773186 0.501166 -0.143612
C33   C     C_1   0.495745 0.141531 0.499043 0.026663
C34   C     C_1   0.504008 0.858364 0.501095 0.014310
C35   C     C_1   0.498388 0.042191 0.499709 0.037924
C36   C     C_1   0.501224 0.957654 0.500428 0.036227
C37   C     C_R   0.593336 0.540168 0.245451 -0.135180
C38   C     C_R   0.405956 0.490021 0.755038 -0.139743
C39   C     C_R   0.713813 0.622508 0.129301 0.470290
C40   C     C_R   0.281877 0.494016 0.873506 0.469524
C41   C     C_R   0.683515 0.594514 0.217303 -0.289001
C42   C     C_R   0.313023 0.485167 0.784678 -0.254607
C43   C     C_R   0.530600 0.520037 0.186694 -0.194153
C44   C     C_R   0.468831 0.506355 0.813543 -0.165755
H1    H     H_    0.856316 0.347205 0.438234 0.210199
H2    H     H_    0.107947 0.544922 0.641081 0.236801
H3    H     H_    0.538877 0.503077 0.790187 0.176249
H4    H     H_    0.461962 0.475325 0.208772 0.206383
H5    H     H_    0.264815 0.475108 0.738008 0.230589
H6    H     H_    0.729463 0.617904 0.264657 0.201782
H7    H     H_    0.629077 0.608386 0.853913 0.206833
H8    H     H_    0.368622 0.531676 0.148842 0.161268
H9    H     H_    0.979634 0.299360 0.350572 0.161248
H10   H     H_    0.986676 0.608996 0.715862 0.164509
H11   H     H_    0.135774 0.305300 0.314505 0.207464
H12   H     H_    0.848331 0.658883 0.712557 0.223539
N1    N     N_R   0.268300 0.449640 0.447270 -0.186509
N2    N     N_R   0.731700 0.550360 0.552730 -0.185908
O1    O     O_R   0.616880 0.525390 0.394380 -0.590804
O2    O     O_R   0.383120 0.474610 0.605620 -0.591060
O3    O     O_R   0.468100 0.493070 0.360490 -0.576704
O4    O     O_R   0.531900 0.506930 0.639510 -0.582114
O5    O     O_R   0.574410 0.389880 0.516950 -0.587535
O6    O     O_R   0.425590 0.610120 0.483050 -0.586035
O7    O     O_R   0.425630 0.357560 0.483060 -0.516598
O8    O     O_R   0.574370 0.642440 0.516940 -0.519768
Zn1   Zn    Zn3+2 0.599340 0.521580 0.522630 1.039246
Zn2   Zn    Zn3+2 0.400660 0.478420 0.477370 1.042995
O9    O     O_3   0.766256 0.642447 0.938388 -0.523048
C45   C     C_3   0.795064 0.562706 0.898827 -0.174061
H13   H     H_    0.758522 0.536622 0.842379 0.118415
H14   H     H_    0.785262 0.501585 0.946775 0.161171
H15   H     H_    0.870043 0.587009 0.873648 0.206001
O10   O     O_3   0.230286 0.487062 0.064625 -0.542043
C46   C     C_3   0.206156 0.396638 0.110964 -0.144559
H16   H     H_    0.238793 0.401930 0.171254 0.137067
H17   H     H_    0.224220 0.337548 0.069437 0.164605
H18   H     H_    0.130146 0.375811 0.131447 0.207422
S1    S     S_3+6 0.828502 0.697088 0.103927 0.066296
O11   O     O_2   0.889688 0.638279 0.056808 -0.260099
O12   O     O_2   0.829407 0.783175 0.047567 -0.208789
O13   O     O_3   0.870539 0.738527 0.195845 -0.579448
H19   H     H_    0.935195 0.775621 0.176121 0.399319
S2    S     S_3+6 0.163336 0.494070 0.901028 0.066931
O14   O     O_2   0.111143 0.400412 0.948964 -0.270983
O15   O     O_2   0.154549 0.579230 0.957430 -0.211089
O16   O     O_3   0.116279 0.503223 0.810458 -0.592610
H20   H     H_    0.050901 0.502219 0.831719 0.380376
O17   O     O_3   0.775743 0.461850 0.433211 -0.612153
C47   C     C_3   0.825034 0.530693 0.366942 -0.223519
H21   H     H_    0.901073 0.542631 0.363703 0.162275
H22   H     H_    0.806957 0.601996 0.376244 0.179884
H23   H     H_    0.807105 0.501775 0.303207 0.201170
O18   O     O_3   0.236939 0.575043 0.537984 -0.599411
C48   C     C_3   0.240599 0.660743 0.490462 -0.262290
H24   H     H_    0.170259 0.666454 0.481812 0.161318
H25   H     H_    0.284754 0.665067 0.425718 0.165075
H26   H     H_    0.271921 0.724676 0.527771 0.200605
S3    S     S_3+6 0.706274 0.714224 0.644239 0.050295
O19   O     O_2   0.758930 0.779031 0.707120 -0.274372
O20   O     O_2   0.716066 0.772576 0.561393 -0.282762
O21   O     O_3   0.594779 0.681513 0.689641 -0.565851
H27   H     H_    0.574686 0.743013 0.693983 0.376782
S4    S     S_3+6 0.300357 0.283007 0.357249 0.040989
O22   O     O_2   0.292290 0.219823 0.436781 -0.280344
O23   O     O_2   0.252694 0.219479 0.290616 -0.314165
O24   O     O_3   0.411791 0.322244 0.313386 -0.567210
H28   H     H_    0.435208 0.262798 0.307224 0.372153

loop_
_geom_bond_atom_site_label_1
_geom_bond_atom_site_label_2
_ccdc_geom_bond_type
C7    C10   A    
C14   H12   S    
O16   H20   S    
C12   O10   S    
C27   C29   A    
C40   S2    S    
C35   C36   T    
C9    H7    S    
S2    O16   S    
C4    C8    A    
C10   H8    S    
S4    O23   D    
C48   H26   S    
C7    C8    A    
C39   C41   A    
C25   C28   A    
C30   H10   S    
C3    C43   A    
C26   C27   A    
C29   H9    S    
O4    Zn1   S    
O6    Zn2   S    
C19   C21   A    
S2    O15   D    
C5    C11   A    
C3    C7    A    
C1    O1    A    
C6    C12   A    
C33   C35   S    
C2    O2    A    
C23   O5    A    
C39   S1    S    
O1    Zn1   S    
C18   N2    A    
C48   H24   S    
C8    C9    A    
O24   H28   S    
C31   C33   T    
C45   H13   S    
C15   S4    S    
C43   H4    S    
C18   C20   A    
C44   H3    S    
C1    C37   S    
C27   H1    S    
C40   C42   A    
O8    Zn1   S    
C24   O6    A    
C15   N1    A    
O9    C45   S    
S4    O22   D    
O5    Zn1   S    
O10   C46   S    
C6    C40   A    
S2    O14   D    
C4    C6    A    
S1    O12   D    
C4    C44   A    
C25   C26   A    
C21   C29   A    
C23   C31   S    
C37   C43   A    
C46   H16   S    
C24   C32   S    
C38   C44   A    
C46   H17   S    
C2    C38   S    
C47   H22   S    
S3    O19   D    
O7    Zn2   S    
C28   H2    S    
C45   H15   S    
C11   O9    S    
C13   C21   A    
O18   C48   S    
C16   N2    A    
C9    C11   A    
C10   C12   A    
S3    O20   D    
C20   C22   A    
C13   C15   A    
C14   C16   A    
N1    Zn2   S    
C41   H6    S    
C47   H23   S    
C22   C30   A    
C18   O17   S    
C3    C5    A    
C1    O3    A    
S1    O13   S    
C48   H25   S    
C16   S3    S    
C38   C42   A    
C24   O8    A    
C14   C22   A    
C5    C39   A    
O3    Zn2   S    
C23   O7    A    
C47   H21   S    
C20   C26   A    
C28   C30   A    
C17   C19   A    
C34   C36   S    
C37   C41   A    
O21   H27   S    
C19   C25   A    
C46   H18   S    
C42   H5    S    
S1    O11   D    
N2    Zn1   S    
S3    O21   S    
O2    Zn2   S    
O13   H19   S    
C17   N1    A    
C45   H14   S    
C17   O18   S    
O17   C47   S    
S4    O24   S    
C2    O4    A    
C32   C34   T    
C13   H11   S    
