data_mof_unit_60101.cif
_audit_creation_date              2012-12-10T17:03:24-0500
_audit_creation_method            fapswitch 2.2
_symmetry_space_group_name_H-M    P1
_symmetry_Int_Tables_number       1
_space_group_crystal_system       triclinic
_cell_length_a                    15.114386
_cell_length_b                    15.106254
_cell_length_c                    17.788447
_cell_angle_alpha                 97.680323
_cell_angle_beta                  81.243165
_cell_angle_gamma                 90.092189
_cell_volume                      3977.40782403

loop_
_atom_site_label
_atom_site_type_symbol
_atom_type_description
_atom_site_fract_x
_atom_site_fract_y
_atom_site_fract_z
_atom_type_partial_charge
C1    C     C_R   0.262070 0.484561 0.488221 0.585769
C2    C     C_R   0.553733 0.394581 0.926554 0.466222
C3    C     C_R   0.604387 0.353859 0.971820 0.471451
C4    C     C_R   0.737315 0.516886 0.511822 0.573243
C5    C     C_R   0.592363 0.378999 0.051484 -0.130805
C6    C     C_R   0.523220 0.441655 0.086482 -0.091137
C7    C     C_R   0.646939 0.341666 0.097199 0.467259
C8    C     C_R   0.634221 0.367105 0.176342 0.360159
C9    C     C_R   0.518416 0.473226 0.165388 0.372224
C10   C     C_R   0.167474 0.482933 0.479306 -0.033068
C11   C     C_R   0.831719 0.524166 0.518629 -0.032318
C12   C     C_R   0.333463 0.586463 0.823742 0.354388
C13   C     C_R   0.947303 0.544536 0.599429 0.454312
C14   C     C_R   0.857289 0.548991 0.591117 0.213936
C15   C     C_R   0.895963 0.499525 0.453953 0.377797
C16   C     C_R   0.509532 0.262107 0.513274 0.544862
C17   C     C_R   0.986711 0.494517 0.461732 -0.111310
C18   C     C_R   0.012551 0.516965 0.535287 -0.114753
C19   C     C_R   0.103054 0.511563 0.543207 0.376524
C20   C     C_R   0.141782 0.457476 0.406741 0.206020
C21   C     C_R   0.051909 0.465901 0.397860 0.445312
C22   C     C_R   0.507211 0.167320 0.522783 -0.039705
C23   C     C_R   0.475766 0.522930 0.839278 0.265135
C24   C     C_R   0.484843 0.832125 0.481106 -0.028134
C25   C     C_R   0.490938 0.950385 0.401570 0.402394
C26   C     C_R   0.488062 0.859961 0.408899 -0.117895
C27   C     C_R   0.485147 0.894352 0.546671 0.405480
C28   C     C_R   0.488555 0.737425 0.486844 0.546619
C29   C     C_R   0.491950 0.985605 0.539719 -0.035673
C30   C     C_R   0.493873 0.013648 0.466493 -0.074248
C31   C     C_R   0.499477 0.104325 0.459180 -0.135484
C32   C     C_R   0.510034 0.139483 0.595053 0.259296
C33   C     C_R   0.498901 0.049200 0.603755 0.438553
C34   C     C_R   0.440011 0.508983 0.915118 -0.077659
C35   C     C_R   0.551093 0.454064 0.293115 0.630012
C36   C     C_R   0.449174 0.544422 0.707792 0.558662
C37   C     C_R   0.419734 0.553471 0.791627 -0.011669
C38   C     C_R   0.570775 0.433375 0.210050 -0.008337
C39   C     C_R   0.303102 0.588667 0.902265 0.296489
C40   C     C_3   0.205699 0.340888 0.321941 0.011851
C41   C     C_3   0.778062 0.666210 0.662420 -0.061936
C42   C     C_3   0.603727 0.199800 0.675499 0.021663
C43   C     C_3   0.225509 0.717381 0.949297 0.021696
C44   C     C_3   0.611130 0.588323 0.837202 -0.063307
C45   C     C_R   0.355049 0.547776 0.948195 -0.117580
C46   C     C_R   0.487951 0.460665 0.959900 -0.082220
C47   C     C_R   0.463644 0.472798 0.040740 -0.072035
C48   C     C_R   0.377245 0.508026 0.071945 0.500488
C49   C     C_R   0.323477 0.543609 0.026117 0.452346
F1    F     F_    0.240050 0.573694 0.059010 -0.501204
F2    F     F_    0.483920 0.864966 0.615833 -0.539315
F3    F     F_    0.684343 0.327649 0.220222 -0.529251
F4    F     F_    0.665653 0.289875 0.936853 -0.484772
F5    F     F_    0.277545 0.616537 0.779308 -0.525593
F6    F     F_    0.338609 0.497030 0.144071 -0.486202
F7    F     F_    0.561595 0.360081 0.851349 -0.540936
F8    F     F_    0.711625 0.279518 0.065943 -0.457209
F9    F     F_    0.129160 0.533112 0.613164 -0.487866
F10   F     F_    0.969772 0.566412 0.670603 -0.485877
F11   F     F_    0.029447 0.447581 0.326364 -0.485458
F12   F     F_    0.868823 0.475534 0.384724 -0.498632
F13   F     F_    0.493207 0.975720 0.330859 -0.578821
F14   F     F_    0.468667 0.546926 0.198734 -0.546397
F15   F     F_    0.494988 0.024598 0.674906 -0.520844
H1    H     H_    0.499141 0.126230 0.403595 0.224701
H2    H     H_    0.654124 0.209293 0.624707 0.105398
H3    H     H_    0.610740 0.255817 0.721108 0.240412
H4    H     H_    0.246567 0.748830 0.896469 0.161782
H5    H     H_    0.272327 0.735275 0.991365 0.127542
H6    H     H_    0.158561 0.745546 0.975840 0.191816
H7    H     H_    0.603528 0.601015 0.900969 0.121931
H8    H     H_    0.587382 0.647524 0.814201 0.100953
H9    H     H_    0.683622 0.578495 0.815232 0.206157
H10   H     H_    0.488372 0.811363 0.358179 0.185349
H11   H     H_    0.143329 0.319436 0.299310 0.190376
H12   H     H_    0.214788 0.304425 0.370760 0.104600
H13   H     H_    0.262734 0.321718 0.275446 0.182465
H14   H     H_    0.751124 0.685229 0.611819 0.104094
H15   H     H_    0.839887 0.703903 0.671062 0.176896
H16   H     H_    0.727073 0.686155 0.713675 0.144008
H17   H     H_    0.618453 0.136777 0.697492 0.184778
O1    O     O_3   0.500000 0.500000 0.500000 -0.511180
O2    O     O_R   0.491950 0.408270 0.329190 -0.516779
O3    O     O_R   0.405000 0.584780 0.666010 -0.460116
O4    O     O_R   0.590360 0.518280 0.328620 -0.486763
O5    O     O_R   0.512690 0.488670 0.676180 -0.480888
O6    O     O_3   0.205982 0.434321 0.342835 -0.471255
O7    O     O_3   0.793748 0.573248 0.655203 -0.508473
O8    O     O_3   0.515460 0.201524 0.658760 -0.496230
O9    O     O_3   0.218753 0.623957 0.932105 -0.425575
O10   O     O_3   0.566304 0.510610 0.812025 -0.463798
O11   O     O_R   0.549580 0.316560 0.557500 -0.504245
O12   O     O_R   0.428830 0.702690 0.532220 -0.483976
O13   O     O_R   0.316580 0.425590 0.448670 -0.530886
O14   O     O_R   0.705010 0.555150 0.461620 -0.494147
O15   O     O_R   0.290360 0.547900 0.533020 -0.464577
O16   O     O_R   0.688060 0.471350 0.556700 -0.508687
O17   O     O_R   0.468110 0.290360 0.462980 -0.546077
O18   O     O_R   0.553470 0.690390 0.447300 -0.545826
Zn1   Zn    Zn3+2 0.561520 0.445100 0.571350 1.031948
Zn2   Zn    Zn3+2 0.445110 0.407660 0.436320 1.012270
Zn3   Zn    Zn3+2 0.585720 0.564830 0.435510 1.042324
Zn4   Zn    Zn3+2 0.407650 0.582410 0.556820 1.087174

loop_
_geom_bond_atom_site_label_1
_geom_bond_atom_site_label_2
_ccdc_geom_bond_type
C48   F6    S    
C27   C29   A    
C3    F4    S    
C24   C27   A    
O12   Zn4   S    
C41   H16   S    
C7    C8    A    
C2    C46   A    
C22   C32   A    
C13   C18   A    
C40   O6    S    
C36   C37   S    
C24   C26   A    
C33   F15   S    
C30   C31   A    
C11   C14   A    
C20   O6    S    
C29   C33   A    
C44   H7    S    
C31   H1    S    
C18   C19   A    
C12   C37   A    
C11   C15   A    
C47   C48   A    
O13   Zn2   S    
C10   C20   A    
C43   H4    S    
O1    Zn4   S    
C34   C46   A    
O5    Zn1   S    
C8    F3    S    
C39   O9    S    
O14   Zn3   S    
C39   C45   A    
C43   H5    S    
C13   C14   A    
C42   H17   S    
C8    C38   A    
C6    C9    A    
C27   F2    S    
C19   F9    S    
C15   F12   S    
C43   O9    S    
C22   C31   A    
C35   C38   S    
C21   F11   S    
C6    C47   A    
C41   H14   S    
C5    C7    A    
C35   O2    A    
C1    O13   A    
C36   O5    A    
C25   C26   A    
C23   C37   A    
C17   C21   A    
C40   H12   S    
C28   O12   A    
C29   C30   A    
C4    O14   A    
C32   O8    S    
C45   C49   A    
C10   C19   A    
C23   C34   A    
C17   C18   A    
O1    Zn3   S    
C34   C45   A    
C4    C11   S    
C44   O10   S    
C28   O18   A    
C48   C49   A    
C16   O11   A    
C43   H6    S    
C42   H3    S    
C23   O10   S    
O16   Zn1   S    
O11   Zn1   S    
C25   C30   A    
C15   C17   A    
C41   O7    S    
C46   C47   A    
C16   C22   S    
O2    Zn2   S    
C9    F14   S    
O1    Zn1   S    
C1    C10   S    
C24   C28   S    
C3    C5    A    
C41   H15   S    
C13   F10   S    
O17   Zn2   S    
C40   H11   S    
C42   O8    S    
C32   C33   A    
C12   C39   A    
C2    C3    A    
C14   O7    S    
C2    F7    S    
C35   O4    A    
C16   O17   A    
C5    C6    A    
C36   O3    A    
C1    O15   A    
C9    C38   A    
C26   H10   S    
O1    Zn2   S    
C44   H8    S    
C25   F13   S    
C44   H9    S    
O18   Zn3   S    
C20   C21   A    
C49   F1    S    
O15   Zn4   S    
C42   H2    S    
O3    Zn4   S    
C40   H13   S    
C4    O16   A    
C7    F8    S    
C12   F5    S    
O4    Zn3   S    
