data_mof_unit_62885.cif
_audit_creation_date              2012-12-10T17:55:54-0500
_audit_creation_method            fapswitch 2.2
_symmetry_space_group_name_H-M    P1
_symmetry_Int_Tables_number       1
_space_group_crystal_system       triclinic
_cell_length_a                    18.30236
_cell_length_b                    18.336517
_cell_length_c                    26.04984
_cell_angle_alpha                 90.010116
_cell_angle_beta                  90.009472
_cell_angle_gamma                 90.000135
_cell_volume                      8742.36604205

loop_
_atom_site_label
_atom_site_type_symbol
_atom_type_description
_atom_site_fract_x
_atom_site_fract_y
_atom_site_fract_z
_atom_type_partial_charge
C1    C     C_R   0.139486 0.859256 0.249320 0.481139
C2    C     C_R   0.217838 0.772695 0.199167 0.013183
C3    C     C_2   0.303702 0.310768 0.650886 0.308256
C4    C     C_2   0.806189 0.191630 0.349813 0.273747
C5    C     C_2   0.907699 0.292670 0.755738 0.322272
C6    C     C_2   0.092300 0.292672 0.244291 0.322282
C7    C     C_2   0.193822 0.191567 0.650186 0.273638
C8    C     C_2   0.310276 0.695710 0.849163 0.317640
C9    C     C_2   0.290176 0.677521 0.150761 0.293319
C10   C     C_2   0.709773 0.677623 0.849248 0.294061
C11   C     C_2   0.694359 0.691001 0.150153 0.281002
C12   C     C_R   0.782159 0.772726 0.800834 0.013322
C13   C     C_R   0.775129 0.779359 0.199362 0.009752
C14   C     C_R   0.725121 0.279616 0.300600 0.012814
C15   C     C_R   0.774017 0.328246 0.756152 0.013019
C16   C     C_R   0.225983 0.328244 0.243850 0.012996
C17   C     C_R   0.274872 0.279596 0.699400 0.012820
C18   C     C_R   0.778614 0.223890 0.300901 0.008916
C19   C     C_R   0.828587 0.273522 0.754878 0.010733
C20   C     C_R   0.171412 0.273523 0.245135 0.010712
C21   C     C_R   0.139420 0.859192 0.750782 0.483712
C22   C     C_R   0.221389 0.223858 0.699099 0.008873
C23   C     C_R   0.279314 0.724790 0.800647 0.009540
C24   C     C_R   0.271015 0.716582 0.199106 0.015845
C25   C     C_R   0.728966 0.716630 0.800897 0.015953
C26   C     C_R   0.721679 0.723574 0.199052 0.003546
C27   C     C_R   0.800695 0.193121 0.253442 -0.000771
C28   C     C_R   0.807005 0.199378 0.753257 -0.004616
C29   C     C_R   0.192993 0.199380 0.246752 -0.004598
C30   C     C_R   0.199312 0.193110 0.746559 -0.000884
C31   C     C_R   0.301004 0.693580 0.753281 -0.001709
C32   C     C_R   0.860434 0.859292 0.249286 0.486415
C33   C     C_R   0.300964 0.693353 0.246561 0.002471
C34   C     C_R   0.699027 0.693365 0.753442 0.002668
C35   C     C_R   0.699376 0.693050 0.246535 -0.002132
C36   C     C_R   0.933822 0.999417 0.026785 -0.116009
C37   C     C_R   0.933827 0.999417 0.973199 -0.115392
C38   C     C_R   0.066170 0.999452 0.026801 -0.114955
C39   C     C_R   0.066175 0.999452 0.973216 -0.115590
C40   C     C_R   0.433823 0.499724 0.526786 -0.124240
C41   C     C_R   0.433830 0.499747 0.473202 -0.126631
C42   C     C_R   0.566170 0.499745 0.526798 -0.126612
C43   C     C_R   0.860518 0.859251 0.750679 0.481130
C44   C     C_R   0.566177 0.499721 0.473214 -0.124245
C45   C     C_R   0.000004 0.999575 0.945882 0.031646
C46   C     C_R   0.999994 0.999577 0.054118 0.031166
C47   C     C_R   0.500006 0.499800 0.445883 0.030378
C48   C     C_R   0.499994 0.499800 0.554117 0.030433
C49   C     C_R   0.859146 0.139354 0.250801 0.483162
C50   C     C_R   0.860556 0.140757 0.750649 0.481683
C51   C     C_R   0.139444 0.140759 0.249355 0.481661
C52   C     C_R   0.140855 0.139348 0.749200 0.483807
C53   C     C_R   0.359218 0.639474 0.750750 0.488276
C54   C     C_R   0.641118 0.360912 0.750843 0.490706
C55   C     C_R   0.358989 0.639163 0.248958 0.489658
C56   C     C_R   0.641009 0.639168 0.751043 0.489003
C57   C     C_R   0.640878 0.639327 0.249184 0.485415
C58   C     C_R   0.999996 0.999865 0.110784 0.501124
C59   C     C_R   0.000004 0.999863 0.889216 0.501318
C60   C     C_R   0.499995 0.499933 0.610783 0.501236
C61   C     C_R   0.500005 0.499932 0.389217 0.501331
C62   C     C_R   0.000427 0.999954 0.388585 0.509999
C63   C     C_R   0.999573 0.999945 0.611414 0.510104
C64   C     C_R   0.499545 0.499959 0.888584 0.515402
C65   C     C_R   0.639571 0.359293 0.250709 0.488307
C66   C     C_R   0.500456 0.499950 0.111415 0.515563
C67   C     C_2   0.001708 0.059830 0.528131 -0.141042
C68   C     C_2   0.998265 0.059837 0.471885 -0.141057
C69   C     C_2   0.498348 0.559859 0.028134 -0.129302
C70   C     C_2   0.501664 0.559867 0.971881 -0.129025
C71   C     C_2   0.996002 0.998691 0.556014 -0.095352
C72   C     C_2   0.004002 0.998707 0.443984 -0.095281
C73   C     C_2   0.504015 0.498710 0.056016 -0.085545
C74   C     C_2   0.495984 0.498726 0.943982 -0.086091
C75   C     C_R   0.767639 0.214256 0.207481 -0.134260
C76   C     C_R   0.360427 0.359297 0.749289 0.488285
C77   C     C_R   0.733203 0.180182 0.753345 -0.133206
C78   C     C_R   0.266795 0.180182 0.246651 -0.133246
C79   C     C_R   0.232364 0.214274 0.792520 -0.134885
C80   C     C_R   0.267567 0.714406 0.707426 -0.136714
C81   C     C_R   0.274049 0.720541 0.292908 -0.134493
C82   C     C_R   0.725961 0.720510 0.707093 -0.134362
C83   C     C_R   0.732251 0.714388 0.292519 -0.134944
C84   C     C_R   0.214428 0.767827 0.707477 -0.136646
C85   C     C_R   0.219938 0.773099 0.293016 -0.133582
C86   C     C_R   0.780080 0.773059 0.706984 -0.133565
C87   C     C_R   0.358882 0.360909 0.249153 0.490763
C88   C     C_R   0.785515 0.767687 0.292582 -0.138353
C89   C     C_R   0.714361 0.267541 0.207422 -0.137612
C90   C     C_R   0.680001 0.233642 0.752432 -0.135046
C91   C     C_R   0.319999 0.233641 0.247555 -0.135100
C92   C     C_R   0.285635 0.267567 0.792577 -0.137821
C93   C     C_R   0.193211 0.800779 0.753454 -0.002386
C94   C     C_R   0.193036 0.800627 0.246764 -0.003459
C95   C     C_R   0.806975 0.800617 0.753235 -0.003429
C96   C     C_R   0.806260 0.801157 0.246733 -0.001979
C97   C     C_R   0.693771 0.301184 0.253253 -0.002599
C98   C     C_R   0.223701 0.778423 0.800939 0.003661
C99   C     C_R   0.699648 0.307217 0.752638 0.001923
C100  C     C_R   0.300352 0.307215 0.247352 0.001862
C101  C     C_R   0.306220 0.301192 0.746745 -0.002528
C102  C     C_2   0.191219 0.805885 0.849823 0.279975
C103  C     C_2   0.187343 0.801984 0.150300 0.317958
C104  C     C_2   0.812657 0.802038 0.849700 0.317970
C105  C     C_2   0.804130 0.810421 0.150865 0.317460
C106  C     C_2   0.696280 0.310801 0.349114 0.308237
C107  C     C_2   0.793575 0.405905 0.766016 0.288484
C108  C     C_2   0.206424 0.405898 0.233985 0.288450
H1    H     H_    0.008035 0.112352 0.546926 0.184127
H2    H     H_    0.716725 0.123419 0.752392 0.142036
H3    H     H_    0.283272 0.123419 0.247599 0.141990
H4    H     H_    0.215801 0.190372 0.828746 0.146470
H5    H     H_    0.284024 0.690479 0.671178 0.143648
H6    H     H_    0.295799 0.701615 0.329246 0.136230
H7    H     H_    0.704219 0.701557 0.670755 0.136250
H8    H     H_    0.715543 0.690625 0.328759 0.143725
H9    H     H_    0.190669 0.784568 0.671232 0.142612
H10   H     H_    0.200602 0.794186 0.329437 0.137789
H11   H     H_    0.799427 0.794116 0.670562 0.137792
H12   H     H_    0.991910 0.112358 0.453106 0.184113
H13   H     H_    0.809405 0.784211 0.328837 0.142515
H14   H     H_    0.690324 0.283904 0.171183 0.146278
H15   H     H_    0.623064 0.217517 0.750893 0.137450
H16   H     H_    0.376936 0.217515 0.249087 0.137485
H17   H     H_    0.309671 0.283951 0.828816 0.146068
H18   H     H_    0.881941 0.999355 0.046773 0.163674
H19   H     H_    0.881949 0.999356 0.953197 0.161015
H20   H     H_    0.118049 0.999420 0.046803 0.160733
H21   H     H_    0.118055 0.999419 0.953228 0.161001
H22   H     H_    0.381942 0.499680 0.546775 0.159968
H23   H     H_    0.492116 0.612387 0.046935 0.181193
H24   H     H_    0.381951 0.499747 0.453203 0.150467
H25   H     H_    0.618048 0.499742 0.546797 0.150486
H26   H     H_    0.618058 0.499675 0.453225 0.159981
H27   H     H_    0.133175 0.817742 0.851660 0.100172
H28   H     H_    0.130493 0.818536 0.148215 0.104227
H29   H     H_    0.869512 0.818576 0.851787 0.104017
H30   H     H_    0.862112 0.806571 0.142568 0.085624
H31   H     H_    0.638319 0.307005 0.357495 0.074437
H32   H     H_    0.766840 0.449809 0.745580 0.141506
H33   H     H_    0.233175 0.449815 0.254408 0.141523
H34   H     H_    0.507904 0.612397 0.953095 0.183189
H35   H     H_    0.361660 0.306970 0.642497 0.074412
H36   H     H_    0.817585 0.133611 0.351834 0.092425
H37   H     H_    0.946320 0.258096 0.775910 0.105180
H38   H     H_    0.053671 0.258091 0.224124 0.105127
H39   H     H_    0.182415 0.133548 0.648171 0.092476
H40   H     H_    0.306270 0.637834 0.857414 0.085939
H41   H     H_    0.346017 0.662241 0.142358 0.138565
H42   H     H_    0.653917 0.662410 0.857658 0.139377
H43   H     H_    0.682506 0.633058 0.148364 0.100924
H44   H     H_    0.986890 0.945750 0.538872 0.108925
H45   H     H_    0.013139 0.945770 0.461112 0.108961
H46   H     H_    0.513041 0.445757 0.038875 0.111712
H47   H     H_    0.486950 0.445774 0.961109 0.111655
H48   H     H_    0.784204 0.190336 0.171254 0.147103
O1    O     O_3   1.000000 0.000000 0.250030 -0.449386
O2    O     O_R   0.585480 0.353820 0.219950 -0.545970
O3    O     O_R   0.414520 0.353820 0.780050 -0.546073
O4    O     O_R   0.414520 0.353820 0.219950 -0.531205
O5    O     O_R   0.914530 0.146170 0.280090 -0.534316
O6    O     O_R   0.914530 0.146170 0.719910 -0.536995
O7    O     O_R   0.085470 0.146170 0.280090 -0.537030
O8    O     O_R   0.085470 0.146170 0.719910 -0.533845
O9    O     O_R   0.414530 0.646170 0.780090 -0.525631
O10   O     O_R   0.414530 0.646170 0.219910 -0.554961
O11   O     O_R   0.585470 0.646170 0.780090 -0.554161
O12   O     O_3   0.000000 0.000000 0.749970 -0.448178
O13   O     O_R   0.585470 0.646170 0.219910 -0.535412
O14   O     O_R   0.146180 0.085440 0.219990 -0.534451
O15   O     O_R   0.146180 0.085440 0.780010 -0.539333
O16   O     O_R   0.853820 0.085440 0.219990 -0.538370
O17   O     O_R   0.853820 0.085440 0.780010 -0.534283
O18   O     O_R   0.646180 0.585440 0.719990 -0.539571
O19   O     O_R   0.646180 0.585440 0.280010 -0.534272
O20   O     O_R   0.353820 0.585440 0.719990 -0.535854
O21   O     O_R   0.353820 0.585440 0.280010 -0.539161
O22   O     O_R   0.853820 0.914550 0.219980 -0.527761
O23   O     O_3   0.500000 0.500000 0.750030 -0.447367
O24   O     O_R   0.853820 0.914550 0.780020 -0.543841
O25   O     O_R   0.146180 0.914550 0.219980 -0.543974
O26   O     O_R   0.146180 0.914550 0.780020 -0.537555
O27   O     O_R   0.353820 0.414550 0.719980 -0.522676
O28   O     O_R   0.353820 0.414550 0.280020 -0.560035
O29   O     O_R   0.646180 0.414550 0.719980 -0.560102
O30   O     O_R   0.646180 0.414550 0.280020 -0.522719
O31   O     O_R   0.060720 0.999990 0.135450 -0.543671
O32   O     O_R   0.060720 0.999990 0.864550 -0.542589
O33   O     O_R   0.939280 0.999990 0.135450 -0.539147
O34   O     O_3   0.500000 0.500000 0.249970 -0.446172
O35   O     O_R   0.939280 0.999990 0.864550 -0.543094
O36   O     O_R   0.560720 0.499990 0.635450 -0.543258
O37   O     O_R   0.560720 0.499990 0.364550 -0.539695
O38   O     O_R   0.439280 0.499990 0.635450 -0.539863
O39   O     O_R   0.439280 0.499990 0.364550 -0.543188
O40   O     O_R   1.000000 0.939270 0.364600 -0.540674
O41   O     O_R   0.000000 0.939270 0.635400 -0.540536
O42   O     O_R   0.500000 0.439270 0.864600 -0.534997
O43   O     O_R   0.500000 0.439270 0.135400 -0.534485
O44   O     O_R   0.000000 0.060730 0.364620 -0.531463
O45   O     O_R   0.085480 0.853820 0.280050 -0.534926
O46   O     O_R   1.000000 0.060730 0.635380 -0.531373
O47   O     O_R   0.500000 0.560730 0.864620 -0.538928
O48   O     O_R   0.500000 0.560730 0.135380 -0.542324
O49   O     O_2   0.228377 0.817779 0.887773 -0.416755
O50   O     O_2   0.225954 0.810247 0.112524 -0.438839
O51   O     O_2   0.774046 0.810336 0.887475 -0.438579
O52   O     O_2   0.764637 0.844742 0.121860 -0.407141
O53   O     O_2   0.735872 0.345156 0.378041 -0.410752
O54   O     O_2   0.838852 0.421721 0.798604 -0.450630
O55   O     O_2   0.161128 0.421695 0.201409 -0.450721
O56   O     O_R   0.085480 0.853820 0.719950 -0.539478
O57   O     O_2   0.264101 0.345113 0.621968 -0.410727
O58   O     O_2   0.818737 0.228944 0.387554 -0.424881
O59   O     O_2   0.930789 0.345703 0.732497 -0.435071
O60   O     O_2   0.069221 0.345715 0.267538 -0.435025
O61   O     O_2   0.181294 0.228852 0.612438 -0.424914
O62   O     O_2   0.344709 0.735002 0.878234 -0.404334
O63   O     O_2   0.242699 0.659930 0.120234 -0.443685
O64   O     O_2   0.757237 0.660009 0.879773 -0.443188
O65   O     O_2   0.682605 0.727960 0.112125 -0.414887
O66   O     O_R   0.914520 0.853820 0.280050 -0.541045
O67   O     O_R   0.914520 0.853820 0.719950 -0.535044
O68   O     O_R   0.585480 0.353820 0.780050 -0.531260
Zn1   Zn    Zn3+2 1.000000 0.086760 0.292960 0.964692
Zn2   Zn    Zn3+2 0.586770 0.499990 0.292890 0.963352
Zn3   Zn    Zn3+2 0.413230 0.499990 0.707110 0.963225
Zn4   Zn    Zn3+2 0.413230 0.499990 0.292890 0.940102
Zn5   Zn    Zn3+2 1.000000 0.913240 0.292940 0.941203
Zn6   Zn    Zn3+2 1.000000 0.913240 0.707060 0.941293
Zn7   Zn    Zn3+2 0.500000 0.413240 0.792940 0.947892
Zn8   Zn    Zn3+2 0.500000 0.413240 0.207060 0.948060
Zn9   Zn    Zn3+2 0.000000 0.086760 0.707040 0.965281
Zn10  Zn    Zn3+2 0.500000 0.586760 0.792960 0.961904
Zn11  Zn    Zn3+2 0.500000 0.586760 0.207040 0.954044
Zn12  Zn    Zn3+2 0.086770 0.999990 0.207110 0.947862
Zn13  Zn    Zn3+2 0.086770 0.999990 0.792890 0.946936
Zn14  Zn    Zn3+2 0.913230 0.999990 0.207110 0.954906
Zn15  Zn    Zn3+2 0.913230 0.999990 0.792890 0.948106
Zn16  Zn    Zn3+2 0.586770 0.499990 0.707110 0.939514

loop_
_geom_bond_atom_site_label_1
_geom_bond_atom_site_label_2
_ccdc_geom_bond_type
C33   C55   S    
O11   Zn10  S    
C88   C96   A    
C76   O3    A    
C34   C56   S    
C13   C26   A    
C63   O46   A    
C64   O42   A    
C50   O6    A    
C90   H15   S    
C14   C18   A    
C59   O35   A    
C103  O50   D    
C62   O40   A    
C80   C84   A    
C1    O45   A    
C92   H17   S    
C11   O65   D    
C10   O64   D    
C31   C80   A    
C107  O54   D    
O41   Zn6   S    
C104  H29   S    
C15   C19   A    
C9    H41   S    
O19   Zn2   S    
O39   Zn4   S    
C105  O52   D    
C50   O17   A    
O34   Zn4   S    
C2    C103  S    
C69   H23   S    
C36   C37   A    
O37   Zn2   S    
C12   C104  S    
O48   Zn11  S    
C38   C39   A    
C6    H38   S    
O36   Zn16  S    
O29   Zn16  S    
C89   H14   S    
C5    O59   D    
C103  H28   S    
C76   C101  S    
C8    C23   S    
C87   O4    A    
C104  O51   D    
C15   C107  S    
C107  H32   S    
C17   C101  A    
C102  H27   S    
C40   H22   S    
O32   Zn13  S    
C105  H30   S    
C57   O19   A    
O6    Zn9   S    
C28   C50   S    
C75   H48   S    
C67   H1    S    
C29   C78   A    
O66   Zn5   S    
C84   H9    S    
C54   O29   A    
C73   H46   S    
C70   C74   D    
C67   C71   D    
C43   C95   S    
O4    Zn8   S    
C12   C95   A    
C36   C46   A    
C86   H11   S    
C17   C22   A    
C91   C100  A    
C76   O27   A    
C22   C30   A    
C61   O39   A    
C57   O13   A    
O31   Zn12  S    
C44   C47   A    
O1    Zn1   S    
C25   C34   A    
C39   C45   A    
C66   O48   A    
C9    O63   D    
C5    H37   S    
O45   Zn5   S    
C83   C88   A    
C58   O31   A    
O9    Zn10  S    
C46   C58   S    
C44   H26   S    
C55   O21   A    
C32   O22   A    
C8    H40   S    
C42   C44   A    
O23   Zn10  S    
C27   C75   A    
O33   Zn14  S    
C52   O15   A    
C108  H33   S    
C48   C60   S    
O12   Zn15  S    
O5    Zn1   S    
C20   C29   A    
O35   Zn15  S    
C21   O26   A    
C43   O24   A    
O23   Zn7   S    
C36   H18   S    
C77   C90   A    
C70   H34   S    
C4    O58   D    
C53   O20   A    
C13   C96   A    
O1    Zn5   S    
C67   C68   S    
C47   C61   S    
C2    C94   A    
C3    H35   S    
O47   Zn10  S    
C13   C105  S    
O68   Zn7   S    
O2    Zn8   S    
C87   O28   A    
C1    O25   A    
O42   Zn7   S    
C1    C94   S    
C80   H5    S    
O15   Zn13  S    
O24   Zn15  S    
C82   C86   A    
C66   C73   S    
O14   Zn12  S    
C7    H39   S    
C63   O41   A    
C56   O18   A    
C68   C72   D    
O3    Zn7   S    
O38   Zn3   S    
C81   H6    S    
C43   O67   A    
O43   Zn8   S    
C4    H36   S    
O23   Zn16  S    
C28   C77   A    
O18   Zn16  S    
C41   H24   S    
O56   Zn6   S    
C85   C94   A    
C60   O38   A    
C54   O68   A    
C71   H44   S    
O30   Zn2   S    
C16   C20   A    
C58   O33   A    
C41   C47   A    
C62   C72   S    
C59   O32   A    
C9    C24   S    
C42   C48   A    
C31   C53   S    
C51   O7    A    
C19   C28   A    
C79   C92   A    
C78   H3    S    
C92   C101  A    
C52   O8    A    
C30   C79   A    
C79   H4    S    
C10   C25   S    
C11   H43   S    
C40   C41   A    
C32   C96   S    
C64   O47   A    
C63   C71   S    
C91   H16   S    
C42   H25   S    
C2    C24   A    
C60   O36   A    
O28   Zn4   S    
O27   Zn3   S    
C61   O37   A    
C90   C99   A    
O22   Zn14  S    
C108  O55   D    
C38   H20   S    
C14   C97   A    
C87   C100  S    
C29   C51   S    
C53   O9    A    
O10   Zn11  S    
C40   C48   A    
O20   Zn3   S    
C30   C52   S    
C65   O30   A    
C45   C59   S    
C35   C83   A    
C72   H45   S    
O13   Zn11  S    
O8    Zn9   S    
O34   Zn2   S    
C49   O5    A    
C83   H8    S    
C51   O14   A    
C16   C100  A    
C18   C27   A    
C66   O43   A    
C15   C99   A    
C88   H13   S    
C69   C73   D    
O44   Zn1   S    
C82   H7    S    
C49   O16   A    
C32   O66   A    
O17   Zn15  S    
O1    Zn12  S    
O12   Zn13  S    
C5    C19   S    
C78   C91   A    
C3    O57   D    
C7    C22   S    
C39   H21   S    
C24   C33   A    
C11   C26   S    
C21   O56   A    
C12   C25   A    
C35   C57   S    
C33   C81   A    
C4    C18   S    
C85   H10   S    
C98   C102  S    
C10   H42   S    
O46   Zn9   S    
C106  O53   D    
O25   Zn12  S    
C106  H31   S    
C62   O44   A    
C21   C93   S    
C6    C20   S    
C93   C98   A    
C56   O11   A    
O12   Zn6   S    
C74   H47   S    
C3    C17   S    
O34   Zn8   S    
C84   C93   A    
O23   Zn3   S    
C69   C70   S    
C54   C99   S    
C102  O49   D    
C81   C85   A    
C38   C46   A    
C8    O62   D    
C86   C95   A    
C16   C108  S    
C65   C97   S    
C7    O61   D    
O1    Zn14  S    
C14   C106  S    
C23   C98   A    
C6    O60   D    
O40   Zn5   S    
O26   Zn13  S    
O67   Zn6   S    
C75   C89   A    
C89   C97   A    
C26   C35   A    
C64   C74   S    
O34   Zn11  S    
C34   C82   A    
C55   O10   A    
C37   H19   S    
O7    Zn1   S    
C37   C45   A    
C77   H2    S    
C68   H12   S    
C27   C49   S    
C65   O2    A    
C23   C31   A    
O12   Zn9   S    
O21   Zn4   S    
O16   Zn14  S    
