data_mof_unit_31158.cif
_audit_creation_date              2012-12-10T18:04:00-0500
_audit_creation_method            fapswitch 2.2
_symmetry_space_group_name_H-M    P1
_symmetry_Int_Tables_number       1
_space_group_crystal_system       triclinic
_cell_length_a                    10.834691
_cell_length_b                    9.59936
_cell_length_c                    10.853418
_cell_angle_alpha                 89.999967
_cell_angle_beta                  91.952387
_cell_angle_gamma                 90.002537
_cell_volume                      1128.16637066

loop_
_atom_site_label
_atom_site_type_symbol
_atom_type_description
_atom_site_fract_x
_atom_site_fract_y
_atom_site_fract_z
_atom_type_partial_charge
C1    C     C_R   0.262322 0.500156 0.500612 0.799245
C2    C     C_R   0.737677 0.500160 0.499393 0.799153
C3    C     C_R   0.408311 0.071270 0.437389 0.067939
C4    C     C_R   0.591686 0.071286 0.562607 0.067936
C5    C     C_R   0.409729 0.923711 0.438609 -0.058638
C6    C     C_R   0.590276 0.923726 0.561387 -0.058630
C7    C     C_R   0.499944 0.499892 0.262871 0.831033
C8    C     C_R   0.500051 0.499892 0.737129 0.830942
C9    C     C_R   0.499967 0.620446 0.062024 0.120986
C10   C     C_R   0.500062 0.620446 0.937977 0.120975
C11   C     C_R   0.500001 0.498230 0.130167 -0.101881
C12   C     C_R   0.499975 0.498230 0.869833 -0.101860
C13   C     C_R   0.500087 0.371172 0.064592 -0.183908
C14   C     C_R   0.499817 0.371172 0.935406 -0.183852
C15   C     C_3   0.500125 0.775329 0.929028 -0.454771
C16   C     C_3   0.500008 0.775329 0.070975 -0.454765
C17   C     C_R   0.063765 0.374877 0.501815 -0.172974
C18   C     C_R   0.936208 0.374885 0.497805 -0.173094
C19   C     C_R   0.871638 0.500989 0.498769 -0.031050
C20   C     C_R   0.128361 0.500983 0.501242 -0.031103
C21   C     C_R   0.936071 0.627690 0.500036 -0.166167
C22   C     C_R   0.063951 0.627689 0.500360 -0.166161
Cu1   Cu    Cu3+1 0.500000 0.640660 0.500000 0.952993
Cu2   Cu    Cu3+1 0.500000 0.359340 0.500000 1.006226
H1    H     H_    0.500383 0.272058 0.112249 0.191087
H2    H     H_    0.499470 0.272058 0.887748 0.191123
H3    H     H_    0.586954 0.816262 0.891026 0.202164
H4    H     H_    0.413207 0.816329 0.108978 0.202170
H5    H     H_    0.413375 0.816311 0.885034 0.206346
H6    H     H_    0.586786 0.816246 0.114969 0.206356
H7    H     H_    0.111472 0.276214 0.505509 0.189088
H8    H     H_    0.888482 0.276234 0.493791 0.189137
H9    H     H_    0.888031 0.726647 0.500424 0.173765
H10   H     H_    0.112009 0.726647 0.500289 0.173787
H11   H     H_    0.338630 0.865369 0.388600 0.157901
H12   H     H_    0.661387 0.865403 0.611391 0.157673
N1    N     N_R   0.500000 0.852070 0.500000 -0.184762
N2    N     N_R   0.500000 0.147940 0.500000 -0.233714
O1    O     O_R   0.319640 0.618740 0.499990 -0.595514
O2    O     O_R   0.680360 0.618740 0.500010 -0.595494
O3    O     O_R   0.319620 0.381170 0.499990 -0.576630
O4    O     O_R   0.680380 0.381170 0.500010 -0.576738
O5    O     O_R   0.499990 0.618810 0.319660 -0.588649
O6    O     O_R   0.500010 0.618810 0.680340 -0.588665
O7    O     O_R   0.499960 0.381240 0.319650 -0.546222
O8    O     O_R   0.500040 0.381240 0.680350 -0.546257
C23   C     C_2   0.302595 0.132874 0.366629 0.822452
O9    O     O_2   0.317622 0.224779 0.291270 -0.579705
O10   O     O_R   0.185319 0.073913 0.377312 -0.808775
H13   H     H_    0.120841 0.118954 0.320303 0.332608
C24   C     C_2   0.697380 0.132932 0.633359 0.822867
O11   O     O_2   0.682295 0.224612 0.708906 -0.579841
O12   O     O_R   0.814716 0.074236 0.622446 -0.808765
H14   H     H_    0.879198 0.119288 0.679446 0.332631

loop_
_geom_bond_atom_site_label_1
_geom_bond_atom_site_label_2
_ccdc_geom_bond_type
C16   H4    S    
C1    O3    A    
Cu2   N2    S    
Cu1   Cu2   S    
C2    O2    A    
O12   H14   S    
C7    O5    A    
Cu2   O4    S    
C9    C10   A    
C15   H3    S    
C23   O9    D    
C20   C22   A    
C8    C12   S    
Cu2   O8    S    
C17   C18   A    
C6    N1    A    
Cu1   O5    S    
C23   O10   S    
C13   C14   A    
C14   H2    S    
C7    C11   S    
Cu2   O3    S    
C11   C13   A    
C13   H1    S    
C10   C12   A    
C2    O4    A    
Cu1   O1    S    
Cu2   O7    S    
C5    H11   S    
C21   C22   A    
C19   C21   A    
C9    C16   S    
C6    H12   S    
C15   H5    S    
C5    N1    A    
C10   C15   S    
C9    C11   A    
C8    O6    A    
C22   H10   S    
C8    O8    A    
C18   H8    S    
C15   C16   S    
C1    O1    A    
C4    C24   S    
C16   H6    S    
C24   O11   D    
C7    O7    A    
C17   C20   A    
C21   H9    S    
C4    C6    A    
C18   C19   A    
C3    C23   S    
C4    N2    A    
O10   H13   S    
C1    C20   S    
C24   O12   S    
C2    C19   S    
Cu1   N1    S    
Cu1   O6    S    
C17   H7    S    
Cu1   O2    S    
C3    N2    A    
C12   C14   A    
C3    C5    A    
