data_mof_unit_7608.cif
_audit_creation_date              2012-12-11T16:25:17-0500
_audit_creation_method            fapswitch 2.2
_symmetry_space_group_name_H-M    P1
_symmetry_Int_Tables_number       1
_space_group_crystal_system       triclinic
_cell_length_a                    22.541015
_cell_length_b                    30.36848
_cell_length_c                    19.070868
_cell_angle_alpha                 89.165542
_cell_angle_beta                  127.500723
_cell_angle_gamma                 90.199555
_cell_volume                      10355.5548266

loop_
_atom_site_label
_atom_site_type_symbol
_atom_type_description
_atom_site_fract_x
_atom_site_fract_y
_atom_site_fract_z
_atom_type_partial_charge
C1    C     C_R   0.927800 0.604540 0.070862 -0.033239
C2    C     C_R   0.130657 0.524464 0.452663 -0.054993
C3    C     C_R   0.371556 0.465802 0.259959 -0.139228
C4    C     C_R   0.876641 0.040779 0.304972 -0.174930
C5    C     C_R   0.151772 0.960308 0.577842 -0.165975
C6    C     C_R   0.181591 0.033388 0.555312 -0.176189
C7    C     C_R   0.871557 0.965804 0.259960 -0.139222
C8    C     C_R   0.335527 0.502510 0.262830 0.135935
C9    C     C_R   0.696458 0.497997 0.612141 0.130908
C10   C     C_R   0.835527 0.002511 0.262833 0.135932
C11   C     C_R   0.196458 0.997997 0.612141 0.130912
C12   C     C_R   0.490849 0.502239 0.358012 0.109803
C13   C     C_R   0.501380 0.963021 0.636701 -0.078973
C14   C     C_R   0.569605 0.496705 0.435254 0.109311
C15   C     C_R   0.990849 0.002241 0.358013 0.109806
C16   C     C_R   0.069605 0.996706 0.435255 0.109312
C17   C     C_R   0.797065 0.536380 0.756677 -0.124779
C18   C     C_R   0.211735 0.463623 0.202166 -0.129764
C19   C     C_R   0.210669 0.537201 0.202777 -0.122617
C20   C     C_R   0.797631 0.463319 0.758894 -0.094853
C21   C     C_R   0.297065 0.036380 0.756677 -0.124775
C22   C     C_R   0.711735 0.963624 0.202168 -0.129761
C23   C     C_R   0.710669 0.037201 0.202779 -0.122614
C24   C     C_R   0.630657 0.024464 0.452663 -0.054992
C25   C     C_R   0.297631 0.963319 0.758894 -0.094851
C26   C     C_R   0.047368 0.462047 0.242925 -0.142495
C27   C     C_R   0.998857 0.536896 0.787280 -0.139802
C28   C     C_R   0.003367 0.463045 0.793910 -0.103050
C29   C     C_R   0.045750 0.534879 0.244977 -0.092670
C30   C     C_R   0.547369 0.962047 0.242925 -0.142502
C31   C     C_R   0.498856 0.036896 0.787280 -0.139803
C32   C     C_R   0.503367 0.963045 0.793909 -0.103047
C33   C     C_R   0.545750 0.034879 0.244977 -0.092668
C34   C     C_R   0.858815 0.617787 0.993759 0.118054
C35   C     C_R   0.029675 0.456039 0.589916 0.080907
C36   C     C_R   0.097355 0.354314 0.005423 0.126600
C37   C     C_R   0.093238 0.645582 0.995996 0.122064
C38   C     C_R   0.861881 0.382345 0.000572 0.117458
C39   C     C_R   0.358818 0.117790 0.993759 0.118055
C40   C     C_R   0.597361 0.854317 0.005424 0.126620
C41   C     C_R   0.593238 0.145582 0.995997 0.122062
C42   C     C_R   0.361880 0.882345 0.000572 0.117462
C43   C     C_R   0.757778 0.499639 0.707046 0.056762
C44   C     C_R   0.256242 0.500857 0.225387 0.034438
C45   C     C_R   0.257778 0.999639 0.707046 0.056762
C46   C     C_R   0.132193 0.521499 0.528025 0.079057
C47   C     C_R   0.756242 0.000857 0.225389 0.034438
C48   C     C_R   0.063445 0.496999 0.296193 0.088644
C49   C     C_R   0.014522 0.499570 0.759872 0.081196
C50   C     C_R   0.563445 0.996999 0.296194 0.088642
C51   C     C_R   0.514521 0.999570 0.759872 0.081198
C52   C     C_R   0.085028 0.526201 0.708954 -0.249925
C53   C     C_R   0.069165 0.452980 0.406185 -0.247668
C54   C     C_R   0.585028 0.026201 0.708953 -0.249920
C55   C     C_R   0.569162 0.952980 0.406182 -0.247668
C56   C     C_R   0.032630 0.497013 0.699436 0.032590
C57   C     C_R   0.529669 0.956041 0.589912 0.080907
C58   C     C_R   0.091925 0.491506 0.388066 0.037741
C59   C     C_R   0.532628 0.997014 0.699435 0.032590
C60   C     C_R   0.591924 0.991506 0.388065 0.037741
C61   C     C_R   0.805363 0.256173 0.119675 0.164925
C62   C     C_R   0.826959 0.258371 0.205736 -0.139196
C63   C     C_R   0.846292 0.219940 0.256877 -0.121517
C64   C     C_R   0.844627 0.179199 0.222543 -0.098114
C65   C     C_R   0.824459 0.176889 0.137384 -0.089631
C66   C     C_R   0.805385 0.215273 0.086233 -0.086536
C67   C     C_R   0.137938 0.800721 0.104816 0.171102
C68   C     C_R   0.632193 0.021498 0.528024 0.079050
C69   C     C_R   0.181589 0.791555 0.196075 -0.134417
C70   C     C_R   0.191432 0.823589 0.254182 -0.108827
C71   C     C_R   0.157855 0.865012 0.221794 -0.076906
C72   C     C_R   0.114320 0.874438 0.131214 -0.096052
C73   C     C_R   0.104384 0.842489 0.072895 -0.107241
C74   C     C_R   0.028144 0.202294 0.882303 0.171798
C75   C     C_R   0.981074 0.213992 0.792015 -0.136754
C76   C     C_R   0.930170 0.183643 0.729084 -0.104236
C77   C     C_R   0.925825 0.141410 0.755659 -0.078548
C78   C     C_R   0.972391 0.129477 0.845240 -0.095037
C79   C     C_R   0.078587 0.487635 0.594927 0.031617
C80   C     C_R   0.023384 0.159741 0.908384 -0.105947
C81   C     C_R   0.692899 0.749650 0.886883 0.164269
C82   C     C_R   0.626321 0.752916 0.800366 -0.133056
C83   C     C_R   0.600634 0.794024 0.757721 -0.124056
C84   C     C_R   0.641593 0.831980 0.801043 -0.098648
C85   C     C_R   0.708513 0.828846 0.886827 -0.080726
C86   C     C_R   0.734394 0.787808 0.929545 -0.086584
C87   C     C_R   0.305361 0.756177 0.119681 0.164927
C88   C     C_R   0.326952 0.758378 0.205740 -0.139199
C89   C     C_R   0.346285 0.719948 0.256885 -0.121511
C90   C     C_R   0.094334 0.486182 0.534569 0.032805
C91   C     C_R   0.344625 0.679206 0.222557 -0.098116
C92   C     C_R   0.324462 0.676894 0.137401 -0.089638
C93   C     C_R   0.305387 0.715275 0.086247 -0.086533
C94   C     C_R   0.637952 0.300719 0.104830 0.171101
C95   C     C_R   0.681606 0.291550 0.196089 -0.134418
C96   C     C_R   0.691456 0.323583 0.254202 -0.108828
C97   C     C_R   0.657883 0.365007 0.221821 -0.076910
C98   C     C_R   0.614345 0.374436 0.131242 -0.096055
C99   C     C_R   0.604402 0.342488 0.072916 -0.107234
C100  C     C_R   0.528156 0.702273 0.882403 0.171808
C101  C     C_R   0.578583 0.987636 0.594924 0.031617
C102  C     C_R   0.481061 0.713943 0.792102 -0.136756
C103  C     C_R   0.430150 0.683580 0.729220 -0.104199
C104  C     C_R   0.425822 0.641360 0.755858 -0.078525
C105  C     C_R   0.472412 0.629455 0.845453 -0.095017
C106  C     C_R   0.523413 0.659733 0.908547 -0.105958
C107  C     C_R   0.192897 0.249651 0.886864 0.164250
C108  C     C_R   0.126356 0.252906 0.800318 -0.133043
C109  C     C_R   0.100673 0.294011 0.757655 -0.124057
C110  C     C_R   0.141599 0.331973 0.800990 -0.098650
C111  C     C_R   0.208483 0.328850 0.886806 -0.080781
C112  C     C_R   0.046967 0.379170 0.929525 -0.119961
C113  C     C_R   0.594331 0.986182 0.534566 0.032807
C114  C     C_R   0.234362 0.287815 0.929540 -0.086595
C115  C     C_R   0.932056 0.439972 0.610759 0.148520
C116  C     C_R   0.864810 0.463890 0.567685 -0.117550
C117  C     C_R   0.799957 0.443349 0.545541 -0.124346
C118  C     C_R   0.801798 0.398924 0.566922 -0.096475
C119  C     C_R   0.868415 0.374840 0.609893 -0.096634
C120  C     C_R   0.933272 0.395160 0.631548 -0.217584
C121  C     C_R   0.166802 0.561218 0.439386 0.109747
C122  C     C_R   0.143502 0.605057 0.432074 -0.190914
C123  C     C_R   0.175000 0.639030 0.414467 -0.089844
C124  C     C_R   0.106123 0.522737 0.654393 0.131168
C125  C     C_R   0.229451 0.629528 0.403401 -0.099817
C126  C     C_R   0.252653 0.586040 0.410115 -0.122068
C127  C     C_R   0.221505 0.551983 0.427985 -0.128228
C128  C     C_R   0.432050 0.939976 0.610754 0.148520
C129  C     C_R   0.364806 0.963895 0.567680 -0.117554
C130  C     C_R   0.299951 0.943355 0.545533 -0.124338
C131  C     C_R   0.301789 0.898930 0.566913 -0.096478
C132  C     C_R   0.368405 0.874846 0.609885 -0.096641
C133  C     C_R   0.433263 0.895165 0.631542 -0.217574
C134  C     C_R   0.666805 0.061217 0.439388 0.109747
C135  C     C_R   0.066697 0.450936 0.475893 0.141445
C136  C     C_R   0.643507 0.105056 0.432077 -0.190912
C137  C     C_R   0.675009 0.139028 0.414475 -0.089833
C138  C     C_R   0.729461 0.129525 0.403411 -0.099829
C139  C     C_R   0.752660 0.086036 0.410123 -0.122079
C140  C     C_R   0.721509 0.051980 0.427989 -0.128230
C141  C     C_R   0.606122 0.022737 0.654392 0.131163
C142  C     C_R   0.566692 0.950936 0.475890 0.141442
C143  C     C_R   0.007236 0.419683 0.534450 -0.201525
C144  C     C_R   0.165743 0.553747 0.593943 -0.207333
C145  C     C_R   0.507227 0.919686 0.534443 -0.201508
C146  C     C_R   0.665744 0.053746 0.593944 -0.207323
C147  C     C_R   0.027765 0.416513 0.479933 -0.186708
C148  C     C_R   0.042758 0.620354 0.924375 -0.065972
C149  C     C_R   0.152888 0.554216 0.656826 -0.176366
C150  C     C_R   0.527757 0.916515 0.479926 -0.186707
C151  C     C_R   0.652888 0.054215 0.656826 -0.176357
C152  C     C_R   0.683362 0.349380 0.961167 -0.221354
C153  C     C_R   0.136984 0.747906 0.925398 -0.201124
C154  C     C_R   0.211799 0.251619 0.072183 -0.201824
C155  C     C_R   0.716394 0.650586 0.025472 -0.221661
C156  C     C_R   0.183359 0.849380 0.961162 -0.221352
C157  C     C_R   0.636980 0.247907 0.925397 -0.201118
C158  C     C_R   0.711821 0.751628 0.072188 -0.201819
C159  C     C_R   0.929103 0.397288 0.074315 -0.059410
C160  C     C_R   0.216385 0.150588 0.025453 -0.221686
C161  C     C_R   0.734436 0.373657 0.958671 0.204789
C162  C     C_R   0.120270 0.704647 0.929224 0.168956
C163  C     C_R   0.191731 0.294447 0.072571 0.175806
C164  C     C_R   0.768927 0.625650 0.027339 0.204195
C165  C     C_R   0.234434 0.873657 0.958667 0.204786
C166  C     C_R   0.620265 0.204648 0.929222 0.168955
C167  C     C_R   0.691749 0.794457 0.072563 0.175827
C168  C     C_R   0.268923 0.125654 0.027329 0.204202
C169  C     C_R   0.808198 0.357811 0.004155 -0.054815
C170  C     C_R   0.427802 0.104541 0.070862 -0.033232
C171  C     C_R   0.106051 0.692109 0.989177 -0.030768
C172  C     C_R   0.116402 0.307717 0.011516 -0.027680
C173  C     C_R   0.799905 0.642275 0.986750 -0.058416
C174  C     C_R   0.308197 0.857812 0.004155 -0.054813
C175  C     C_R   0.606050 0.192110 0.989178 -0.030766
C176  C     C_R   0.616415 0.807720 0.011521 -0.027701
C177  C     C_R   0.299907 0.142280 0.986748 -0.058425
C178  C     C_R   0.832114 0.319432 0.057910 0.150911
C179  C     C_R   0.103084 0.724504 0.039806 0.153597
C180  C     C_R   0.060975 0.276173 0.956114 0.149898
C181  C     C_R   0.546969 0.879170 0.929525 -0.119944
C182  C     C_R   0.773394 0.682304 0.937946 0.156590
C183  C     C_R   0.332113 0.819434 0.057914 0.150915
C184  C     C_R   0.603088 0.224504 0.039812 0.153599
C185  C     C_R   0.560989 0.776170 0.956146 0.149919
C186  C     C_R   0.273400 0.182308 0.937945 0.156607
C187  C     C_R   0.856098 0.395151 0.925964 -0.029935
C188  C     C_R   0.117273 0.621025 0.071288 -0.116889
C189  C     C_R   0.117414 0.379321 0.076244 -0.079694
C190  C     C_R   0.854393 0.603275 0.922364 -0.055942
C191  C     C_R   0.356098 0.895151 0.925964 -0.029937
C192  C     C_R   0.542757 0.120355 0.924375 -0.065975
C193  C     C_R   0.617273 0.121025 0.071288 -0.116890
C194  C     C_R   0.617419 0.879322 0.076245 -0.079690
C195  C     C_R   0.354395 0.103278 0.922363 -0.055954
C196  C     C_R   0.781350 0.296753 0.064241 -0.063202
C197  C     C_R   0.129014 0.767361 0.042868 -0.047329
C198  C     C_R   0.083292 0.234067 0.949380 -0.049758
C199  C     C_R   0.718228 0.706346 0.933541 -0.065556
C200  C     C_R   0.281348 0.796756 0.064243 -0.063202
C201  C     C_R   0.629020 0.267361 0.042876 -0.047328
C202  C     C_R   0.583308 0.734061 0.949430 -0.049777
C203  C     C_R   0.429102 0.897288 0.074314 -0.059405
C204  C     C_R   0.218228 0.206349 0.933530 -0.065550
C205  C     C_R   0.705845 0.310701 0.011803 0.019461
C206  C     C_R   0.149316 0.777703 0.987831 0.016035
C207  C     C_R   0.159998 0.223223 0.005480 0.017091
C208  C     C_R   0.692364 0.691110 0.980931 0.020075
C209  C     C_R   0.205842 0.810701 0.011800 0.019463
C210  C     C_R   0.649318 0.277703 0.987835 0.016035
C211  C     C_R   0.660017 0.723223 0.005510 0.017087
C212  C     C_R   0.192356 0.191112 0.980911 0.020064
C213  C     C_R   0.453559 0.540724 0.351753 -0.149947
C214  C     C_R   0.001385 0.463019 0.636705 -0.078973
C215  C     C_R   0.589107 0.459562 0.490099 -0.168797
C216  C     C_R   0.618706 0.532579 0.466990 -0.181753
C217  C     C_R   0.448912 0.465759 0.306910 -0.170986
C218  C     C_R   0.953559 0.040725 0.351758 -0.149948
C219  C     C_R   0.089107 0.959563 0.490098 -0.168803
C220  C     C_R   0.118706 0.032581 0.466991 -0.181754
C221  C     C_R   0.948912 0.965761 0.306909 -0.170986
C222  C     C_R   0.376641 0.540778 0.304967 -0.174924
C223  C     C_R   0.651771 0.460308 0.577843 -0.165976
C224  C     C_R   0.681591 0.533386 0.555311 -0.176184
H1    H     H_    0.949428 0.610434 0.138359 0.119719
H2    H     H_    0.552075 0.431613 0.468182 0.131394
H3    H     H_    0.394074 0.692783 0.659817 0.111496
H4    H     H_    0.386335 0.617895 0.707098 0.113094
H5    H     H_    0.468949 0.596765 0.866049 0.124061
H6    H     H_    0.558768 0.650147 0.977768 0.117009
H7    H     H_    0.094352 0.223675 0.766248 0.119491
H8    H     H_    0.049001 0.296435 0.691079 0.108042
H9    H     H_    0.121763 0.363783 0.768030 0.108310
H10   H     H_    0.240215 0.358227 0.920281 0.133069
H11   H     H_    0.286167 0.285761 0.996122 0.148289
H12   H     H_    0.862783 0.498464 0.551529 0.115900
H13   H     H_    0.605268 0.561333 0.425371 0.125908
H14   H     H_    0.748282 0.461901 0.511871 0.133992
H15   H     H_    0.751607 0.383187 0.550208 0.112390
H16   H     H_    0.869898 0.340461 0.626733 0.119336
H17   H     H_    0.984693 0.376296 0.665801 0.107375
H18   H     H_    0.100139 0.612756 0.438483 0.137091
H19   H     H_    0.156704 0.672695 0.408613 0.127095
H20   H     H_    0.253417 0.655838 0.389232 0.105591
H21   H     H_    0.294485 0.578678 0.400993 0.111396
H22   H     H_    0.239387 0.518366 0.432036 0.120675
H23   H     H_    0.362780 0.998468 0.551524 0.115902
H24   H     H_    0.476516 0.435955 0.309547 0.131406
H25   H     H_    0.248277 0.961908 0.511862 0.133994
H26   H     H_    0.251597 0.883194 0.550197 0.112387
H27   H     H_    0.369887 0.840467 0.626724 0.119328
H28   H     H_    0.484683 0.876300 0.665795 0.107366
H29   H     H_    0.600144 0.112756 0.438485 0.137092
H30   H     H_    0.656715 0.172694 0.408622 0.127097
H31   H     H_    0.753431 0.155835 0.389245 0.105588
H32   H     H_    0.794494 0.078674 0.401002 0.111398
H33   H     H_    0.739389 0.018363 0.432039 0.120675
H34   H     H_    0.984134 0.069285 0.390898 0.118464
H35   H     H_    0.052076 0.931614 0.468180 0.131392
H36   H     H_    0.105268 0.061336 0.425373 0.125910
H37   H     H_    0.976517 0.935958 0.309544 0.131408
H38   H     H_    0.350772 0.569835 0.308013 0.097592
H39   H     H_    0.662300 0.432366 0.620003 0.129577
H40   H     H_    0.716873 0.562181 0.579373 0.121169
H41   H     H_    0.012531 0.367312 0.862515 0.121191
H42   H     H_    0.340714 0.436485 0.225048 0.154278
H43   H     H_    0.850772 0.069835 0.308021 0.097592
H44   H     H_    0.162301 0.932366 0.620001 0.129575
H45   H     H_    0.216873 0.062182 0.579375 0.121169
H46   H     H_    0.840715 0.936487 0.225046 0.154289
H47   H     H_    0.810491 0.388523 0.857765 0.118859
H48   H     H_    0.149289 0.633213 0.137950 0.120299
H49   H     H_    0.145531 0.367432 0.143352 0.130289
H50   H     H_    0.808124 0.607711 0.853213 0.119356
H51   H     H_    0.310491 0.888523 0.857765 0.118858
H52   H     H_    0.003943 0.631860 0.856599 0.125555
H53   H     H_    0.649290 0.133212 0.137950 0.120300
H54   H     H_    0.645541 0.867433 0.143354 0.130272
H55   H     H_    0.308127 0.107714 0.853213 0.119348
H56   H     H_    0.788108 0.569896 0.732144 0.096018
H57   H     H_    0.229020 0.429679 0.209936 0.128183
H58   H     H_    0.225884 0.571413 0.209421 0.092758
H59   H     H_    0.790745 0.429901 0.736304 0.093637
H60   H     H_    0.288108 0.069896 0.732145 0.096012
H61   H     H_    0.729022 0.929679 0.209939 0.128176
H62   H     H_    0.725884 0.071413 0.209423 0.092758
H63   H     H_    0.950753 0.393570 0.142562 0.117792
H64   H     H_    0.290745 0.929902 0.736303 0.093634
H65   H     H_    0.065330 0.428247 0.263640 0.102755
H66   H     H_    0.000640 0.570906 0.771180 0.130795
H67   H     H_    0.012884 0.429009 0.788353 0.105701
H68   H     H_    0.057353 0.568490 0.266940 0.116769
H69   H     H_    0.565330 0.928248 0.263640 0.102757
H70   H     H_    0.500639 0.070906 0.771180 0.130797
H71   H     H_    0.512882 0.929009 0.788350 0.105696
H72   H     H_    0.557353 0.068490 0.266941 0.116768
H73   H     H_    0.107957 0.552070 0.757496 0.164737
H74   H     H_    0.449429 0.110436 0.138359 0.119720
H75   H     H_    0.041841 0.426745 0.358740 0.132829
H76   H     H_    0.607958 0.052069 0.757497 0.164736
H77   H     H_    0.541836 0.926746 0.358737 0.132831
H78   H     H_    0.972022 0.394021 0.530223 0.142603
H79   H     H_    0.199631 0.579635 0.595653 0.147396
H80   H     H_    0.472012 0.894025 0.530214 0.142607
H81   H     H_    0.699634 0.079633 0.595655 0.147403
H82   H     H_    0.007278 0.389023 0.435190 0.134376
H83   H     H_    0.176386 0.580495 0.704449 0.155335
H84   H     H_    0.507269 0.889026 0.435183 0.134379
H85   H     H_    0.512532 0.867311 0.862516 0.121185
H86   H     H_    0.676388 0.080493 0.704451 0.155338
H87   H     H_    0.625139 0.359432 0.919970 0.159896
H88   H     H_    0.153196 0.756375 0.883762 0.172446
H89   H     H_    0.270657 0.242746 0.114861 0.170195
H90   H     H_    0.697318 0.639489 0.062885 0.158780
H91   H     H_    0.125135 0.859431 0.919961 0.159895
H92   H     H_    0.653189 0.256377 0.883759 0.172447
H93   H     H_    0.770682 0.742760 0.114852 0.170185
H94   H     H_    0.197302 0.139491 0.062859 0.158793
H95   H     H_    0.828074 0.289759 0.232744 0.119839
H96   H     H_    0.503941 0.131860 0.856599 0.125557
H97   H     H_    0.862189 0.221726 0.322952 0.108929
H98   H     H_    0.859251 0.149469 0.262035 0.100821
H99   H     H_    0.823449 0.145362 0.110944 0.133492
H100  H     H_    0.789875 0.213150 0.020356 0.151147
H101  H     H_    0.208247 0.759686 0.222271 0.127041
H102  H     H_    0.225220 0.816317 0.324361 0.112434
H103  H     H_    0.165559 0.889793 0.266871 0.111981
H104  H     H_    0.088267 0.906524 0.106161 0.123796
H105  H     H_    0.070261 0.850220 0.002851 0.118049
H106  H     H_    0.983877 0.246569 0.770375 0.122453
H107  H     H_    0.450752 0.893571 0.142562 0.117793
H108  H     H_    0.894114 0.192868 0.659691 0.111482
H109  H     H_    0.886345 0.117956 0.706860 0.113108
H110  H     H_    0.968915 0.096776 0.865787 0.124068
H111  H     H_    0.058720 0.150134 0.977593 0.117016
H112  H     H_    0.594293 0.723689 0.766307 0.119465
H113  H     H_    0.548933 0.796456 0.691170 0.108028
H114  H     H_    0.621752 0.863793 0.768097 0.108301
H115  H     H_    0.740269 0.858219 0.920292 0.133076
H116  H     H_    0.786225 0.785746 0.996106 0.148295
H117  H     H_    0.328063 0.789766 0.232743 0.119840
H118  H     H_    0.484134 0.569284 0.390892 0.118466
H119  H     H_    0.362178 0.721735 0.322958 0.108934
H120  H     H_    0.359250 0.649478 0.262053 0.100819
H121  H     H_    0.323456 0.645366 0.110966 0.133489
H122  H     H_    0.289881 0.713151 0.020371 0.151147
H123  H     H_    0.708261 0.259680 0.222279 0.127040
H124  H     H_    0.725247 0.316308 0.324380 0.112432
H125  H     H_    0.665593 0.389787 0.266903 0.111981
H126  H     H_    0.588296 0.406523 0.106194 0.123794
H127  H     H_    0.570276 0.350221 0.002873 0.118050
H128  H     H_    0.483847 0.746510 0.770414 0.122436
I1    I     I_    0.695482 0.433703 0.884453 -0.404633
I2    I     I_    0.051419 0.710872 0.102041 -0.434470
I3    I     I_    0.944943 0.289830 0.891562 -0.432459
I4    I     I_    0.821533 0.709962 0.878619 -0.396878
I5    I     I_    0.441915 0.791713 0.121866 -0.401210
I6    I     I_    0.551428 0.210872 0.102053 -0.434455
I7    I     I_    0.444959 0.789827 0.891607 -0.432461
I8    I     I_    0.321552 0.209969 0.878637 -0.396845
I9    I     I_    0.132884 0.660055 0.853503 -0.498671
I10   I     I_    0.282615 0.337751 0.156619 -0.509969
I11   I     I_    0.798903 0.563392 0.093455 -0.400323
I12   I     I_    0.195480 0.933702 0.884444 -0.404645
I13   I     I_    0.632874 0.160058 0.853494 -0.498663
I14   I     I_    0.782626 0.837772 0.156572 -0.509991
I15   I     I_    0.298896 0.063395 0.093444 -0.400317
I16   I     I_    0.941914 0.291710 0.121854 -0.401201
N1    N     N_R   0.963040 0.582050 0.045950 -0.048518
N2    N     N_R   0.082060 0.582000 0.045840 -0.045734
N3    N     N_R   0.082060 0.418000 0.045840 -0.051703
N4    N     N_R   0.917940 0.582000 0.954160 -0.050867
N5    N     N_R   0.417940 0.918000 0.954160 -0.048352
N6    N     N_R   0.582060 0.082000 0.045840 -0.045734
N7    N     N_R   0.582060 0.918000 0.045840 -0.051700
N8    N     N_R   0.417940 0.082000 0.954160 -0.050867
N9    N     N_R   0.858490 0.522630 0.835610 -0.042235
N10   N     N_R   0.141510 0.477370 0.164390 -0.045896
N11   N     N_R   0.141510 0.522630 0.164390 -0.041496
N12   N     N_R   0.036960 0.417950 0.954050 -0.046468
N13   N     N_R   0.858490 0.477370 0.835610 -0.039833
N14   N     N_R   0.358490 0.022630 0.835610 -0.042234
N15   N     N_R   0.641510 0.977370 0.164390 -0.045896
N16   N     N_R   0.641510 0.022630 0.164390 -0.041496
N17   N     N_R   0.358490 0.977370 0.835610 -0.039834
N18   N     N_R   0.022480 0.477420 0.164500 -0.041146
N19   N     N_R   0.977520 0.522580 0.835500 -0.048189
N20   N     N_R   0.977520 0.477420 0.835500 -0.046762
N21   N     N_R   0.022480 0.522580 0.164500 -0.042925
N22   N     N_R   0.522480 0.977420 0.164500 -0.041146
N23   N     N_R   0.036960 0.582050 0.954050 -0.051408
N24   N     N_R   0.477520 0.022580 0.835500 -0.048189
N25   N     N_R   0.477520 0.977420 0.835500 -0.046763
N26   N     N_R   0.522480 0.022580 0.164500 -0.042925
N27   N     N_R   0.963040 0.417950 0.045950 -0.050285
N28   N     N_R   0.463040 0.082050 0.045950 -0.048520
N29   N     N_R   0.536960 0.917950 0.954050 -0.046469
N30   N     N_R   0.536960 0.082050 0.954050 -0.051408
N31   N     N_R   0.463040 0.917950 0.045950 -0.050284
N32   N     N_R   0.917940 0.418000 0.954160 -0.048351
Ni1   Ni    Ni4+2 0.051820 0.551870 0.104030 0.236788
Ni2   Ni    Ni4+2 0.948180 0.448130 0.895970 0.237003
Ni3   Ni    Ni4+2 0.948180 0.551870 0.895970 0.229403
Ni4   Ni    Ni4+2 0.051820 0.448130 0.104030 0.230548
Ni5   Ni    Ni4+2 0.551820 0.051870 0.104030 0.236790
Ni6   Ni    Ni4+2 0.448180 0.948130 0.895970 0.237000
Ni7   Ni    Ni4+2 0.448180 0.051870 0.895970 0.229401
Ni8   Ni    Ni4+2 0.551820 0.948130 0.104030 0.230549

loop_
_geom_bond_atom_site_label_1
_geom_bond_atom_site_label_2
_ccdc_geom_bond_type
C118  H15   S    
C126  C127  A    
C57   C145  A    
C101  C113  A    
C33   N26   A    
C42   C203  A    
C69   H101  S    
C17   N9    A    
C38   C159  A    
C119  H16   S    
C32   H71   S    
C103  H3    S    
C113  C142  A    
C16   C219  A    
C158  H93   S    
C110  C111  A    
C79   C90   A    
C41   C193  A    
C162  C171  A    
C187  N32   A    
N2    N23   A    
C91   H120  S    
C188  N2    A    
C81   C86   A    
C131  H26   S    
N1    N4    A    
C22   C47   A    
C55   C142  A    
C213  H118  S    
C197  C206  A    
C87   C200  S    
C104  C105  A    
C158  C167  A    
C104  H4    S    
C193  H53   S    
C84   H114  S    
C9    C43   S    
C195  H55   S    
N2    Ni1   S    
C70   H102  S    
C3    C8    A    
C6    C11   A    
C33   C50   A    
C152  C161  A    
C39   C195  A    
C177  C186  A    
C106  H6    S    
C185  C202  A    
C75   C76   A    
C216  C224  A    
C18   C44   A    
C27   N19   A    
C195  N8    A    
C154  C163  A    
C53   C58   A    
C25   N17   A    
C204  C212  A    
C164  C173  A    
C94   C201  S    
C15   C218  A    
C48   C58   S    
C163  C172  A    
C61   C196  S    
C173  C182  A    
C31   N24   A    
C181  N29   A    
C148  N23   A    
N18   N21   A    
C88   H117  S    
N15   N16   A    
C54   H76   S    
C68   C146  A    
C19   C44   A    
C38   C169  S    
C40   C181  A    
C129  H23   S    
C2    C121  S    
C24   C134  S    
C158  C211  A    
C189  H49   S    
C156  C209  A    
C182  C199  A    
C72   C73   A    
C65   H99   S    
N22   N26   A    
C139  C140  A    
C121  C127  A    
C100  C106  A    
C200  C209  A    
C157  H92   S    
C215  H2    S    
N20   Ni2   S    
C25   H64   S    
C130  C131  A    
C102  H128  S    
N17   Ni6   S    
C52   C124  A    
C5    C219  A    
C139  H32   S    
C120  H17   S    
C160  C168  A    
C27   H66   S    
C69   C70   A    
C35   C214  A    
C17   H56   S    
C180  C198  A    
N16   Ni5   S    
C149  H83   S    
C54   C141  A    
C88   C89   A    
C98   C99   A    
C10   C47   S    
N10   N11   A    
C30   H69   S    
C95   H123  S    
C124  C149  A    
C189  N3    A    
C62   H95   S    
C53   C135  A    
C202  C211  A    
C128  C129  A    
C123  H19   S    
C97   C98   A    
C160  H94   S    
C85   C86   A    
C108  C109  A    
C4    H43   S    
N5    N31   A    
C161  I1    S    
C7    C221  A    
C154  H89   S    
C78   C80   A    
C13   C57   A    
C115  C116  A    
C111  H10   S    
C28   C49   A    
C170  H74   S    
N11   Ni1   S    
C146  H81   S    
C107  C108  A    
N9    Ni3   S    
N5    Ni6   S    
C20   H59   S    
N10   Ni4   S    
C89   C91   A    
C56   C214  A    
C145  C150  A    
C110  H9    S    
C3    C217  A    
C161  C169  A    
N22   Ni8   S    
C3    H42   S    
C188  H48   S    
C171  C179  A    
C73   H105  S    
C191  H51   S    
C1    C34   A    
C21   C45   A    
C54   C59   A    
C191  N5    A    
C36   C172  S    
C23   C47   A    
N18   Ni4   S    
C136  H29   S    
C34   C190  A    
C42   C174  S    
C91   C92   A    
C40   C176  S    
C46   C144  A    
C165  C174  A    
C178  C196  A    
N3    Ni4   S    
N30   Ni7   S    
C66   H100  S    
N15   Ni8   S    
N14   Ni7   S    
C83   C84   A    
C14   C216  A    
C127  H22   S    
C29   H68   S    
C192  N30   A    
C6    C220  A    
C144  H79   S    
C194  H54   S    
C135  C147  A    
C25   C45   A    
C8    C222  A    
C129  C130  A    
C130  H25   S    
C184  C201  A    
C198  C207  A    
C7    H46   S    
C31   C51   A    
C93   H122  S    
N6    N30   A    
C37   C171  S    
N4    Ni3   S    
C145  H80   S    
C114  H11   S    
C13   C59   A    
C57   C101  A    
C79   C124  A    
C4    C218  A    
C183  C200  A    
C26   N18   A    
C50   C60   S    
C71   C72   A    
C117  C118  A    
C90   C135  A    
C9    C224  A    
C18   H57   S    
C1    N1    A    
C205  C210  S    
C87   C93   A    
C35   C79   A    
C199  C208  A    
C16   C220  A    
C194  N7    A    
C30   C50   A    
C61   C62   A    
C186  I8    S    
C63   C64   A    
C23   H62   S    
C51   C59   S    
C150  H84   S    
C190  H50   S    
C112  H41   S    
C27   C49   A    
C132  H27   S    
C6    H45   S    
C155  H90   S    
C7    C10   A    
C87   C88   A    
C76   H108  S    
C71   H103  S    
C181  H85   S    
C201  C210  A    
N24   Ni7   S    
C223  H39   S    
C184  I6    S    
C176  C185  A    
C224  H40   S    
C77   C78   A    
C147  H82   S    
C166  C175  A    
C18   N10   A    
C85   H115  S    
C220  H36   S    
C5    C11   A    
C221  H37   S    
N13   Ni2   S    
C123  C125  A    
C168  C177  A    
C125  H20   S    
C180  I3    S    
C143  H78   S    
C222  H38   S    
C100  C202  S    
C42   C191  A    
C36   C112  A    
C70   C71   A    
C67   C73   A    
C137  H30   S    
C26   C48   A    
C68   C113  A    
C172  C180  A    
C41   C175  S    
C187  H47   S    
C32   N25   A    
C74   C80   A    
C55   C60   A    
C126  H21   S    
C83   H113  S    
C203  N31   A    
C12   C213  A    
C39   C177  S    
C140  H33   S    
C159  N27   A    
C218  H34   S    
C84   C85   A    
C122  H18   S    
C155  C208  A    
C203  H107  S    
C136  C137  A    
N14   N17   A    
N12   Ni2   S    
C105  H5    S    
N6    Ni5   S    
C29   N21   A    
C63   H97   S    
C107  C114  A    
N9    N13   A    
C62   C63   A    
C22   H61   S    
C89   H119  S    
C116  H12   S    
C179  I2    S    
C164  I11   S    
C19   N11   A    
C121  C122  A    
C75   H106  S    
C117  H14   S    
C112  N12   A    
N23   Ni3   S    
C125  C126  A    
C185  I7    S    
N25   Ni6   S    
C11   C45   S    
N21   Ni1   S    
C131  C132  A    
C12   C217  A    
C1    H1    S    
C28   H67   S    
N24   N25   A    
C67   C197  S    
C174  C183  A    
C81   C199  S    
C119  C120  A    
C2    C58   A    
C190  N4    A    
C46   C90   A    
C72   H104  S    
C105  C106  A    
C153  C162  A    
C64   C65   A    
C142  C150  A    
C82   H112  S    
C34   C173  S    
C109  C110  A    
C156  C165  A    
C208  C211  S    
C92   C93   A    
C109  H8    S    
C86   H116  S    
C111  C114  A    
C37   C148  A    
C94   C95   A    
C33   H72   S    
C138  C139  A    
C24   C68   A    
C5    H44   S    
C82   C83   A    
C156  H91   S    
C103  C104  A    
C162  I9    S    
C38   C187  A    
C35   C143  A    
C175  C184  A    
C28   N20   A    
C64   H98   S    
C183  I5    S    
C26   H65   S    
C95   C96   A    
C217  H24   S    
C193  N6    A    
C17   C43   A    
C81   C82   A    
C32   C51   A    
C163  I10   S    
C40   C194  A    
C2    C46   A    
C143  C147  A    
C216  H13   S    
C21   H60   S    
C97   H125  S    
C39   C170  A    
C134  C140  A    
C92   H121  S    
C99   H127  S    
C37   C188  A    
C170  N28   A    
C15   C16   S    
C80   H111  S    
C116  C117  A    
C213  C222  A    
N1    Ni1   S    
C196  C205  A    
C118  C119  A    
C13   C128  S    
C101  C141  A    
C61   C66   A    
C132  C133  A    
C78   H110  S    
N19   Ni3   S    
N8    N28   A    
C153  H88   S    
C20   N13   A    
C152  H87   S    
C22   N15   A    
C102  C103  A    
N29   Ni6   S    
N26   Ni5   S    
C160  C212  A    
N27   Ni4   S    
C74   C75   A    
C29   C48   A    
C36   C189  A    
C74   C198  S    
C152  C205  A    
C76   C77   A    
N32   Ni2   S    
C138  H31   S    
C55   H77   S    
C134  C136  A    
C179  C197  A    
C21   N14   A    
C167  I14   S    
C159  H63   S    
C146  C151  A    
C115  C214  S    
C23   N16   A    
C67   C69   A    
C52   H73   S    
C15   C221  A    
C144  C149  A    
N27   N32   A    
C9    C223  A    
C133  H28   S    
C24   C60   A    
C182  I4    S    
C96   C97   A    
C100  C102  A    
C186  C204  A    
C98   H126  S    
N31   Ni8   S    
C12   C14   S    
C115  C120  A    
C168  I15   S    
C77   H109  S    
C207  C212  S    
C219  H35   S    
C53   H75   S    
C4    C10   A    
C169  C178  A    
C20   C43   A    
C141  C151  A    
C165  I12   S    
N7    Ni8   S    
C19   H58   S    
N8    Ni7   S    
N3    N12   A    
C41   C192  A    
C96   H124  S    
C8    C44   S    
C30   N22   A    
C215  C223  A    
C157  C166  A    
C31   H70   S    
C155  C164  A    
C49   C56   S    
C137  C138  A    
C148  H52   S    
C178  I16   S    
C107  C204  S    
C128  C133  A    
C166  I13   S    
C206  C209  S    
C94   C99   A    
N7    N29   A    
C192  H96   S    
C14   C215  A    
C153  C206  A    
C52   C56   A    
C157  C210  A    
C151  H86   S    
C65   C66   A    
C122  C123  A    
C154  C207  A    
N28   Ni5   S    
N19   N20   A    
C167  C176  A    
C108  H7    S    
