data_mof_unit_24710.cif
_audit_creation_date              2012-12-10T20:51:41-0500
_audit_creation_method            fapswitch 2.2
_symmetry_space_group_name_H-M    P1
_symmetry_Int_Tables_number       1
_space_group_crystal_system       triclinic
_cell_length_a                    8.097179
_cell_length_b                    8.921337
_cell_length_c                    16.684219
_cell_angle_alpha                 89.499225
_cell_angle_beta                  95.349352
_cell_angle_gamma                 90.130385
_cell_volume                      1199.93280253

loop_
_atom_site_label
_atom_site_type_symbol
_atom_type_description
_atom_site_fract_x
_atom_site_fract_y
_atom_site_fract_z
_atom_type_partial_charge
C1    C     C_R   0.499872 0.217961 0.500065 0.938513
C2    C     C_R   0.500105 0.782029 0.499830 0.934479
C3    C     C_R   0.522714 0.498069 0.653997 0.954104
C4    C     C_R   0.477235 0.498558 0.345764 0.935406
C5    C     C_R   0.538246 0.493440 0.741149 -0.177627
C6    C     C_R   0.457419 0.473750 0.259222 -0.188010
C7    C     C_R   0.438262 0.589135 0.782826 0.041770
C8    C     C_R   0.561870 0.370286 0.224836 0.021588
C9    C     C_R   0.421720 0.560069 0.864566 0.467850
C10   C     C_R   0.528072 0.330735 0.144076 0.478763
C11   C     C_R   0.524946 0.450979 0.905394 0.157518
C12   C     C_R   0.399506 0.404755 0.096556 0.145758
C13   C     C_R   0.634850 0.366927 0.864913 -0.338778
C14   C     C_R   0.292404 0.500946 0.131379 -0.323442
C15   C     C_R   0.639837 0.384476 0.782355 0.129892
C16   C     C_R   0.320809 0.537913 0.212320 0.157309
C17   C     C_1   0.499812 0.065194 0.499991 -0.198613
C18   C     C_1   0.500151 0.934786 0.499896 -0.202123
H1    H     H_    0.714109 0.284888 0.897610 0.189783
H2    H     H_    0.193979 0.556346 0.093834 0.181161
N1    N     N_1   0.073640 0.500030 0.499990 -0.034581
N2    N     N_1   0.926360 0.499970 0.500010 -0.033111
N3    N     N_2   0.531039 0.433958 0.989111 -0.094567
N4    N     N_2   0.392919 0.404835 0.012268 -0.144900
O1    O     O_R   0.636850 0.285340 0.500000 -0.604347
O2    O     O_R   0.363150 0.714660 0.500000 -0.602726
O3    O     O_R   0.363100 0.285350 0.500000 -0.625467
O4    O     O_R   0.636900 0.714650 0.500000 -0.623690
O5    O     O_R   0.652140 0.498630 0.616140 -0.610564
O6    O     O_R   0.347860 0.501370 0.383860 -0.601541
O7    O     O_R   0.378390 0.498650 0.616130 -0.608877
O8    O     O_R   0.621610 0.501350 0.383870 -0.603132
Zn1   Zn    Zn3+2 0.682780 0.499990 0.500010 0.986034
Zn2   Zn    Zn3+2 0.317220 0.500010 0.499990 0.989454
N5    N     N_2   0.697166 0.301665 0.272113 -0.277875
H3    H     H_    0.703485 0.187222 0.264716 0.239760
C19   C     C_3   0.855561 0.373995 0.265328 -0.658417
H4    H     H_    0.894135 0.360822 0.203574 0.242201
H5    H     H_    0.951092 0.322010 0.308908 0.225330
H6    H     H_    0.848406 0.495267 0.279173 0.238041
N6    N     N_2   0.360140 0.716415 0.742832 -0.280815
H7    H     H_    0.257681 0.757154 0.767518 0.257124
C20   C     C_3   0.472784 0.836390 0.725739 -0.764383
H8    H     H_    0.531233 0.884176 0.782845 0.239710
H9    H     H_    0.403125 0.926509 0.690991 0.234454
H10   H     H_    0.571067 0.795725 0.689212 0.230130
O9    O     O_3   0.632358 0.231886 0.109974 -0.603571
C21   C     C_3   0.548508 0.094289 0.096993 -0.322246
H11   H     H_    0.635033 0.012804 0.073569 0.203421
H12   H     H_    0.440170 0.105860 0.051230 0.181382
H13   H     H_    0.508657 0.047142 0.154152 0.143174
O10   O     O_3   0.320672 0.648901 0.906926 -0.598402
C22   C     C_3   0.156615 0.592709 0.896264 -0.330823
H14   H     H_    0.078592 0.658193 0.934480 0.197693
H15   H     H_    0.148888 0.473184 0.914848 0.170959
H16   H     H_    0.101792 0.604463 0.833053 0.149378
N7    N     N_2   0.740877 0.287725 0.740401 -0.288075
H17   H     H_    0.732051 0.176788 0.757520 0.222507
C23   C     C_3   0.911752 0.335875 0.741285 -0.723716
H18   H     H_    0.974279 0.328045 0.803346 0.212201
H19   H     H_    0.918984 0.453130 0.718867 0.252903
H20   H     H_    0.977982 0.262491 0.701486 0.236304
N8    N     N_2   0.214579 0.643262 0.245528 -0.275394
H21   H     H_    0.095291 0.644610 0.217714 0.222559
C24   C     C_3   0.283454 0.792599 0.254867 -0.762115
H22   H     H_    0.196431 0.864871 0.284695 0.237987
H23   H     H_    0.302334 0.841895 0.194990 0.228268
H24   H     H_    0.403557 0.790401 0.292894 0.227060

loop_
_geom_bond_atom_site_label_1
_geom_bond_atom_site_label_2
_ccdc_geom_bond_type
C3    O7    A    
C20   H8    S    
N8    C24   S    
C7    C9    A    
C19   H4    S    
C16   N8    S    
O5    Zn1   S    
C2    C18   S    
N6    C20   S    
N6    H7    S    
C12   N4    S    
C1    C17   S    
O9    C21   S    
C13   C15   A    
N3    N4    D    
C24   H24   S    
O8    Zn1   S    
C22   H16   S    
C21   H12   S    
C17   C18   T    
O7    Zn2   S    
C23   H18   S    
C2    O2    A    
N1    N2    T    
C1    O1    A    
C20   H9    S    
C15   N7    S    
C3    O5    A    
N7    H17   S    
C4    O8    A    
C9    O10   S    
C10   C12   A    
C9    C11   A    
C8    C10   A    
C21   H11   S    
N5    C19   S    
C12   C14   A    
O4    Zn1   S    
C19   H6    S    
C5    C7    A    
C22   H15   S    
O3    Zn2   S    
C20   H10   S    
C14   C16   A    
C5    C15   A    
C4    C6    S    
N7    C23   S    
O6    Zn2   S    
C6    C16   A    
N8    H21   S    
C14   H2    S    
C11   C13   A    
O10   C22   S    
C19   H5    S    
C24   H22   S    
C23   H19   S    
C11   N3    S    
C10   O9    S    
C1    O3    A    
N2    Zn1   S    
C13   H1    S    
C2    O4    A    
C23   H20   S    
C6    C8    A    
N1    Zn2   S    
C3    C5    S    
C22   H14   S    
O2    Zn2   S    
C21   H13   S    
C4    O6    A    
N5    H3    S    
C7    N6    S    
O1    Zn1   S    
C24   H23   S    
C8    N5    S    
