data_mof_unit_47739.cif
_audit_creation_date              2012-12-11T18:11:20-0500
_audit_creation_method            fapswitch 2.2
_symmetry_space_group_name_H-M    P1
_symmetry_Int_Tables_number       1
_space_group_crystal_system       triclinic
_cell_length_a                    8.384398
_cell_length_b                    13.134868
_cell_length_c                    18.636573
_cell_angle_alpha                 100.765318
_cell_angle_beta                  90.499158
_cell_angle_gamma                 99.627273
_cell_volume                      1986.1984676

loop_
_atom_site_label
_atom_site_type_symbol
_atom_type_description
_atom_site_fract_x
_atom_site_fract_y
_atom_site_fract_z
_atom_type_partial_charge
Ba1   Ba    Ba6+2 0.852780 0.548340 0.465070 1.271513
Ba2   Ba    Ba6+2 0.337060 0.451750 0.534940 1.251825
C1    C     C_3   0.571880 0.841772 0.203861 0.308800
C2    C     C_3   0.604967 0.782557 0.264183 0.654866
C3    C     C_3   0.489642 0.251430 0.306938 0.289377
C4    C     C_3   0.521780 0.209466 0.227336 0.182808
C5    C     C_3   0.120223 0.235336 0.732408 0.713010
C6    C     C_3   0.163249 0.205607 0.804517 -0.245540
C7    C     C_3   0.555309 0.203001 0.706554 0.707781
C8    C     C_3   0.598453 0.118378 0.745318 -0.312520
C9    C     C_R   0.991823 0.444416 0.048002 0.059055
C10   C     C_R   0.897996 0.390854 0.096513 -0.024215
C11   C     C_R   0.762882 0.423406 0.956399 -0.072108
C12   C     C_3   0.151892 0.787405 0.262377 0.918755
C13   C     C_R   0.927864 0.456412 0.978676 -0.027456
C14   C     C_R   0.703162 0.435939 0.889046 -0.034742
C15   C     C_R   0.804869 0.479939 0.839232 0.022330
C16   C     C_R   0.969841 0.518948 0.860947 0.004327
C17   C     C_R   0.030784 0.506965 0.930848 0.067848
C18   C     C_R   0.747255 0.482927 0.767677 -0.021213
C19   C     C_R   0.853020 0.528284 0.719633 0.224750
C20   C     C_R   0.018281 0.564065 0.738934 0.086508
C21   C     C_R   0.074724 0.568435 0.812715 -0.138673
C22   C     C_R   0.157177 0.484453 0.069025 0.066992
C23   C     C_3   0.110489 0.815659 0.189681 -0.070430
C24   C     C_R   0.220889 0.478749 0.139728 -0.014249
C25   C     C_R   0.117410 0.434507 0.190210 -0.057063
C26   C     C_R   0.960027 0.385053 0.165139 0.028264
C27   C     C_R   0.228423 0.622380 0.842513 0.422300
C28   C     C_R   0.287136 0.608333 0.909219 -0.093313
C29   C     C_R   0.194842 0.546060 0.952525 -0.018469
C30   C     C_R   0.259719 0.530123 0.019633 -0.005279
C31   C     C_R   0.426985 0.554554 0.037143 -0.153101
C32   C     C_R   0.387572 0.517520 0.159668 -0.090143
C33   C     C_R   0.491794 0.547968 0.105247 0.413350
C34   C     C_3   0.236634 0.773909 0.609073 0.334984
C35   C     C_R   0.444306 0.521048 0.232540 0.031093
C36   C     C_R   0.341296 0.477395 0.281670 0.166512
C37   C     C_R   0.175356 0.438787 0.263269 0.031699
C38   C     C_R   0.749082 0.179429 0.534290 0.048352
C39   C     C_R   0.439313 0.803319 0.459746 0.064153
C40   C     C_R   0.405277 0.974166 0.436596 0.347613
C41   C     C_R   0.345382 0.868047 0.432897 -0.032699
C42   C     C_R   0.582789 0.845139 0.502656 0.056595
C43   C     C_R   0.640398 0.958006 0.511798 -0.069235
C44   C     C_R   0.550716 0.023998 0.478442 -0.131708
C45   C     C_3   0.291937 0.892914 0.624272 0.257931
C46   C     C_R   0.608377 0.136673 0.490937 0.046997
C47   C     C_R   0.847901 0.115067 0.556270 0.025763
C48   C     C_R   0.790256 0.006319 0.549153 -0.125853
C49   C     C_3   0.966464 0.220597 0.382965 0.292251
C50   C     C_3   0.902765 0.103086 0.363581 0.297523
C51   C     C_3   0.755385 0.787443 0.702371 0.676211
C52   C     C_3   0.803442 0.887732 0.761284 0.200490
H1    H     H_    0.423616 0.912247 0.637981 0.049754
H2    H     H_    0.266301 0.925925 0.575750 -0.001223
H3    H     H_    0.879014 0.259850 0.417305 -0.018374
H4    H     H_    0.083880 0.233722 0.413263 0.087043
H5    H     H_    0.769304 0.089945 0.356721 0.093477
H6    H     H_    0.936488 0.063863 0.407884 0.076332
H7    H     H_    0.686645 0.724101 0.727763 0.021434
H8    H     H_    0.508737 0.908105 0.226577 0.065039
H9    H     H_    0.847677 0.955893 0.735077 0.109503
H10   H     H_    0.902099 0.878566 0.798494 0.083909
H11   H     H_    0.487282 0.745749 0.282188 -0.948232
H12   H     H_    0.492100 0.786798 0.160281 -0.031650
H13   H     H_    0.358109 0.253455 0.310749 0.018104
H14   H     H_    0.567259 0.329651 0.323546 0.083895
H15   H     H_    0.447271 0.130100 0.208493 0.107806
H16   H     H_    0.651257 0.201320 0.222788 0.123553
H17   H     H_    0.177565 0.773992 0.145565 -0.007359
H18   H     H_    0.222059 0.290785 0.717192 0.107534
H19   H     H_    0.266060 0.162299 0.798288 0.168945
H20   H     H_    0.197652 0.277643 0.847226 0.086356
H21   H     H_    0.058360 0.154259 0.822701 0.151367
H22   H     H_    0.663067 0.230632 0.677006 0.075305
H23   H     H_    0.693829 0.152921 0.788765 0.164020
H24   H     H_    0.644014 0.057171 0.705297 0.084061
H25   H     H_    0.490754 0.081234 0.770862 0.217395
H26   H     H_    0.574670 0.411447 0.877066 0.100024
H27   H     H_    0.881567 0.340819 0.198203 0.114616
H28   H     H_    0.674740 0.389258 0.990681 0.093109
H29   H     H_    0.775246 0.351381 0.082889 0.116717
H30   H     H_    0.403154 0.654667 0.929108 0.128461
H31   H     H_    0.281297 0.820414 0.275255 -0.325132
H32   H     H_    0.511950 0.574278 0.996711 0.070040
H33   H     H_    0.865848 0.960332 0.571800 0.150423
H34   H     H_    0.978916 0.791854 0.175996 0.187157
H35   H     H_    0.146395 0.901448 0.192090 0.132811
H36   H     H_    0.330990 0.734972 0.580538 -0.021639
H37   H     H_    0.123686 0.754753 0.574512 0.090184
O1    O     O_2   0.873090 0.425890 0.325140 -0.433857
O2    O     O_3   0.654209 0.809761 0.649245 -0.644619
O3    O     O_3   0.058252 0.833654 0.317251 -0.441443
O4    O     O_2   0.316610 0.574140 0.674900 -0.422724
O5    O     O_3   0.067290 0.565720 0.585630 -0.366407
O6    O     O_3   0.530210 0.372990 0.631200 -0.360950
O7    O     O_3   0.211636 0.741341 0.675712 -0.512001
O8    O     O_3   0.611340 0.366290 0.463630 -0.359706
O9    O     O_3   0.108550 0.314140 0.595200 -0.377420
O10   O     O_2   0.179348 0.120823 0.544562 -0.414517
O11   O     O_3   0.085635 0.144244 0.678187 -0.539547
O12   O     O_3   0.122420 0.434370 0.414380 -0.403190
O13   O     O_3   0.578370 0.633800 0.536380 -0.356045
O14   O     O_2   0.341510 0.231850 0.465510 -0.407698
O15   O     O_3   0.530562 0.182010 0.349160 -0.619038
O16   O     O_2   0.407899 0.458574 0.756071 -0.492491
O17   O     O_3   0.511424 0.284301 0.759011 -0.619337
O18   O     O_3   0.659500 0.627100 0.368810 -0.325329
O19   O     O_2   0.781379 0.532881 0.246941 -0.372758
O20   O     O_3   0.985755 0.258816 0.318231 -0.606462
O21   O     O_3   0.705836 0.709979 0.238523 -0.527553
O22   O     O_2   0.848200 0.768190 0.534530 -0.431560
O23   O     O_3   0.081160 0.685950 0.404810 -0.372615
O24   O     O_2   0.019441 0.873248 0.457422 -0.417272
P1    P     P_3+3 0.041040 0.394770 0.336330 1.039362
P2    P     P_3+3 0.672880 0.754030 0.556100 1.200513
P3    P     P_3+3 0.128816 0.817320 0.402720 1.140732
P4    P     P_3+3 0.148670 0.605320 0.663680 1.223598
P5    P     P_3+3 0.056772 0.175790 0.592130 1.042330
P6    P     P_3+3 0.645445 0.594872 0.272450 1.224522
P7    P     P_3+3 0.523696 0.231020 0.443521 1.124520
P8    P     P_3+3 0.550273 0.403427 0.727531 0.982421
Cl1   Cl    Cl    0.705213 0.870698 0.340378 -0.630766
Cl2   Cl    Cl    0.191106 0.954446 0.699592 -0.602217
Cl3   Cl    Cl    0.978855 0.044596 0.279256 -0.524001
O25   O     O_3   0.895011 0.756545 0.673407 -0.714428
H38   H     H_    0.951163 0.741195 0.715875 0.254931
Cl4   Cl    Cl    0.640014 0.916425 0.816996 -0.585822
O26   O     O_3   0.488320 0.278959 0.182857 -0.750871
H39   H     H_    0.368715 0.268142 0.175921 0.301796
O27   O     O_3   0.716863 0.880790 0.174001 -0.618637
H40   H     H_    0.686470 0.918619 0.135978 0.323693
Cl5   Cl    Cl    0.949639 0.297189 0.746576 -0.852900
O28   O     O_3   0.424905 0.160325 0.656694 -0.683067
H41   H     H_    0.463018 0.107609 0.618573 0.269104
O29   O     O_3   0.119434 0.677543 0.254329 -0.714493
H42   H     H_    0.212058 0.657294 0.278224 0.256077
O30   O     O_3   0.796912 0.537933 0.651842 -0.650676
H43   H     H_    0.685794 0.553978 0.656188 0.312436
Cl6   Cl    Cl    0.342792 0.727660 0.810828 -0.580371
O31   O     O_3   0.657671 0.563973 0.116755 -0.701208
H44   H     H_    0.712355 0.592013 0.075809 0.306862
O32   O     O_3   0.409714 0.475087 0.348619 -0.657890
H45   H     H_    0.359381 0.411792 0.365957 0.296944
Cl7   Cl    Cl    0.290451 0.032006 0.381005 -0.630594
Cl8   Cl    Cl    0.803832 0.316710 0.562356 -0.604009
Cl9   Cl    Cl    0.375839 0.667494 0.437369 -0.612738

loop_
_geom_bond_atom_site_label_1
_geom_bond_atom_site_label_2
_ccdc_geom_bond_type
C4    H15   S    
C32   C35   A    
O5    P4    S    
O16   P8    D    
C4    O26   S    
C17   C29   A    
Ba1   O8    S    
C8    H24   S    
O28   H41   S    
C51   C52   S    
C7    O17   S    
C13   C17   A    
C24   C25   A    
C27   C28   A    
Ba1   O22   S    
C10   C26   A    
C21   C27   A    
Ba2   O4    S    
C22   C24   A    
C32   C33   A    
O19   P6    D    
C46   P7    S    
C28   C29   A    
C47   P5    S    
C14   C15   A    
C52   H9    S    
C38   C47   A    
C9    C22   A    
C15   C18   A    
C2    Cl1   S    
C34   C45   S    
C4    H16   S    
Ba1   Ba2   S    
C40   C44   A    
C2    H11   S    
C18   P8    S    
C50   H6    S    
Ba1   O18   S    
C9    C13   A    
C24   C32   A    
Ba2   O6    S    
C25   C37   A    
O27   H40   S    
C5    O11   S    
O20   P1    S    
O9    P5    S    
C7    H22   S    
C51   O25   S    
C7    C8    S    
Ba1   O12   S    
C3    H13   S    
C2    O21   S    
Ba2   O9    S    
C19   C20   A    
C39   C41   A    
C20   P4    S    
O2    P2    S    
C35   P6    S    
C3    H14   S    
C8    H23   S    
C45   Cl2   S    
C3    O15   S    
C36   C37   A    
C44   C46   A    
C51   O2    S    
C1    O27   S    
O7    P4    S    
C5    Cl5   S    
C5    H18   S    
C50   Cl3   S    
C16   C17   A    
C33   O31   S    
O4    P4    D    
C43   C44   A    
C11   H28   S    
C6    H21   S    
C16   C21   A    
C10   H29   S    
C14   H26   S    
C31   H32   S    
C22   C30   A    
C35   C36   A    
C50   H5    S    
C29   C30   A    
C12   O29   S    
Ba2   O13   S    
O30   H43   S    
O24   P3    D    
C27   Cl6   S    
O15   P7    S    
C6    H20   S    
C15   C16   A    
C49   H4    S    
Ba1   P2    S    
O1    P1    D    
Ba1   O13   S    
O23   P3    S    
C48   H33   S    
O8    P7    S    
C23   H17   S    
C7    O28   S    
C34   H37   S    
Ba1   P1    S    
Ba2   O8    S    
C47   C48   A    
Ba1   O1    S    
C11   C13   A    
C39   C42   A    
O22   P2    D    
C1    H12   S    
Ba1   O23   S    
C19   O30   S    
O17   P8    S    
C51   H7    S    
O25   H38   S    
C40   Cl7   S    
O11   P5    S    
C42   C43   A    
C45   H1    S    
O13   P2    S    
C1    H8    S    
C34   H36   S    
C38   C46   A    
C52   Cl4   S    
C49   O20   S    
C38   Cl8   S    
C26   H27   S    
O31   H44   S    
O10   P5    D    
C36   O32   S    
C12   H31   S    
O32   H45   S    
C8    H25   S    
O29   H42   S    
Ba2   O14   S    
C23   H35   S    
C30   C31   A    
Ba2   O5    S    
O12   P1    S    
C49   C50   S    
O6    P8    S    
C43   C48   A    
O3    P3    S    
O18   P6    S    
C3    C4    S    
C39   Cl9   S    
C52   H10   S    
Ba2   O12   S    
Ba1   O5    S    
Ba2   P4    S    
C6    H19   S    
C31   C33   A    
O14   P7    D    
O26   H39   S    
C23   H34   S    
C12   C23   S    
C28   H30   S    
C5    C6    S    
C41   P3    S    
C49   H3    S    
O21   P6    S    
C42   P2    S    
C18   C19   A    
C37   P1    S    
C40   C41   A    
C11   C14   A    
C25   C26   A    
C20   C21   A    
C34   O7    S    
C12   O3    S    
C1    C2    S    
C9    C10   A    
C45   H2    S    
