data_mof_unit_47689.cif
_audit_creation_date              2012-12-11T16:32:31-0500
_audit_creation_method            fapswitch 2.2
_symmetry_space_group_name_H-M    P1
_symmetry_Int_Tables_number       1
_space_group_crystal_system       triclinic
_cell_length_a                    6.944229
_cell_length_b                    14.422145
_cell_length_c                    15.871166
_cell_angle_alpha                 90.063228
_cell_angle_beta                  89.88342
_cell_angle_gamma                 90.121519
_cell_volume                      1589.50020284

loop_
_atom_site_label
_atom_site_type_symbol
_atom_type_description
_atom_site_fract_x
_atom_site_fract_y
_atom_site_fract_z
_atom_type_partial_charge
O1    O     O_R   0.361630 0.167340 0.164570 -0.514720
O2    O     O_R   0.638370 0.832660 0.835430 -0.514720
O3    O     O_R   0.690860 0.157560 0.338690 -0.546927
O4    O     O_R   0.309140 0.842440 0.661310 -0.546928
O5    O     O_R   0.861260 0.336420 0.339380 -0.544543
O6    O     O_R   0.138740 0.663580 0.660620 -0.544543
C1    C     C_R   0.521569 0.134590 0.367909 0.639035
C2    C     C_R   0.478431 0.865410 0.632091 0.639035
O7    O     O_R   0.691330 0.156310 0.165190 -0.514414
O8    O     O_R   0.308670 0.843690 0.834810 -0.514415
O9    O     O_R   0.861730 0.335160 0.164640 -0.523025
O10   O     O_R   0.138270 0.664840 0.835360 -0.523025
C3    C     C_R   0.522519 0.133867 0.136708 0.723182
C4    C     C_R   0.477481 0.866133 0.863292 0.723181
O11   O     O_R   0.361150 0.168600 0.339320 -0.544576
O12   O     O_R   0.638850 0.831400 0.660680 -0.544576
O13   O     O_3   0.527950 0.310560 0.252000 -0.367537
O14   O     O_3   0.472050 0.689440 0.748000 -0.367537
V1    V     V_3+5 0.802770 0.240990 0.251980 1.500455
V2    V     V_3+5 0.197230 0.759010 0.748020 1.500455
O15   O     O_R   0.191450 0.346190 0.165260 -0.525264
O16   O     O_R   0.808550 0.653810 0.834740 -0.525264
C5    C     C_R   0.023101 0.365834 0.134907 0.811265
C6    C     C_R   0.976899 0.634166 0.865093 0.811266
O17   O     O_R   0.190980 0.347440 0.338770 -0.547503
O18   O     O_R   0.809020 0.652560 0.661230 -0.547503
C7    C     C_R   0.022212 0.369517 0.367664 0.648056
C8    C     C_R   0.977788 0.630483 0.632336 0.648057
V3    V     V_3+5 0.302780 0.262760 0.251980 1.500783
V4    V     V_3+5 0.697220 0.737240 0.748020 1.500783
O19   O     O_3   0.027730 0.193200 0.251960 -0.355520
O20   O     O_3   0.972270 0.806800 0.748040 -0.355520
C9    C     C_3   0.922090 0.419236 0.524793 -0.142854
C10   C     C_3   0.077910 0.580764 0.475207 -0.142853
C11   C     C_3   0.095836 0.467889 0.567314 -0.150710
C12   C     C_3   0.904163 0.532111 0.432686 -0.150711
H1    H     H_    0.174492 0.441927 0.623355 0.119226
H2    H     H_    0.825508 0.558073 0.376645 0.119226
H3    H     H_    0.858004 0.352138 0.544762 0.099094
H4    H     H_    0.141996 0.647861 0.455238 0.099094
C13   C     C_3   0.988152 0.560845 0.562126 0.000135
C14   C     C_3   0.011848 0.439155 0.437874 0.000134
C15   C     C_3   0.814189 0.513025 0.520424 -0.106257
C16   C     C_3   0.185811 0.486974 0.479576 -0.106257
H5    H     H_    0.660948 0.524076 0.537747 0.110760
H6    H     H_    0.339052 0.475924 0.462253 0.110760
H7    H     H_    0.979949 0.328833 0.741810 0.111269
H8    H     H_    0.020051 0.671167 0.258190 0.111269
C17   C     C_R   0.994881 0.693579 0.045517 0.339017
C18   C     C_R   0.005119 0.306421 0.954483 0.339017
C19   C     C_R   0.003563 0.717992 0.130594 -0.072301
C20   C     C_R   0.996437 0.282008 0.869406 -0.072302
C21   C     C_R   0.013875 0.650947 0.192521 -0.090980
C22   C     C_R   0.986125 0.349053 0.807479 -0.090980
C23   C     C_R   0.016981 0.557979 0.170610 -0.049985
C24   C     C_R   0.983019 0.442021 0.829390 -0.049985
C25   C     C_R   0.009381 0.529067 0.085209 0.054653
C26   C     C_R   0.990619 0.470932 0.914791 0.054653
C27   C     C_R   0.997063 0.597501 0.020502 0.029900
C28   C     C_R   0.002937 0.402499 0.979498 0.029900
C29   C     C_R   0.012987 0.432970 0.065012 -0.158299
C30   C     C_R   0.987013 0.567029 0.934988 -0.158299
H9    H     H_    0.001733 0.790286 0.149232 0.145437
H10   H     H_    0.998267 0.209714 0.850768 0.145437
H11   H     H_    0.025451 0.509126 0.222095 0.073451
H12   H     H_    0.974549 0.490874 0.777905 0.073451
C31   C     C_3   0.321622 0.026666 0.478788 -0.109741
C32   C     C_3   0.678378 0.973334 0.521212 -0.109741
C33   C     C_3   0.399157 0.926032 0.473555 -0.139580
C34   C     C_3   0.600843 0.073968 0.526445 -0.139580
H13   H     H_    0.315601 0.864957 0.451548 0.096516
H14   H     H_    0.684399 0.135043 0.548452 0.096515
H15   H     H_    0.173597 0.048429 0.461515 0.106662
H16   H     H_    0.826402 0.951571 0.538485 0.106662
C35   C     C_3   0.490024 0.937257 0.561620 -0.005844
C36   C     C_3   0.509976 0.062743 0.438380 -0.005844
C37   C     C_3   0.412557 0.037236 0.567484 -0.143400
C38   C     C_3   0.587443 0.962763 0.432516 -0.143400
H17   H     H_    0.339917 0.068150 0.623154 0.099944
H18   H     H_    0.660082 0.931850 0.376846 0.099944
H19   H     H_    0.527316 0.817624 0.250297 0.140482
H20   H     H_    0.472684 0.182376 0.749703 0.140482
C39   C     C_R   0.504796 0.192133 0.962949 -0.101970
C40   C     C_R   0.495204 0.807867 0.037051 -0.101970
C41   C     C_R   0.493586 0.222703 0.879784 0.419221
C42   C     C_R   0.506414 0.777297 0.120216 0.419221
C43   C     C_R   0.481133 0.158719 0.814312 -0.189221
C44   C     C_R   0.518867 0.841280 0.185687 -0.189221
C45   C     C_R   0.479361 0.063934 0.831554 -0.206095
C46   C     C_R   0.520639 0.936066 0.168446 -0.206095
C47   C     C_R   0.489381 0.030982 0.915355 0.075111
C48   C     C_R   0.510619 0.969018 0.084645 0.075111
C49   C     C_R   0.502216 0.096366 0.982373 0.049180
C50   C     C_R   0.497784 0.903633 0.017627 0.049180
C51   C     C_R   0.487439 0.934635 0.933012 -0.099936
C52   C     C_R   0.512561 0.065365 0.066988 -0.099936
H21   H     H_    0.514880 0.244209 0.011912 0.143002
H22   H     H_    0.485119 0.755791 0.988087 0.143002
H23   H     H_    0.469840 0.016887 0.778556 0.103395
H24   H     H_    0.530159 0.983112 0.221444 0.103395
Cl1   Cl    Cl    0.493975 0.341985 0.857824 -0.704642
Cl2   Cl    Cl    0.506025 0.658015 0.142176 -0.704642
Cl3   Cl    Cl    0.980884 0.790343 0.977747 -0.683382
Cl4   Cl    Cl    0.019116 0.209657 0.022253 -0.683382

loop_
_geom_bond_atom_site_label_1
_geom_bond_atom_site_label_2
_ccdc_geom_bond_type
C26   C30   A    
C18   Cl4   S    
C41   C43   A    
O13   V3    S    
C12   C14   S    
C31   C37   S    
O4    C2    A    
V1    O19   S    
C32   C35   S    
O9    V1    S    
C9    H3    S    
C45   H23   S    
C10   H4    S    
C9    C14   S    
C11   H1    S    
C36   C38   S    
O3    C1    A    
C38   H18   S    
C25   C27   A    
C32   H16   S    
H20   C43   S    
C39   C49   A    
C8    C13   S    
C48   C52   A    
C33   H13   S    
O7    C3    A    
C9    C11   S    
O5    C7    A    
O7    V1    S    
O6    C8    A    
C16   H6    S    
C17   C19   A    
C18   C20   A    
O3    V1    S    
C31   H15   S    
C45   C47   A    
O14   V2    S    
C37   H17   S    
C2    O12   A    
C34   C37   S    
O17   V3    S    
C13   C15   S    
C33   C38   S    
C10   C13   S    
C14   C16   S    
C11   C13   S    
C46   H24   S    
C23   H11   S    
C20   C22   A    
O11   V3    S    
C21   C23   A    
C32   C38   S    
H8    C21   S    
C22   C24   A    
C3    C52   S    
C9    C15   S    
C10   C16   S    
C20   H10   S    
O8    V2    S    
C1    O11   A    
O15   V3    S    
C2    C35   S    
C28   C29   A    
C19   C21   A    
C47   C49   A    
C15   H5    S    
C46   C48   A    
O10   V2    S    
O1    V3    S    
C19   H9    S    
C40   C50   A    
C11   C16   S    
C35   C37   S    
H7    C22   S    
O14   V4    S    
C39   C41   A    
C44   C46   A    
O18   V4    S    
C49   C52   A    
O15   C5    A    
C34   C36   S    
O16   C6    A    
O1    C3    A    
O12   V4    S    
C12   H2    S    
C42   Cl2   S    
C4    C51   S    
C41   Cl1   S    
V2    O20   S    
C27   C30   A    
C6    C30   S    
O16   V4    S    
C40   C42   A    
C17   Cl3   S    
C25   C29   A    
C1    C36   S    
O5    V1    S    
O17   C7    A    
O6    V2    S    
O10   C6    A    
O18   C8    A    
C17   C27   A    
O2    V4    S    
C40   H22   S    
C23   C25   A    
C18   C28   A    
V3    O19   S    
V4    O20   S    
C7    C14   S    
C48   C50   A    
C24   H12   S    
O9    C5    A    
O13   V1    S    
C10   C12   S    
C24   C26   A    
C33   C35   S    
C42   C44   A    
C50   C51   A    
O2    C4    A    
H19   C44   S    
C47   C51   A    
O4    V2    S    
C5    C29   S    
C32   C34   S    
C39   H21   S    
C43   C45   A    
C12   C15   S    
C34   H14   S    
C31   C36   S    
C31   C33   S    
C26   C28   A    
O8    C4    A    
