data_mof_unit_56863.cif
_audit_creation_date              2012-12-10T19:45:04-0500
_audit_creation_method            fapswitch 2.2
_symmetry_space_group_name_H-M    P1
_symmetry_Int_Tables_number       1
_space_group_crystal_system       triclinic
_cell_length_a                    15.003236
_cell_length_b                    10.921078
_cell_length_c                    13.726835
_cell_angle_alpha                 90.943701
_cell_angle_beta                  89.850824
_cell_angle_gamma                 89.260143
_cell_volume                      2248.66116634

loop_
_atom_site_label
_atom_site_type_symbol
_atom_type_description
_atom_site_fract_x
_atom_site_fract_y
_atom_site_fract_z
_atom_type_partial_charge
C1    C     C_R   0.488716 0.263010 0.499743 0.898762
C2    C     C_R   0.492510 0.738372 0.500764 0.899251
C3    C     C_R   0.050511 0.276057 0.480901 0.383827
C4    C     C_R   0.949391 0.721672 0.509678 0.397556
C5    C     C_R   0.362136 0.194891 0.182966 0.321304
C6    C     C_R   0.668872 0.888772 0.765532 0.355416
C7    C     C_R   0.371535 0.170185 0.281956 -0.302288
C8    C     C_R   0.620402 0.917563 0.682211 -0.343795
C9    C     C_R   0.451179 0.121091 0.317225 -0.003314
C10   C     C_R   0.529091 0.895015 0.676612 -0.052476
C11   C     C_R   0.527318 0.116411 0.257533 0.322504
C12   C     C_R   0.484808 0.842930 0.755990 0.389536
C13   C     C_R   0.522129 0.153842 0.159572 0.256780
C14   C     C_R   0.530626 0.827324 0.844943 0.193174
C15   C     C_R   0.437812 0.189567 0.121341 0.213192
C16   C     C_R   0.624433 0.840487 0.846568 0.226517
C17   C     C_R   0.442199 0.933509 0.417731 0.355640
C18   C     C_R   0.460491 0.068323 0.590709 0.381398
C19   C     C_R   0.472667 0.872497 0.502671 -0.206968
C20   C     C_R   0.466668 0.130338 0.500941 -0.261843
C21   C     C_R   0.480653 0.942212 0.590585 0.008512
C22   C     C_R   0.452022 0.062054 0.413795 -0.054186
C23   C     C_R   0.328954 0.500700 0.500168 0.884616
C24   C     C_R   0.670949 0.498379 0.499857 0.879375
C25   C     C_R   0.578132 0.482402 0.793009 0.094266
C26   C     C_R   0.422309 0.520780 0.206980 0.129900
C27   C     C_R   0.421714 0.512604 0.794417 0.170411
C28   C     C_R   0.577589 0.480000 0.205620 0.078661
C29   C     C_R   0.420081 0.512186 0.896969 -0.025356
C30   C     C_R   0.579166 0.480055 0.103028 -0.033700
C31   C     C_R   0.500053 0.495536 0.948277 0.097623
C32   C     C_R   0.499108 0.496084 0.051726 0.091161
C33   C     C_R   0.580845 0.479889 0.896158 -0.086480
C34   C     C_R   0.418951 0.518593 0.103884 -0.104533
C35   C     C_R   0.340307 0.532368 0.948631 -0.099736
C36   C     C_R   0.659465 0.465513 0.051342 -0.104408
C37   C     C_R   0.339056 0.540480 0.051194 0.432125
C38   C     C_R   0.661367 0.463728 0.948800 0.433360
C39   C     C_R   0.811194 0.606797 0.504865 -0.196613
C40   C     C_R   0.188833 0.391533 0.488019 -0.199790
C41   C     C_R   0.767147 0.495648 0.499430 -0.146499
C42   C     C_R   0.232627 0.502352 0.500459 -0.138304
C43   C     C_R   0.814119 0.384023 0.492752 0.345409
C44   C     C_R   0.185098 0.612869 0.512819 0.366985
C45   C     C_R   0.907898 0.384650 0.491021 -0.022624
C46   C     C_R   0.091595 0.612346 0.508343 -0.030815
C47   C     C_R   0.952905 0.497885 0.497749 -0.012366
C48   C     C_R   0.046784 0.499379 0.498072 -0.022361
C49   C     C_R   0.904104 0.609711 0.504217 0.048217
C50   C     C_R   0.095775 0.387992 0.488855 0.053272
C51   C     C_R   0.957688 0.275113 0.482690 -0.113038
C52   C     C_R   0.041957 0.722148 0.513242 -0.123234
Cu1   Cu    Cu3+1 0.500010 0.499980 0.597420 1.060791
Cu2   Cu    Cu3+1 0.499990 0.500020 0.402580 1.045531
H1    H     H_    0.771837 0.690550 0.510096 0.196848
H2    H     H_    0.228445 0.308400 0.479281 0.191457
H3    H     H_    0.638540 0.470108 0.751721 0.203557
H4    H     H_    0.362827 0.538762 0.248323 0.219638
H5    H     H_    0.359928 0.525275 0.755559 0.175319
H6    H     H_    0.638957 0.464088 0.244588 0.167453
H7    H     H_    0.279420 0.548247 0.908313 0.199855
H8    H     H_    0.721020 0.454757 0.091483 0.202172
H9    H     H_    0.925206 0.187423 0.477124 0.258173
H10   H     H_    0.074359 0.809924 0.518328 0.250317
H11   H     H_    0.313615 0.172572 0.329240 0.200928
H12   H     H_    0.653492 0.959186 0.621046 0.244259
N1    N     N_R   0.499960 0.499900 0.743810 -0.217912
N2    N     N_R   0.500040 0.500100 0.256190 -0.222036
O1    O     O_R   0.500000 0.319630 0.582270 -0.502415
O2    O     O_R   0.500000 0.680370 0.417730 -0.513457
O3    O     O_R   0.499990 0.319660 0.417730 -0.592899
O4    O     O_R   0.500010 0.680340 0.582270 -0.589571
O5    O     O_R   0.370260 0.499960 0.582280 -0.563929
O6    O     O_R   0.629740 0.500040 0.417720 -0.582503
O7    O     O_R   0.370250 0.499990 0.417740 -0.588250
O8    O     O_R   0.629750 0.500010 0.582260 -0.594079
S1    S     S_3+6 0.392341 0.852925 0.316795 0.080363
O9    O     O_2   0.463654 0.819501 0.243686 -0.186037
O10   O     O_2   0.347780 0.738493 0.349457 -0.263467
O11   O     O_3   0.313475 0.936282 0.261090 -0.467651
H13   H     H_    0.264110 0.943877 0.308986 0.376317
S2    S     S_3+6 0.426415 0.144904 0.702020 0.081641
O12   O     O_2   0.507331 0.192020 0.754189 -0.222774
O13   O     O_2   0.364425 0.250019 0.679523 -0.299017
O14   O     O_3   0.371274 0.052918 0.777196 -0.421104
H14   H     H_    0.338889 0.108419 0.823190 0.426188
S3    S     S_3+6 0.238338 0.589577 0.109200 0.084638
O15   O     O_2   0.251686 0.715760 0.151368 -0.218580
O16   O     O_2   0.163207 0.593890 0.037045 -0.195222
O17   O     O_3   0.210747 0.494911 0.199553 -0.486437
H15   H     H_    0.165614 0.540654 0.238973 0.387055
S4    S     S_3+6 0.765275 0.438811 0.889336 0.058712
O18   O     O_2   0.786902 0.548999 0.829924 -0.249092
O19   O     O_2   0.838368 0.417679 0.962090 -0.196526
O20   O     O_3   0.758087 0.315269 0.815043 -0.511642
H16   H     H_    0.813320 0.315518 0.775354 0.398064
Cl1   Cl    Cl    0.754052 0.245260 0.487846 -0.507028
Cl2   Cl    Cl    0.243380 0.750253 0.536218 -0.508664
Cl3   Cl    Cl    0.107016 0.133609 0.470239 -0.553075
Cl4   Cl    Cl    0.893455 0.864732 0.510192 -0.450459
Cl5   Cl    Cl    0.423595 0.220018 0.996465 -0.444408
Cl6   Cl    Cl    0.687029 0.794125 0.948658 -0.349071
S5    S     S_3+6 0.252318 0.203635 0.135832 0.137822
O21   O     O_2   0.244201 0.300280 0.059828 -0.175832
O22   O     O_2   0.230691 0.082177 0.089094 -0.184747
O23   O     O_3   0.178260 0.234643 0.225506 -0.466140
H17   H     H_    0.161394 0.153871 0.251091 0.379241
S6    S     S_3+6 0.783598 0.924280 0.769409 0.128114
O24   O     O_2   0.837458 0.807871 0.758525 -0.190589
O25   O     O_2   0.806863 0.009280 0.688425 -0.211477
O26   O     O_3   0.807968 0.992672 0.876575 -0.429474
H18   H     H_    0.872525 0.009947 0.872918 0.404388
Cl7   Cl    Cl    0.628384 0.059524 0.307039 -0.398148
Cl8   Cl    Cl    0.373171 0.796560 0.740823 -0.429365
S7    S     S_3+6 0.620689 0.142259 0.086837 0.142010
O27   O     O_2   0.692482 0.216535 0.134584 -0.253478
O28   O     O_2   0.650559 0.010506 0.084706 -0.114022
O29   O     O_3   0.607862 0.189065 0.971622 -0.453219
H19   H     H_    0.660128 0.155006 0.935715 0.417563
S8    S     S_3+6 0.470915 0.832203 0.957204 0.119730
O30   O     O_2   0.513625 0.751378 0.031309 -0.234486
O31   O     O_2   0.475429 0.961202 0.994845 -0.175888
O32   O     O_3   0.362913 0.796110 0.946051 -0.472342
H20   H     H_    0.332482 0.838231 0.001501 0.424351

loop_
_geom_bond_atom_site_label_1
_geom_bond_atom_site_label_2
_ccdc_geom_bond_type
S3    O15   D    
C5    S5    S    
C8    H12   S    
C38   S4    S    
C27   C29   A    
C34   C37   A    
O26   H18   S    
C25   N1    A    
Cu1   O1    S    
C11   Cl7   S    
O32   H20   S    
C39   C41   A    
S1    O9    D    
C4    Cl4   S    
C1    O3    A    
C23   C42   S    
C25   H3    S    
C4    C52   A    
C35   C37   A    
C36   H8    S    
C9    C22   S    
Cu2   N2    S    
O23   H17   S    
C45   C51   A    
S7    O27   D    
C18   C21   A    
C46   C52   A    
S6    O24   D    
O29   H19   S    
C17   C19   A    
Cu2   O6    S    
C44   Cl2   S    
C26   C34   A    
C39   H1    S    
Cu2   O3    S    
C47   C48   A    
C44   C46   A    
S7    O28   D    
C31   C33   A    
S8    O32   S    
C48   C50   A    
C24   C41   S    
C41   C43   A    
C42   C44   A    
C23   O5    A    
C2    O4    A    
S4    O19   D    
C3    C50   A    
S8    O31   D    
C12   Cl8   S    
C45   C47   A    
C10   C21   S    
C46   C48   A    
C51   H9    S    
C35   H7    S    
C52   H10   S    
C23   O7    A    
C5    C7    A    
C3    C51   A    
C24   O8    A    
C6    C8    A    
C40   H2    S    
O14   H14   S    
S4    O20   S    
C1    O1    A    
C32   C34   A    
C7    H11   S    
C26   H4    S    
C31   C32   A    
Cu2   O2    S    
S7    O29   S    
C17   S1    S    
S1    O10   D    
S5    O22   D    
C15   Cl5   S    
C9    C11   A    
C13   S7    S    
C28   H6    S    
C10   C12   A    
C16   Cl6   S    
C39   C49   A    
C12   C14   A    
S2    O13   D    
C13   C15   A    
C14   C16   A    
Cu1   O8    S    
S5    O21   D    
S8    O30   D    
S1    O11   S    
C7    C9    A    
C1    C20   S    
C28   N2    A    
C2    C19   S    
C37   S3    S    
C8    C10   A    
Cu1   O5    S    
C43   Cl1   S    
C20   C22   A    
O11   H13   S    
Cu1   Cu2   S    
C47   C49   A    
S2    O14   S    
C29   C35   A    
C14   S8    S    
C17   C22   A    
S6    O26   S    
C30   C36   A    
C4    C49   A    
C26   N2    A    
C36   C38   A    
C28   C30   A    
C43   C45   A    
C27   H5    S    
C30   C32   A    
C11   C13   A    
C24   O6    A    
O17   H15   S    
C40   C50   A    
C40   C42   A    
S4    O18   D    
C18   S2    S    
S6    O25   D    
S5    O23   S    
C18   C20   A    
Cu1   N1    S    
C5    C15   A    
C27   N1    A    
C6    C16   A    
Cu2   O7    S    
C3    Cl3   S    
C29   C31   A    
S2    O12   D    
S3    O17   S    
O20   H16   S    
S3    O16   D    
C6    S6    S    
C33   C38   A    
C2    O2    A    
Cu1   O4    S    
C25   C33   A    
C19   C21   A    
