data_mof_unit_32010.cif
_audit_creation_date              2013-03-05T15:52:30-0500
_audit_creation_method            fapswitch 2.2
_symmetry_space_group_name_H-M    P1
_symmetry_Int_Tables_number       1
_space_group_crystal_system       triclinic
_cell_length_a                    27.72086
_cell_length_b                    10.857771
_cell_length_c                    9.681307
_cell_angle_alpha                 88.361368
_cell_angle_beta                  90.859642
_cell_angle_gamma                 92.982802
_cell_volume                      2908.5406957

loop_
_atom_site_label
_atom_site_type_symbol
_atom_site_description
_atom_site_fract_x
_atom_site_fract_y
_atom_site_fract_z
_atom_type_partial_charge
O1    O     O_R   0.500000 0.319640 0.618810 -0.597601
O2    O     O_R   0.500000 0.319660 0.381240 -0.575766
C1    C     C_R   0.504077 0.263247 0.502344 0.787728
O3    O     O_R   0.430260 0.500010 0.618770 -0.570511
O4    O     O_R   0.430270 0.500030 0.381200 -0.580528
C2    C     C_R   0.407820 0.500829 0.498822 0.796825
Cu1   Cu    Cu3+1 0.500000 0.499990 0.640660 0.937174
Cu2   Cu    Cu3+1 0.500000 0.500010 0.359340 0.934829
O5    O     O_R   0.500000 0.680340 0.618760 -0.582216
O6    O     O_R   0.500000 0.680360 0.381190 -0.600992
O7    O     O_R   0.569730 0.499970 0.618800 -0.579040
O8    O     O_R   0.569740 0.499990 0.381230 -0.587796
C3    C     C_R   0.497262 0.737141 0.499026 0.777684
C4    C     C_R   0.592206 0.498043 0.500373 0.793548
C5    C     C_R   0.176776 0.399527 0.523591 0.515131
O9    O     O_2   0.200176 0.298364 0.563172 -0.602845
N1    N     N_R   0.202484 0.506709 0.491047 -0.459510
C6    C     C_R   0.180016 0.613009 0.458243 0.521839
C7    C     C_R   0.281437 0.578542 0.585659 -0.128637
C8    C     C_R   0.331697 0.577145 0.587611 -0.214546
C9    C     C_R   0.328096 0.435668 0.397788 -0.227227
C10   C     C_R   0.277834 0.436798 0.396132 -0.116456
C11   C     C_R   0.254285 0.507519 0.490756 0.365185
C12   C     C_R   0.102127 0.504221 0.491852 -0.059077
C13   C     C_R   0.126275 0.394496 0.516679 -0.002941
C14   C     C_R   0.099613 0.282409 0.535277 -0.162795
C15   C     C_R   0.129105 0.616890 0.467519 -0.064396
C16   C     C_R   0.355182 0.504236 0.495130 -0.009136
H1    H     H_    0.345783 0.379732 0.324843 0.145126
H2    H     H_    0.257124 0.382508 0.321725 0.128848
H3    H     H_    0.117334 0.197473 0.557460 0.182678
C17   C     C_R   0.644900 0.492577 0.498823 -0.067034
C18   C     C_R   0.973403 0.382235 0.480435 0.026327
C19   C     C_R   0.975786 0.607313 0.501540 0.052520
C20   C     C_R   0.949152 0.492719 0.491087 0.067895
C21   C     C_R   0.946031 0.272486 0.452799 -0.257898
C22   C     C_R   0.895614 0.269480 0.441922 0.006645
C23   C     C_R   0.870806 0.378482 0.462522 -0.064722
C24   C     C_R   0.897978 0.488876 0.491799 -0.057849
C25   C     C_R   0.874029 0.596180 0.521588 -0.006736
C26   C     C_R   0.823598 0.590020 0.529626 0.516751
N2    N     N_R   0.797643 0.485391 0.493178 -0.455027
C27   C     C_R   0.819912 0.383399 0.452116 0.528057
C28   C     C_R   0.719118 0.411864 0.593398 0.223988
C29   C     C_R   0.668621 0.414444 0.592011 -0.235688
C30   C     C_R   0.671596 0.562595 0.400004 -0.223072
C31   C     C_R   0.721660 0.558106 0.397714 -0.150970
C32   C     C_R   0.745786 0.484097 0.494465 0.361842
O10   O     O_2   0.792702 0.289166 0.399108 -0.537459
C33   C     C_R   0.024349 0.385263 0.497149 0.052962
C34   C     C_R   0.050930 0.500506 0.491196 0.067575
C35   C     C_R   0.026597 0.611684 0.485015 0.026423
C36   C     C_R   0.049597 0.277187 0.522322 -0.215314
H4    H     H_    0.647755 0.355667 0.663645 0.143867
H5    H     H_    0.963392 0.187660 0.434946 0.137949
H6    H     H_    0.031300 0.187854 0.538573 0.137752
O11   O     O_2   0.207089 0.712773 0.414304 -0.536972
C37   C     C_R   0.104027 0.727201 0.450076 0.006115
H7    H     H_    0.352233 0.632379 0.661613 0.140955
H8    H     H_    0.263520 0.633693 0.658805 0.132930
C38   C     C_R   0.950745 0.713187 0.530793 -0.214189
C39   C     C_R   0.900835 0.706763 0.544046 -0.160554
O12   O     O_2   0.800522 0.687756 0.573273 -0.586789
C40   C     C_R   0.053721 0.723424 0.461206 -0.258942
H9    H     H_    0.969208 0.801140 0.550136 0.137919
H10   H     H_    0.653741 0.621854 0.325600 0.151838
H11   H     H_    0.883275 0.789728 0.569576 0.182093
H12   H     H_    0.741951 0.613445 0.321554 0.137739
H13   H     H_    0.036170 0.809404 0.445677 0.138018
H14   H     H_    0.516706 0.120330 0.287612 0.177724
C41   C     C_R   0.520476 0.105155 0.760898 -0.245369
H15   H     H_    0.541779 0.191103 0.768045 0.171702
C42   C     C_R   0.506253 0.042219 0.882964 0.212408
C43   C     C_R   0.478027 0.930720 0.875238 0.218104
C44   C     C_R   0.470464 0.877311 0.746494 -0.207027
H16   H     H_    0.448348 0.792465 0.741323 0.163471
C45   C     C_R   0.490350 0.934074 0.625821 0.058053
C46   C     C_R   0.506801 0.058155 0.631573 0.047673
C47   C     C_R   0.509349 0.128972 0.507099 -0.098095
C48   C     C_R   0.510938 0.068137 0.382312 -0.204235
H17   H     H_    0.511691 0.895859 0.283168 0.160515
C49   C     C_R   0.506455 0.940524 0.379506 -0.214801
C50   C     C_R   0.495267 0.871852 0.500182 -0.086379
H18   H     H_    0.439769 0.377978 0.133836 0.144880
C51   C     C_R   0.561216 0.672244 0.135727 -0.185367
H19   H     H_    0.563801 0.684146 0.244415 0.202068
C52   C     C_R   0.587501 0.759314 0.054071 -0.281719
H20   H     H_    0.606756 0.836981 0.101211 0.164926
C53   C     C_R   0.593070 0.738329 0.914164 -0.152009
H21   H     H_    0.620115 0.794393 0.858027 0.152007
C54   C     C_R   0.577038 0.623190 0.865028 0.258328
C55   C     C_R   0.535514 0.567089 0.926689 0.162235
C56   C     C_R   0.532144 0.577845 0.073286 0.194603
N3    N     N_R   0.500460 0.501210 0.147910 -0.198702
C57   C     C_R   0.467107 0.431897 0.076430 -0.098737
C58   C     C_R   0.464642 0.438085 0.929508 0.054215
N4    N     N_R   0.500480 0.501290 0.852040 -0.223134
C59   C     C_R   0.128722 0.849222 0.422459 0.171232
C60   C     C_R   0.124565 0.906960 0.291527 -0.133870
C61   C     C_R   0.150357 0.018460 0.262176 -0.153648
C62   C     C_R   0.180524 0.072411 0.362985 -0.078363
C63   C     C_R   0.184053 0.016450 0.494464 -0.100959
C64   C     C_R   0.157565 0.906336 0.525132 -0.115050
H22   H     H_    0.102141 0.864401 0.211701 0.126058
H23   H     H_    0.147482 0.062162 0.160709 0.133041
H24   H     H_    0.201114 0.157549 0.339057 0.152157
H25   H     H_    0.207503 0.057811 0.572553 0.168774
H26   H     H_    0.160852 0.863173 0.626865 0.119988
C65   C     C_3   0.518754 0.099046 0.018657 -0.901757
H27   H     H_    0.540837 0.186932 0.006197 0.231755
H28   H     H_    0.484860 0.119554 0.070969 0.232866
H29   H     H_    0.539877 0.033967 0.082440 0.237172
C66   C     C_3   0.457188 0.865925 0.002077 -0.857082
H30   H     H_    0.434292 0.928613 0.057662 0.234897
H31   H     H_    0.434549 0.782134 0.975948 0.219010
H32   H     H_    0.486877 0.836436 0.070720 0.245091
C67   C     C_3   0.618881 0.540514 0.856281 -0.830998
H33   H     H_    0.644648 0.577903 0.777153 0.241327
H34   H     H_    0.638613 0.536266 0.957126 0.224015
H35   H     H_    0.606434 0.444028 0.835091 0.230333
C68   C     C_R   0.418531 0.388734 0.869537 0.165468
C69   C     C_R   0.414604 0.273114 0.808884 -0.109749
C70   C     C_R   0.369747 0.223056 0.764370 -0.176009
C71   C     C_R   0.327979 0.286284 0.785164 -0.087628
C72   C     C_R   0.331124 0.399248 0.851024 -0.128962
C73   C     C_R   0.376171 0.450812 0.892167 -0.180397
H36   H     H_    0.445810 0.220669 0.798936 0.157098
H37   H     H_    0.367307 0.134175 0.716164 0.138585
H38   H     H_    0.293175 0.247201 0.751718 0.158494
H39   H     H_    0.298705 0.447478 0.869100 0.137469
H40   H     H_    0.378039 0.538409 0.943351 0.121402
C74   C     C_3   0.744008 0.335472 0.702510 -0.850634
H41   H     H_    0.717985 0.293982 0.778948 0.225328
H42   H     H_    0.762229 0.259275 0.654465 0.250866
H43   H     H_    0.771175 0.394357 0.759041 0.234287
C75   C     C_R   0.870546 0.148604 0.415519 0.175711
C76   C     C_R   0.874850 0.093750 0.286998 -0.133821
C77   C     C_R   0.849898 0.981518 0.260350 -0.150411
C78   C     C_R   0.820527 0.923708 0.361573 -0.081903
C79   C     C_R   0.816736 0.976951 0.490556 -0.105704
C80   C     C_R   0.842211 0.088108 0.518387 -0.120604
H44   H     H_    0.896955 0.138729 0.207138 0.126378
H45   H     H_    0.852988 0.939911 0.160816 0.134500
H46   H     H_    0.800806 0.837597 0.340028 0.151201
H47   H     H_    0.794002 0.932377 0.569027 0.174607
H48   H     H_    0.839008 0.128623 0.618571 0.117579

loop_
_geom_bond_atom_site_label_1
_geom_bond_atom_site_label_2
_geom_bond_distance
_ccdc_geom_bond_type
C28   C32   1.413127 A    
C76   H44   1.083175 S    
C26   N2    1.364929 A    
C56   N3    1.376349 A    
C17   C29   1.400902 A    
C20   C24   1.417138 A    
C57   C58   1.422851 A    
C37   C59   1.478596 S    
C12   C15   1.415932 A    
C52   H20   1.082671 S    
C1    C47   1.472129 S    
H17   C49   1.078607 S    
C70   C71   1.396459 A    
C45   C46   1.402040 A    
Cu1   O7    1.947692 S    
C61   H23   1.082313 S    
N1    C11   1.435571 S    
C58   C68   1.477281 S    
C21   C22   1.398745 A    
C30   H10   1.083414 S    
C77   H45   1.082309 S    
C65   H28   1.109667 S    
C23   C24   1.415453 A    
O7    C4    1.314285 A    
C5    C13   1.398807 A    
C45   C50   1.419878 A    
C59   C64   1.404184 A    
C18   C21   1.409014 A    
C25   C39   1.399399 A    
Cu1   O5    1.963607 S    
C19   C20   1.418753 A    
C42   C43   1.410064 A    
C69   H36   1.067106 S    
O5    C3    1.300450 A    
C55   C56   1.432203 A    
C63   C64   1.396997 A    
C51   C56   1.414327 A    
C72   H39   1.082313 S    
C2    C16   1.461452 S    
C7    C8    1.393942 A    
C74   H41   1.110883 S    
C54   C67   1.508000 S    
C64   H26   1.083205 S    
C53   C54   1.398769 A    
C10   H2    1.082892 S    
C66   H32   1.104683 S    
C12   C34   1.417628 A    
C60   H22   1.083187 S    
C14   H3    1.081929 S    
C9    C10   1.393835 A    
N3    C57   1.355836 A    
O3    Cu1   1.941684 S    
C55   N4    1.382802 A    
N1    C6    1.367053 A    
C51   C52   1.397310 A    
C37   C40   1.398694 A    
C33   C36   1.410764 A    
C43   C44   1.398074 A    
H14   C48   1.073553 S    
C34   C35   1.412504 A    
C62   C63   1.399008 A    
Cu1   Cu2   2.723539 S    
Cu2   N3    2.046814 S    
C12   C13   1.409620 A    
C48   C49   1.385696 A    
C35   C40   1.408799 A    
C65   H29   1.109395 S    
C54   C55   1.406859 A    
C41   C42   1.399540 A    
C46   C47   1.411495 A    
C27   O10   1.348052 S    
C8    C16   1.401364 A    
C18   C33   1.417888 A    
C51   H19   1.064702 S    
C43   C66   1.505378 S    
C9    H1    1.083467 S    
O6    C3    1.317182 A    
C19   C38   1.411058 A    
C68   C73   1.407024 A    
O1    C1    1.307493 A    
H18   C57   1.083415 S    
C7    C11   1.401696 A    
C44   H16   1.081668 S    
C22   C23   1.419767 A    
C78   H46   1.082166 S    
C6    O11   1.347650 S    
C31   C32   1.401585 A    
Cu2   O8    1.941678 S    
C58   N4    1.393681 A    
C33   C34   1.418859 A    
C22   C75   1.479767 S    
C63   H25   1.081710 S    
N2    C32   1.437101 S    
C40   H13   1.080683 S    
C79   C80   1.397188 A    
C8    H7    1.083431 S    
C44   C45   1.411166 A    
C68   C69   1.399510 A    
C80   H48   1.083139 S    
C39   H11   1.082354 S    
O3    C2    1.309137 A    
C25   C26   1.399345 A    
C9    C16   1.402458 A    
O8    C4    1.302769 A    
C29   H4    1.082174 S    
C59   C60   1.403835 A    
C52   C53   1.392107 A    
C72   C73   1.398774 A    
C67   H35   1.109596 S    
N2    C27   1.367167 A    
C26   O12   1.348431 S    
C53   H21   1.083416 S    
C14   C36   1.388640 A    
C31   H12   1.083050 S    
C24   C25   1.409529 A    
C28   C29   1.401409 A    
C66   H30   1.109895 S    
C36   H6    1.079488 S    
C62   H24   1.082037 S    
C5    N1    1.364159 A    
C30   C31   1.391722 A    
Cu1   N4    2.046727 S    
O1    Cu1   1.975596 S    
C17   C30   1.400720 A    
Cu2   O6    1.975597 S    
O2    Cu2   1.963607 S    
C6    C15   1.418406 A    
C4    C17   1.465305 S    
C75   C76   1.404050 A    
C15   C37   1.420534 A    
C79   H47   1.081734 S    
O4    Cu2   1.947695 S    
C78   C79   1.398604 A    
C42   C65   1.495669 S    
C7    H8    1.082824 S    
C28   C74   1.505823 S    
C76   C77   1.398157 A    
C3    C50   1.466954 S    
C19   C35   1.418154 A    
C60   C61   1.397835 A    
C67   H34   1.112900 S    
O2    C1    1.313296 A    
C13   C14   1.399169 A    
C23   C27   1.416570 A    
C21   H5    1.080504 S    
C65   H27   1.111171 S    
C70   H37   1.082461 S    
O4    C2    1.306315 A    
C73   H40   1.083469 S    
C74   H43   1.110420 S    
C61   C62   1.397206 A    
C18   C20   1.412339 A    
C75   C80   1.404488 A    
C71   H38   1.082409 S    
C38   C39   1.389363 A    
C77   C78   1.397425 A    
C47   C48   1.395723 A    
C38   H9    1.079573 S    
C41   H15   1.081446 S    
C74   H42   1.108380 S    
C49   C50   1.397883 A    
C10   C11   1.401900 A    
C69   C70   1.397984 A    
C67   H33   1.109203 S    
C41   C46   1.404946 A    
C5    O9    1.347864 S    
C71   C72   1.396603 A    
C66   H31   1.111087 S    
