data_mof_unit_25146.cif
_audit_creation_date              2012-12-10T17:24:03-0500
_audit_creation_method            fapswitch 2.2
_symmetry_space_group_name_H-M    P1
_symmetry_Int_Tables_number       1
_space_group_crystal_system       triclinic
_cell_length_a                    21.794932
_cell_length_b                    21.775784
_cell_length_c                    18.322337
_cell_angle_alpha                 90.150889
_cell_angle_beta                  90.033742
_cell_angle_gamma                 89.983223
_cell_volume                      8695.78083471

loop_
_atom_site_label
_atom_site_type_symbol
_atom_type_description
_atom_site_fract_x
_atom_site_fract_y
_atom_site_fract_z
_atom_type_partial_charge
C1    C     C_R   0.999983 0.381535 0.499339 0.874249
C2    C     C_R   0.381523 0.000003 0.499720 0.872331
C3    C     C_R   0.999958 0.618469 0.500068 0.873612
C4    C     C_R   0.618600 0.999983 0.499800 0.850778
C5    C     C_R   0.499983 0.881535 0.999338 0.874249
C6    C     C_R   0.881524 0.500003 0.999719 0.872329
C7    C     C_R   0.499958 0.118469 0.000067 0.873608
C8    C     C_R   0.118600 0.499983 0.999800 0.850780
C9    C     C_R   0.999993 0.500133 0.360337 0.838857
C10   C     C_R   0.500140 0.999958 0.360319 0.821660
C11   C     C_R   0.000027 0.499829 0.639662 0.843108
C12   C     C_R   0.499975 0.000038 0.639680 0.824926
C13   C     C_R   0.499993 0.000133 0.860337 0.838847
C14   C     C_R   0.000140 0.499959 0.860319 0.821656
C15   C     C_R   0.500027 0.999829 0.139662 0.843114
C16   C     C_R   0.999975 0.500038 0.139680 0.824931
C17   C     C_1   0.000020 0.500051 0.282712 -0.195890
C18   C     C_1   0.500203 0.999918 0.282691 -0.210556
C19   C     C_1   0.000143 0.499911 0.717286 -0.197499
C20   C     C_1   0.500028 0.000057 0.717307 -0.210785
C21   C     C_1   0.500020 0.000050 0.782712 -0.195889
C22   C     C_1   0.000203 0.499918 0.782691 -0.210554
C23   C     C_1   0.500143 0.999911 0.217285 -0.197503
C24   C     C_1   0.000028 0.500057 0.217307 -0.210787
C25   C     C_R   0.022476 0.283854 0.560208 0.355439
C26   C     C_R   0.283681 0.976799 0.560259 0.355289
C27   C     C_R   0.978060 0.716668 0.561530 0.352106
C28   C     C_R   0.716856 0.036862 0.550065 0.355227
C29   C     C_R   0.021555 0.716425 0.438741 0.354536
C30   C     C_R   0.283301 0.023422 0.439281 0.352959
C31   C     C_R   0.977114 0.283089 0.438382 0.350977
C32   C     C_R   0.717018 0.962844 0.449982 0.354778
C33   C     C_R   0.522478 0.783855 0.060206 0.355440
C34   C     C_R   0.783682 0.476798 0.060257 0.355292
C35   C     C_R   0.478060 0.216668 0.061529 0.352109
C36   C     C_R   0.216856 0.536860 0.050067 0.355229
C37   C     C_R   0.521556 0.216426 0.938739 0.354531
C38   C     C_R   0.783301 0.523424 0.939280 0.352957
C39   C     C_R   0.477112 0.783088 0.938383 0.350976
C40   C     C_R   0.217018 0.462845 0.949981 0.354777
C41   C     C_R   0.026563 0.219855 0.558789 -0.120722
C42   C     C_R   0.219654 0.973455 0.558952 -0.122176
C43   C     C_R   0.974505 0.780745 0.559911 -0.118314
C44   C     C_R   0.781037 0.037530 0.550238 -0.128676
C45   C     C_R   0.026308 0.780415 0.440920 -0.113676
C46   C     C_R   0.219262 0.027273 0.441424 -0.118875
C47   C     C_R   0.973155 0.219001 0.440726 -0.117045
C48   C     C_R   0.781203 0.962193 0.450186 -0.127881
C49   C     C_R   0.526565 0.719855 0.058788 -0.120733
C50   C     C_R   0.719654 0.473454 0.058952 -0.122184
C51   C     C_R   0.474506 0.280745 0.059911 -0.118319
C52   C     C_R   0.281037 0.537528 0.050240 -0.128678
C53   C     C_R   0.526309 0.280415 0.940920 -0.113663
C54   C     C_R   0.719261 0.527275 0.941425 -0.118872
C55   C     C_R   0.473153 0.719001 0.940728 -0.117045
C56   C     C_R   0.281203 0.462194 0.950186 -0.127879
C57   C     C_R   0.999901 0.186796 0.500039 -0.251610
C58   C     C_R   0.186814 0.000266 0.500236 -0.253953
C59   C     C_R   0.000335 0.813186 0.500266 -0.251440
C60   C     C_R   0.813649 0.999996 0.500125 -0.243045
C61   C     C_R   0.499901 0.686796 0.000039 -0.251611
C62   C     C_R   0.686814 0.500266 0.000237 -0.253954
C63   C     C_R   0.500336 0.313186 0.000267 -0.251438
C64   C     C_R   0.313649 0.499996 0.000126 -0.243045
C65   C     C_R   0.880804 0.000093 0.500024 0.845258
C66   C     C_R   0.000234 0.119333 0.500086 0.840322
C67   C     C_R   0.119342 0.999975 0.500073 0.837930
C68   C     C_R   0.000184 0.880666 0.500008 0.841050
C69   C     C_R   0.380804 0.500093 0.000025 0.845259
C70   C     C_R   0.500234 0.619333 0.000086 0.840322
C71   C     C_R   0.619342 0.499975 0.000074 0.837930
C72   C     C_R   0.500184 0.380666 0.000008 0.841053
C73   C     C_R   0.999990 0.315146 0.499112 -0.255134
C74   C     C_R   0.315158 0.999954 0.499626 -0.255952
C75   C     C_R   0.999814 0.684861 0.500116 -0.255165
C76   C     C_R   0.685184 0.999953 0.499852 -0.256700
C77   C     C_R   0.499991 0.815146 0.999111 -0.255136
C78   C     C_R   0.815158 0.499954 0.999624 -0.255952
C79   C     C_R   0.499814 0.184861 0.000115 -0.255164
C80   C     C_R   0.185184 0.499953 0.999852 -0.256700
Cu1   Cu    Cu3+1 0.938190 0.500000 0.500000 0.956218
Cu2   Cu    Cu3+1 0.500000 0.061810 0.500000 0.964481
Cu3   Cu    Cu3+1 0.061810 0.500000 0.500000 0.954569
Cu4   Cu    Cu3+1 0.500000 0.938190 0.500000 0.963884
Cu5   Cu    Cu3+1 0.438190 0.000000 0.000000 0.956220
Cu6   Cu    Cu3+1 0.000000 0.561810 0.000000 0.964482
Cu7   Cu    Cu3+1 0.561810 0.000000 0.000000 0.954571
Cu8   Cu    Cu3+1 0.000000 0.438190 0.000000 0.963886
Cu9   Cu    Cu3+1 1.000000 0.000000 0.572530 0.966096
Cu10  Cu    Cu3+1 0.000000 0.000000 0.427470 0.969919
Cu11  Cu    Cu3+1 0.500000 0.500000 0.072530 0.966087
Cu12  Cu    Cu3+1 0.500000 0.500000 0.927470 0.969924
O1    O     O_R   0.947800 0.409840 0.500040 -0.580115
O2    O     O_R   0.409840 0.052200 0.500040 -0.578404
O3    O     O_R   0.052200 0.590160 0.500040 -0.581833
O4    O     O_R   0.590160 0.947800 0.500040 -0.562992
O5    O     O_R   0.947800 0.590160 0.499960 -0.581114
O6    O     O_R   0.409840 0.947800 0.499960 -0.578757
O7    O     O_R   0.052200 0.409840 0.499960 -0.580813
O8    O     O_R   0.590160 0.052200 0.499960 -0.562809
O9    O     O_R   0.447800 0.909840 0.000040 -0.580113
O10   O     O_R   0.909840 0.552200 0.000040 -0.578403
O11   O     O_R   0.552200 0.090160 0.000040 -0.581833
O12   O     O_R   0.090160 0.447800 0.000040 -0.562993
O13   O     O_R   0.447800 0.090160 0.999960 -0.581113
O14   O     O_R   0.909840 0.447800 0.999960 -0.578755
O15   O     O_R   0.552200 0.909840 0.999960 -0.580811
O16   O     O_R   0.090160 0.552200 0.999960 -0.562810
O17   O     O_R   0.947800 0.500020 0.394230 -0.589091
O18   O     O_R   0.500020 0.052200 0.394230 -0.582205
O19   O     O_R   0.052200 0.499980 0.394230 -0.590024
O20   O     O_R   0.499980 0.947800 0.394230 -0.590986
O21   O     O_R   0.947800 0.499980 0.605770 -0.588355
O22   O     O_R   0.500020 0.947800 0.605770 -0.582329
O23   O     O_R   0.052200 0.500020 0.605770 -0.589669
O24   O     O_R   0.499980 0.052200 0.605770 -0.590281
O25   O     O_R   0.447800 0.000020 0.894230 -0.589091
O26   O     O_R   0.000020 0.552200 0.894230 -0.582206
O27   O     O_R   0.552200 0.999980 0.894230 -0.590023
O28   O     O_R   0.999980 0.447800 0.894230 -0.590986
O29   O     O_R   0.447800 0.999980 0.105770 -0.588352
O30   O     O_R   0.000020 0.447800 0.105770 -0.582329
O31   O     O_R   0.552200 0.000020 0.105770 -0.589668
O32   O     O_R   0.999980 0.552200 0.105770 -0.590278
O33   O     O_R   0.909720 0.000020 0.561240 -0.586843
O34   O     O_R   0.000020 0.090280 0.561240 -0.582060
O35   O     O_R   0.090280 0.999980 0.561240 -0.581348
O36   O     O_R   0.999980 0.909720 0.561240 -0.580327
O37   O     O_R   0.909720 0.999980 0.438760 -0.585569
O38   O     O_R   0.000020 0.909720 0.438760 -0.578626
O39   O     O_R   0.090280 0.000020 0.438760 -0.579113
O40   O     O_R   0.999980 0.090280 0.438760 -0.578992
O41   O     O_R   0.409720 0.500020 0.061240 -0.586844
O42   O     O_R   0.500020 0.590280 0.061240 -0.582066
O43   O     O_R   0.590280 0.499980 0.061240 -0.581354
O44   O     O_R   0.499980 0.409720 0.061240 -0.580330
O45   O     O_R   0.409720 0.499980 0.938760 -0.585566
O46   O     O_R   0.500020 0.409720 0.938760 -0.578620
O47   O     O_R   0.590280 0.500020 0.938760 -0.579109
O48   O     O_R   0.499980 0.590280 0.938760 -0.578990
O49   O     O_3   0.041404 0.315760 0.621689 -0.563744
C81   C     C_3   0.989615 0.326412 0.666621 0.051778
H1    H     H_    0.957063 0.286848 0.667699 0.118188
H2    H     H_    0.964400 0.367638 0.647298 0.146931
C82   C     C_3   0.010740 0.337762 0.744489 -0.762834
H3    H     H_    0.041445 0.378226 0.746168 0.256891
H4    H     H_    0.970456 0.346722 0.780045 0.202368
H5    H     H_    0.035843 0.297013 0.765304 0.246828
O50   O     O_3   0.315384 0.955931 0.620866 -0.561326
C83   C     C_3   0.327729 0.006443 0.667443 0.051476
H6    H     H_    0.290376 0.041548 0.667797 0.110939
H7    H     H_    0.370899 0.029248 0.650244 0.146491
C84   C     C_3   0.335400 0.983627 0.745252 -0.737124
H8    H     H_    0.347307 0.022644 0.781750 0.198612
H9    H     H_    0.292050 0.962397 0.764538 0.244769
H10   H     H_    0.372558 0.949000 0.747728 0.256830
O51   O     O_3   0.957629 0.685292 0.622514 -0.562874
C85   C     C_3   0.008682 0.670743 0.667063 0.050311
H11   H     H_    0.045203 0.706667 0.666407 0.110398
H12   H     H_    0.029378 0.626816 0.648626 0.148281
C86   C     C_3   0.987468 0.663440 0.745601 -0.738163
H13   H     H_    0.026800 0.649736 0.780504 0.202096
H14   H     H_    0.968440 0.707456 0.766270 0.242081
H15   H     H_    0.951483 0.627652 0.748890 0.257113
O52   O     O_3   0.685107 0.074150 0.598361 -0.558650
C87   C     C_3   0.673652 0.041478 0.663561 0.072643
H16   H     H_    0.709366 0.006372 0.676633 0.111234
H17   H     H_    0.628695 0.017859 0.659125 0.139921
C88   C     C_3   0.671260 0.086743 0.726850 -0.738562
H18   H     H_    0.640081 0.125378 0.713486 0.261062
H19   H     H_    0.654549 0.063316 0.776801 0.209284
H20   H     H_    0.717759 0.105587 0.737445 0.247061
O53   O     O_3   0.039727 0.684867 0.376698 -0.564644
C89   C     C_3   0.987012 0.671872 0.334116 0.048306
H21   H     H_    0.952615 0.709869 0.334671 0.115890
H22   H     H_    0.964343 0.629589 0.354429 0.149466
C90   C     C_3   0.005993 0.661364 0.255307 -0.765709
H23   H     H_    0.038530 0.622416 0.252212 0.258265
H24   H     H_    0.964997 0.650419 0.221684 0.202004
H25   H     H_    0.028409 0.703131 0.233193 0.243010
O54   O     O_3   0.314593 0.045088 0.378823 -0.560955
C91   C     C_3   0.329199 0.994835 0.332804 0.050284
H26   H     H_    0.292884 0.958713 0.331736 0.108506
H27   H     H_    0.372654 0.973239 0.351136 0.146618
C92   C     C_3   0.337648 0.017676 0.255119 -0.737193
H28   H     H_    0.351380 0.978925 0.219146 0.200561
H29   H     H_    0.294104 0.037588 0.234458 0.241387
H30   H     H_    0.373790 0.053396 0.253549 0.257691
O55   O     O_3   0.955768 0.314201 0.377612 -0.562252
C93   C     C_3   0.006291 0.329562 0.332677 0.049159
H31   H     H_    0.043013 0.293831 0.332394 0.109446
H32   H     H_    0.026917 0.373396 0.351482 0.146949
C94   C     C_3   0.984302 0.337595 0.254510 -0.737219
H33   H     H_    0.948184 0.373316 0.252187 0.257161
H34   H     H_    0.023262 0.351753 0.219345 0.203280
H35   H     H_    0.965200 0.293773 0.233390 0.240324
O56   O     O_3   0.685446 0.925001 0.402131 -0.558210
C95   C     C_3   0.674363 0.956795 0.336211 0.072076
H36   H     H_    0.709698 0.992277 0.323212 0.109999
H37   H     H_    0.629010 0.979809 0.339472 0.141047
C96   C     C_3   0.673374 0.910802 0.273601 -0.741653
H38   H     H_    0.656891 0.933432 0.222997 0.209565
H39   H     H_    0.720254 0.892513 0.264094 0.245919
H40   H     H_    0.642639 0.871852 0.287023 0.261544
O57   O     O_3   0.541408 0.815761 0.121686 -0.563743
C97   C     C_3   0.489620 0.826409 0.166622 0.051783
H41   H     H_    0.457072 0.786842 0.167704 0.118192
H42   H     H_    0.464400 0.867632 0.147301 0.146926
C98   C     C_3   0.510750 0.837761 0.244488 -0.762829
H43   H     H_    0.541450 0.878228 0.246164 0.256889
H44   H     H_    0.470466 0.846718 0.280048 0.202369
H45   H     H_    0.535857 0.797015 0.265302 0.246832
O58   O     O_3   0.815386 0.455927 0.120863 -0.561326
C99   C     C_3   0.827726 0.506437 0.167444 0.051479
H46   H     H_    0.790370 0.541539 0.167801 0.110945
H47   H     H_    0.870894 0.529246 0.150248 0.146487
C100  C     C_3   0.835398 0.483616 0.245251 -0.737115
H48   H     H_    0.872559 0.448992 0.247724 0.256827
H49   H     H_    0.847301 0.522631 0.281753 0.198611
H50   H     H_    0.792049 0.462381 0.264534 0.244776
O59   O     O_3   0.457628 0.185291 0.122512 -0.562874
C101  C     C_3   0.508681 0.170744 0.167063 0.050313
H51   H     H_    0.545201 0.206669 0.166408 0.110400
H52   H     H_    0.529378 0.126818 0.148628 0.148281
C102  C     C_3   0.487464 0.163442 0.245600 -0.738162
H53   H     H_    0.451480 0.127652 0.248889 0.257112
H54   H     H_    0.526796 0.149740 0.280505 0.202095
H55   H     H_    0.468434 0.207458 0.266267 0.242086
O60   O     O_3   0.185107 0.574146 0.098365 -0.558651
C103  C     C_3   0.173651 0.541470 0.163562 0.072643
H56   H     H_    0.209365 0.506365 0.176633 0.111235
H57   H     H_    0.128694 0.517852 0.159124 0.139920
C104  C     C_3   0.171258 0.586733 0.226854 -0.738560
H58   H     H_    0.140078 0.625368 0.213492 0.261062
H59   H     H_    0.154546 0.563304 0.276803 0.209285
H60   H     H_    0.217757 0.605577 0.237452 0.247061
O61   O     O_3   0.539728 0.184869 0.876697 -0.564645
C105  C     C_3   0.487014 0.171869 0.834117 0.048303
H61   H     H_    0.452614 0.209864 0.834671 0.115886
H62   H     H_    0.464347 0.129584 0.854432 0.149466
C106  C     C_3   0.505994 0.161359 0.755307 -0.765716
H63   H     H_    0.538534 0.122413 0.752214 0.258267
H64   H     H_    0.464999 0.150410 0.721686 0.202009
H65   H     H_    0.528406 0.203127 0.733191 0.243002
O62   O     O_3   0.814591 0.545090 0.878823 -0.560954
C107  C     C_3   0.829201 0.494837 0.832804 0.050280
H66   H     H_    0.792887 0.458714 0.831736 0.108504
H67   H     H_    0.872656 0.473243 0.851138 0.146618
C108  C     C_3   0.837651 0.517678 0.755120 -0.737194
H68   H     H_    0.873791 0.553400 0.753551 0.257692
H69   H     H_    0.851385 0.478927 0.719148 0.200564
H70   H     H_    0.794106 0.537588 0.734457 0.241380
O63   O     O_3   0.455764 0.814200 0.877614 -0.562251
C109  C     C_3   0.506284 0.829562 0.832676 0.049159
H71   H     H_    0.543007 0.793831 0.832390 0.109445
H72   H     H_    0.526912 0.873396 0.851481 0.146946
C110  C     C_3   0.484294 0.837596 0.754511 -0.737214
H73   H     H_    0.448176 0.873317 0.752190 0.257161
H74   H     H_    0.523252 0.851755 0.719344 0.203283
H75   H     H_    0.465190 0.793775 0.733390 0.240322
O64   O     O_3   0.185447 0.425003 0.902128 -0.558209
C111  C     C_3   0.174363 0.456798 0.836210 0.072071
H76   H     H_    0.209700 0.492279 0.823211 0.109998
H77   H     H_    0.129012 0.479814 0.839472 0.141045
C112  C     C_3   0.173373 0.410806 0.773598 -0.741646
H78   H     H_    0.142635 0.371858 0.787020 0.261544
H79   H     H_    0.156889 0.433438 0.722995 0.209565
H80   H     H_    0.220251 0.392516 0.764091 0.245914
C113  C     C_R   0.061489 0.189351 0.617881 0.219702
C114  C     C_R   0.124576 0.178753 0.609516 -0.127486
C115  C     C_R   0.158041 0.150651 0.665337 -0.142904
C116  C     C_R   0.128767 0.133523 0.730032 -0.120757
C117  C     C_R   0.065994 0.144318 0.738871 -0.156777
C118  C     C_R   0.032453 0.172343 0.683090 -0.081428
H81   H     H_    0.147798 0.192838 0.560191 0.106940
H82   H     H_    0.206677 0.142347 0.658561 0.116394
H83   H     H_    0.154721 0.111896 0.773298 0.116094
H84   H     H_    0.043337 0.131040 0.788947 0.118128
H85   H     H_    0.983999 0.180479 0.690403 0.114950
C119  C     C_R   0.188632 0.939926 0.618703 0.223919
C120  C     C_R   0.175152 0.877310 0.610634 -0.123408
C121  C     C_R   0.145482 0.845536 0.666631 -0.136519
C122  C     C_R   0.129517 0.876059 0.731119 -0.114058
C123  C     C_R   0.143209 0.938369 0.739658 -0.155928
C124  C     C_R   0.172856 0.970226 0.683731 -0.085018
H86   H     H_    0.188006 0.853185 0.561316 0.105242
H87   H     H_    0.134982 0.797253 0.660092 0.114580
H88   H     H_    0.106612 0.851426 0.774492 0.115369
H89   H     H_    0.130854 0.961989 0.789577 0.117865
H90   H     H_    0.183129 0.018415 0.690737 0.108248
C125  C     C_R   0.941499 0.812621 0.619804 0.228347
C126  C     C_R   0.881754 0.834399 0.608193 -0.120161
C127  C     C_R   0.851380 0.867491 0.662756 -0.133399
C128  C     C_R   0.880497 0.878809 0.729434 -0.119225
C129  C     C_R   0.939976 0.857014 0.741540 -0.155998
C130  C     C_R   0.970472 0.824075 0.686903 -0.082952
H91   H     H_    0.859160 0.826045 0.556734 0.101779
H92   H     H_    0.805440 0.884609 0.653201 0.117519
H93   H     H_    0.857061 0.904615 0.771593 0.115383
H94   H     H_    0.962635 0.866023 0.793042 0.118160
H95   H     H_    0.016817 0.808446 0.696430 0.103015
C131  C     C_R   0.811954 0.079012 0.603132 0.187544
C132  C     C_R   0.810991 0.142754 0.591983 -0.107254
C133  C     C_R   0.836041 0.182458 0.644138 -0.152086
C134  C     C_R   0.860754 0.158880 0.708619 -0.141336
C135  C     C_R   0.860808 0.095563 0.720842 -0.155429
C136  C     C_R   0.835884 0.055755 0.668711 -0.098853
H96   H     H_    0.789475 0.161673 0.543796 0.123385
H97   H     H_    0.835458 0.231551 0.635074 0.125129
H98   H     H_    0.879552 0.189717 0.749302 0.120053
H99   H     H_    0.879519 0.077383 0.771066 0.120053
H100  H     H_    0.834701 0.006933 0.679590 0.119054
C137  C     C_R   0.062314 0.811552 0.383202 0.222942
C138  C     C_R   0.122112 0.831762 0.398371 -0.132222
C139  C     C_R   0.156247 0.862068 0.344892 -0.130794
C140  C     C_R   0.130900 0.872195 0.275863 -0.114244
C141  C     C_R   0.071299 0.852343 0.260443 -0.160385
C142  C     C_R   0.037036 0.822161 0.313920 -0.075154
H101  H     H_    0.142151 0.823861 0.451487 0.100715
H102  H     H_    0.202312 0.877649 0.356971 0.112782
H103  H     H_    0.157373 0.895485 0.234355 0.113619
H104  H     H_    0.051581 0.860467 0.207108 0.119436
H105  H     H_    0.990835 0.807673 0.301560 0.109500
C143  C     C_R   0.187598 0.062872 0.383736 0.226918
C144  C     C_R   0.166682 0.122500 0.398809 -0.126308
C145  C     C_R   0.135766 0.156083 0.345277 -0.128788
C146  C     C_R   0.125696 0.130321 0.276334 -0.111540
C147  C     C_R   0.146213 0.070848 0.261049 -0.157056
C148  C     C_R   0.177037 0.037144 0.314557 -0.080005
H106  H     H_    0.174459 0.142799 0.451893 0.100413
H107  H     H_    0.119665 0.202036 0.357261 0.112475
H108  H     H_    0.101956 0.156371 0.234770 0.113920
H109  H     H_    0.138132 0.050807 0.207790 0.118806
H110  H     H_    0.192120 0.991010 0.302301 0.101188
C149  C     C_R   0.937996 0.186820 0.382702 0.227334
C150  C     C_R   0.880121 0.162160 0.398698 -0.123515
C151  C     C_R   0.847773 0.128952 0.345850 -0.130390
C152  C     C_R   0.873043 0.120296 0.276500 -0.119528
C153  C     C_R   0.930701 0.144737 0.260086 -0.156604
C154  C     C_R   0.963190 0.177778 0.313018 -0.079362
H111  H     H_    0.860627 0.168240 0.452308 0.100640
H112  H     H_    0.803338 0.109638 0.358813 0.118006
H113  H     H_    0.848093 0.094428 0.235625 0.114703
H114  H     H_    0.950443 0.137691 0.206528 0.119174
H115  H     H_    0.008195 0.195320 0.300046 0.100831
C155  C     C_R   0.812508 0.919565 0.398992 0.190242
C156  C     C_R   0.813161 0.856322 0.413445 -0.109608
C157  C     C_R   0.839668 0.815431 0.363680 -0.151090
C158  C     C_R   0.864320 0.837293 0.298351 -0.133515
C159  C     C_R   0.862774 0.900084 0.282858 -0.151033
C160  C     C_R   0.836399 0.941085 0.332614 -0.100736
H116  H     H_    0.791896 0.838695 0.462421 0.121305
H117  H     H_    0.840298 0.766720 0.375266 0.123823
H118  H     H_    0.884040 0.805494 0.259397 0.116354
H119  H     H_    0.881423 0.916907 0.231966 0.119745
H120  H     H_    0.834262 0.989456 0.319398 0.117376
C161  C     C_R   0.561489 0.689353 0.117881 0.219691
C162  C     C_R   0.624580 0.678770 0.109527 -0.127476
C163  C     C_R   0.658044 0.650672 0.165351 -0.142924
C164  C     C_R   0.628766 0.633532 0.230040 -0.120773
C165  C     C_R   0.565989 0.644313 0.238868 -0.156772
C166  C     C_R   0.532449 0.672334 0.183084 -0.081437
H121  H     H_    0.647806 0.692865 0.060209 0.106953
H122  H     H_    0.706684 0.642380 0.158583 0.116403
H123  H     H_    0.654719 0.611908 0.273308 0.116099
H124  H     H_    0.543329 0.631026 0.288939 0.118126
H125  H     H_    0.483992 0.680459 0.190389 0.114962
C167  C     C_R   0.688634 0.439928 0.118705 0.223905
C168  C     C_R   0.675169 0.377307 0.110649 -0.123397
C169  C     C_R   0.645503 0.345535 0.166650 -0.136540
C170  C     C_R   0.629527 0.376064 0.231130 -0.114070
C171  C     C_R   0.643204 0.438379 0.239657 -0.155925
C172  C     C_R   0.672847 0.470234 0.183725 -0.085029
H126  H     H_    0.688033 0.353177 0.061337 0.105255
H127  H     H_    0.635015 0.297248 0.160120 0.114587
H128  H     H_    0.606624 0.351432 0.274506 0.115372
H129  H     H_    0.630840 0.462004 0.289569 0.117864
H130  H     H_    0.683109 0.518426 0.190722 0.108264
C173  C     C_R   0.441504 0.312620 0.119808 0.228347
C174  C     C_R   0.381754 0.334389 0.108207 -0.120152
C175  C     C_R   0.351384 0.367480 0.162773 -0.133409
C176  C     C_R   0.380509 0.378806 0.229444 -0.119227
C177  C     C_R   0.439992 0.357019 0.241540 -0.155996
C178  C     C_R   0.470485 0.324081 0.186900 -0.082963
H131  H     H_    0.359154 0.326028 0.056753 0.101782
H132  H     H_    0.305440 0.384591 0.153226 0.117518
H133  H     H_    0.357075 0.404611 0.271606 0.115384
H134  H     H_    0.462657 0.366034 0.293037 0.118159
H135  H     H_    0.516833 0.308457 0.196420 0.103022
C179  C     C_R   0.311954 0.579007 0.103138 0.187544
C180  C     C_R   0.310990 0.642750 0.091996 -0.107251
C181  C     C_R   0.336039 0.682450 0.144155 -0.152088
C182  C     C_R   0.360751 0.658868 0.208633 -0.141345
C183  C     C_R   0.360805 0.595550 0.220851 -0.155436
C184  C     C_R   0.335882 0.555745 0.168716 -0.098851
H136  H     H_    0.289474 0.661672 0.043810 0.123386
H137  H     H_    0.335456 0.731544 0.135096 0.125129
H138  H     H_    0.379550 0.689703 0.249320 0.120057
H139  H     H_    0.379516 0.577367 0.271073 0.120053
H140  H     H_    0.334699 0.506923 0.179590 0.119056
C185  C     C_R   0.562319 0.311554 0.883206 0.222939
C186  C     C_R   0.622109 0.331782 0.898389 -0.132227
C187  C     C_R   0.656246 0.362092 0.844915 -0.130772
C188  C     C_R   0.630910 0.372205 0.775878 -0.114237
C189  C     C_R   0.571316 0.352336 0.760444 -0.160392
C190  C     C_R   0.537050 0.322151 0.813916 -0.075143
H141  H     H_    0.642140 0.323893 0.951512 0.100706
H142  H     H_    0.702305 0.377687 0.857005 0.112779
H143  H     H_    0.657384 0.395498 0.734374 0.113616
H144  H     H_    0.551606 0.360451 0.707103 0.119439
H145  H     H_    0.490855 0.307651 0.801546 0.109493
C191  C     C_R   0.687596 0.562879 0.883742 0.226918
C192  C     C_R   0.666667 0.622501 0.898828 -0.126314
C193  C     C_R   0.635750 0.656088 0.845301 -0.128774
C194  C     C_R   0.625691 0.630337 0.776350 -0.111538
C195  C     C_R   0.646219 0.570870 0.761052 -0.157058
C196  C     C_R   0.677044 0.537161 0.814556 -0.079996
H146  H     H_    0.674436 0.642791 0.951918 0.100407
H147  H     H_    0.619641 0.702036 0.857295 0.112475
H148  H     H_    0.601951 0.656391 0.734789 0.113918
H149  H     H_    0.638146 0.550836 0.707787 0.118809
H150  H     H_    0.692136 0.491031 0.802290 0.101181
C197  C     C_R   0.437990 0.686819 0.882707 0.227331
C198  C     C_R   0.380117 0.662156 0.898710 -0.123520
C199  C     C_R   0.347765 0.628948 0.845865 -0.130385
C200  C     C_R   0.373029 0.620295 0.776512 -0.119527
C201  C     C_R   0.430685 0.644739 0.760091 -0.156604
C202  C     C_R   0.463177 0.677780 0.813019 -0.079359
H151  H     H_    0.360628 0.668233 0.952322 0.100639
H152  H     H_    0.303333 0.609632 0.858833 0.118007
H153  H     H_    0.348076 0.594427 0.735638 0.114702
H154  H     H_    0.450422 0.637695 0.706530 0.119176
H155  H     H_    0.508181 0.695324 0.800042 0.100829
C203  C     C_R   0.312510 0.419565 0.898994 0.190253
C204  C     C_R   0.313168 0.356323 0.913454 -0.109616
C205  C     C_R   0.339680 0.315431 0.863693 -0.151086
C206  C     C_R   0.364331 0.337291 0.798363 -0.133491
C207  C     C_R   0.362779 0.400081 0.782862 -0.151022
C208  C     C_R   0.336399 0.441082 0.832614 -0.100737
H156  H     H_    0.291904 0.338697 0.962431 0.121298
H157  H     H_    0.340314 0.266721 0.875285 0.123821
H158  H     H_    0.384054 0.305491 0.759412 0.116347
H159  H     H_    0.381427 0.416901 0.731969 0.119743
H160  H     H_    0.334259 0.489453 0.819394 0.117370

loop_
_geom_bond_atom_site_label_1
_geom_bond_atom_site_label_2
_ccdc_geom_bond_type
C61   C70   S    
C201  C202  A    
C46   C143  S    
C161  C162  A    
Cu2   O2    S    
C96   H39   S    
C199  C200  A    
C125  C126  A    
C42   C58   A    
C53   C185  S    
C151  C152  A    
C137  C142  A    
O52   C87   S    
Cu9   O33   S    
C206  C207  A    
C70   O48   A    
C121  C122  A    
Cu4   O20   S    
C142  H105  S    
C123  C124  A    
C35   O59   S    
C5    O15   A    
C164  H123  S    
Cu6   Cu8   S    
C134  H98   S    
C8    O16   A    
C102  H55   S    
C171  C172  A    
C16   O30   A    
C91   H26   S    
C109  H72   S    
Cu1   Cu3   S    
C4    O4    A    
C116  C117  A    
C148  H110  S    
Cu5   O29   S    
C145  C146  A    
C11   O23   A    
C68   O36   A    
C196  H150  S    
O62   C107  S    
C96   H40   S    
C1    O7    A    
C126  H91   S    
C180  H136  S    
C27   C75   A    
Cu12  O45   S    
C167  C168  A    
C86   H14   S    
C82   H3    S    
C198  H151  S    
C105  H62   S    
C108  H69   S    
Cu8   O30   S    
C36   C80   A    
C25   C41   A    
C97   H41   S    
C38   C78   A    
C138  C139  A    
O54   C91   S    
C38   O62   S    
C28   C44   A    
C29   C45   A    
C140  C141  A    
C91   C92   S    
C167  C172  A    
C189  H144  S    
O60   C103  S    
C13   O25   A    
C132  C133  A    
C55   C197  S    
C12   C20   S    
C135  C136  A    
C6    O14   A    
C13   C21   S    
C119  C120  A    
C84   H10   S    
C103  H57   S    
C8    O12   A    
C89   C90   S    
C179  C180  A    
C90   H23   S    
Cu7   O11   S    
Cu10  O39   S    
C60   C65   S    
Cu2   Cu4   S    
C35   C51   A    
C85   H11   S    
C81   H2    S    
C5    C77   S    
C177  C178  A    
C82   H5    S    
C205  C206  A    
C7    C79   S    
Cu9   O35   S    
C120  H86   S    
C45   C59   A    
Cu4   O22   S    
C122  H88   S    
C26   O50   S    
Cu6   O16   S    
C150  C151  A    
C34   O58   S    
C71   O47   A    
C39   O63   S    
C182  C183  A    
C117  H84   S    
C101  C102  S    
C195  C196  A    
C100  H48   S    
C86   H13   S    
C189  C190  A    
C173  C178  A    
C149  C154  A    
C10   C18   S    
C157  C158  A    
C6    O10   A    
C16   O32   A    
C159  C160  A    
C11   O21   A    
C183  C184  A    
Cu2   O24   S    
C149  C150  A    
C66   O34   A    
C58   C67   S    
Cu7   O15   S    
C20   C21   T    
C1    O1    A    
C170  H128  S    
C163  C164  A    
C70   O42   A    
C3    O3    A    
C110  H74   S    
C208  H160  S    
Cu12  O47   S    
C115  C116  A    
C174  C175  A    
C165  H124  S    
C158  C159  A    
C57   C66   S    
C50   C167  S    
C185  C186  A    
C92   H28   S    
C155  C160  A    
C33   O57   S    
C108  H68   S    
O59   C101  S    
C113  C118  A    
C191  C192  A    
O63   C109  S    
C30   C74   A    
C99   H47   S    
C92   H29   S    
C152  H113  S    
C51   C173  S    
C110  H73   S    
C184  H140  S    
C127  H92   S    
C89   H21   S    
C156  H116  S    
C119  C124  A    
Cu10  O37   S    
C141  H104  S    
Cu11  O44   S    
C90   H24   S    
C43   C125  S    
C199  H152  S    
C56   C64   A    
C41   C113  S    
C163  H122  S    
C3    C75   S    
C104  H58   S    
C151  H112  S    
C36   C52   A    
C43   C59   A    
C37   C53   A    
C72   O46   A    
C153  H114  S    
C121  H87   S    
C7    O11   A    
O61   C105  S    
C46   C58   A    
C87   H17   S    
C88   H19   S    
C103  H56   S    
C164  C165  A    
Cu8   O12   S    
C117  C118  A    
C12   O22   A    
C115  H82   S    
C171  H129  S    
C118  H85   S    
Cu3   O23   S    
C2    O2    A    
C188  C189  A    
Cu11  Cu12  S    
C194  H148  S    
C143  C144  A    
C109  C110  S    
C143  C148  A    
C168  H126  S    
C68   O38   A    
Cu7   O27   S    
C127  C128  A    
C47   C57   A    
C42   C119  S    
C40   O64   S    
C47   C149  S    
C94   H35   S    
C98   H43   S    
C64   C69   S    
C101  H52   S    
C112  H79   S    
C45   C137  S    
C198  C199  A    
C94   H33   S    
Cu6   O32   S    
Cu8   O28   S    
C154  H115  S    
Cu6   O10   S    
C176  C177  A    
C26   C42   A    
C186  C187  A    
C138  H101  S    
C107  H66   S    
C108  H70   S    
C114  C115  A    
C114  H81   S    
C30   C46   A    
C169  H127  S    
C147  C148  A    
C32   C76   A    
C95   H37   S    
C111  H76   S    
C27   O51   S    
C181  H137  S    
C135  H99   S    
C110  H75   S    
C14   C22   S    
C187  H142  S    
C128  H93   S    
C178  H135  S    
Cu7   O31   S    
C53   C63   A    
C33   C77   A    
Cu11  O42   S    
C176  H133  S    
C55   C61   A    
C35   C79   A    
C102  H54   S    
C44   C131  S    
C62   C71   S    
C25   C73   A    
C207  H159  S    
O56   C95   S    
C104  H60   S    
C91   H27   S    
C205  H157  S    
C122  C123  A    
C83   H6    S    
Cu3   O7    S    
C158  H118  S    
C12   O24   A    
C107  C108  S    
C202  H155  S    
C182  H138  S    
C192  C193  A    
Cu12  O46   S    
C111  C112  S    
C203  C204  A    
C173  C174  A    
O58   C99   S    
C100  H50   S    
C105  C106  S    
C11   C19   S    
C93   H31   S    
Cu1   O1    S    
C183  H139  S    
C128  C129  A    
C97   H42   S    
C200  C201  A    
C33   C49   A    
C170  C171  A    
C98   H45   S    
C96   H38   S    
C207  C208  A    
C85   C86   S    
O51   C85   S    
C39   C55   A    
C36   O60   S    
C40   C56   A    
C83   C84   S    
C7    O13   A    
C10   O20   A    
C84   H9    S    
C185  C190  A    
Cu9   O34   S    
Cu10  O40   S    
C139  C140  A    
C31   C47   A    
C113  C114  A    
C85   H12   S    
C32   C48   A    
C81   C82   S    
C82   H4    S    
C169  C170  A    
C5    O9    A    
C166  H125  S    
C9    O17   A    
C133  H97   S    
C49   C61   A    
C51   C63   A    
C52   C64   A    
C156  C157  A    
C54   C62   A    
O57   C97   S    
C131  C136  A    
C109  H71   S    
C52   C179  S    
C3    O5    A    
C153  C154  A    
C38   C54   A    
C139  H102  S    
C144  H106  S    
Cu6   O26   S    
C132  H96   S    
C28   O52   S    
Cu1   O17   S    
C140  H103  S    
C14   O28   A    
C190  H145  S    
C54   C191  S    
C193  C194  A    
C30   O54   S    
Cu3   O19   S    
C188  H143  S    
Cu12  O48   S    
Cu2   O18   S    
C129  C130  A    
C86   H15   S    
C204  H156  S    
C105  H61   S    
C93   H32   S    
C160  H120  S    
C25   O49   S    
C181  C182  A    
C65   O37   A    
C129  H94   S    
C201  H154  S    
C31   O55   S    
C1    C73   S    
C106  H65   S    
C125  C130  A    
C41   C57   A    
C146  C147  A    
O50   C83   S    
C137  C138  A    
O64   C111  S    
C44   C60   A    
C10   O18   A    
O55   C93   S    
C89   H22   S    
C6    C78   S    
C186  H141  S    
Cu10  O38   S    
C27   C43   A    
Cu11  O43   S    
C63   C72   S    
C134  C135  A    
Cu1   O21   S    
C81   H1    S    
Cu9   Cu10  S    
C192  H146  S    
Cu9   O36   S    
C9    O19   A    
C116  H83   S    
C88   H18   S    
C187  C188  A    
C180  C181  A    
O53   C89   S    
C37   C79   A    
C32   O56   S    
C15   O31   A    
C141  C142  A    
C159  H119  S    
C126  C127  A    
C147  H109  S    
C136  H100  S    
C71   O43   A    
C146  H108  S    
C72   O44   A    
C106  H63   S    
C103  C104  S    
Cu4   O4    S    
C26   C74   A    
C177  H134  S    
C14   O26   A    
C40   C80   A    
C95   H36   S    
C112  H78   S    
C203  C208  A    
C2    C74   S    
C15   C23   S    
C16   C24   S    
C162  C163  A    
Cu5   O13   S    
C175  H132  S    
C13   O27   A    
C157  H117  S    
C48   C60   A    
C66   O40   A    
C200  H153  S    
Cu5   Cu7   S    
C69   O45   A    
C130  H95   S    
C107  H67   S    
C34   C50   A    
C17   C24   T    
C18   C23   T    
C144  C145  A    
C19   C22   T    
C197  C198  A    
C99   H46   S    
C92   H30   S    
C111  H77   S    
C94   H34   S    
C120  C121  A    
C124  H90   S    
C106  H64   S    
C65   O33   A    
Cu5   O25   S    
C172  H130  S    
C150  H111  S    
C67   O35   A    
C59   C68   S    
Cu8   O14   S    
C37   O61   S    
C194  C195  A    
Cu11  O41   S    
C90   H25   S    
Cu3   O3    S    
C95   C96   S    
C102  H53   S    
C162  H121  S    
C56   C203  S    
C195  H149  S    
C104  H59   S    
C193  H147  S    
C9    C17   S    
C133  C134  A    
C31   C73   A    
C191  C196  A    
C4    O8    A    
C87   H16   S    
C50   C62   A    
C88   H20   S    
C83   H7    S    
C93   C94   S    
Cu5   O9    S    
C8    C80   S    
C168  C169  A    
C161  C166  A    
C39   C77   A    
C131  C132  A    
C69   O41   A    
C15   O29   A    
Cu2   O8    S    
C67   O39   A    
C29   O53   S    
C99   C100  S    
C123  H89   S    
C206  H158  S    
C197  C202  A    
C29   C75   A    
C100  H49   S    
C165  C166  A    
Cu4   O6    S    
C48   C155  S    
O49   C81   S    
C34   C78   A    
C49   C161  S    
C97   C98   S    
C155  C156  A    
C175  C176  A    
Cu1   O5    S    
C98   H44   S    
C174  H131  S    
C101  H51   S    
C112  H80   S    
C4    C76   S    
C204  C205  A    
C2    O6    A    
C87   C88   S    
C152  C153  A    
C145  H107  S    
C179  C184  A    
C84   H8    S    
C28   C76   A    
