data_mof_unit_34289.cif
_audit_creation_date              2012-12-10T18:57:11-0500
_audit_creation_method            fapswitch 2.2
_symmetry_space_group_name_H-M    P1
_symmetry_Int_Tables_number       1
_space_group_crystal_system       triclinic
_cell_length_a                    10.649073
_cell_length_b                    9.837069
_cell_length_c                    10.668522
_cell_angle_alpha                 89.658454
_cell_angle_beta                  90.745925
_cell_angle_gamma                 89.690622
_cell_volume                      1117.45679663

loop_
_atom_site_label
_atom_site_type_symbol
_atom_type_description
_atom_site_fract_x
_atom_site_fract_y
_atom_site_fract_z
_atom_type_partial_charge
C1    C     C_R   0.260302 0.500257 0.499058 0.993166
C2    C     C_R   0.739680 0.499661 0.499675 0.973211
C3    C     C_R   0.584731 0.070921 0.571589 -0.073876
C4    C     C_R   0.415844 0.072918 0.427638 -0.059973
C5    C     C_R   0.584399 0.927048 0.572026 -0.052982
C6    C     C_R   0.415965 0.928980 0.427490 -0.064505
C7    C     C_R   0.508664 0.500210 0.260112 0.953131
C8    C     C_R   0.508018 0.499096 0.740382 0.901263
C9    C     C_R   0.536605 0.622393 0.063178 0.154152
C10   C     C_R   0.535145 0.620720 0.935630 0.106089
C11   C     C_R   0.539993 0.500694 0.130221 -0.134070
C12   C     C_R   0.537069 0.497700 0.871867 -0.174278
C13   C     C_R   0.578083 0.380774 0.068989 0.098030
C14   C     C_R   0.574678 0.377994 0.938094 0.034869
C15   C     C_3   0.448233 0.740318 0.926060 -0.460591
C16   C     C_3   0.450513 0.742675 0.068237 -0.453393
C17   C     C_R   0.067091 0.441967 0.601142 0.028040
C18   C     C_R   0.936689 0.441158 0.601016 0.027008
C19   C     C_R   0.872008 0.499172 0.498747 -0.164087
C20   C     C_R   0.127906 0.500670 0.498896 -0.168779
C21   C     C_R   0.933088 0.557545 0.396326 0.207066
C22   C     C_R   0.062932 0.557989 0.396369 0.193330
H1    H     H_    0.493993 0.830278 0.883094 0.207843
H2    H     H_    0.358385 0.718665 0.109660 0.245480
H3    H     H_    0.354789 0.713871 0.885563 0.216671
H4    H     H_    0.497917 0.833741 0.107443 0.213918
H5    H     H_    0.653080 0.124494 0.628073 0.125229
H6    H     H_    0.348634 0.128235 0.369739 0.141522
H7    H     H_    0.651831 0.871726 0.629671 0.133615
H8    H     H_    0.348912 0.875166 0.369422 0.162057
N1    N     N_R   0.500000 0.857200 0.500000 -0.082927
N2    N     N_R   0.500000 0.142810 0.500000 -0.083225
O1    O     O_R   0.316770 0.614620 0.499990 -0.606898
O2    O     O_R   0.683230 0.614620 0.500010 -0.607463
O3    O     O_R   0.316800 0.385290 0.500000 -0.611661
O4    O     O_R   0.683200 0.385290 0.500000 -0.613402
O5    O     O_R   0.500000 0.614690 0.316780 -0.602257
O6    O     O_R   0.500000 0.614690 0.683220 -0.624466
O7    O     O_R   0.500020 0.385360 0.316780 -0.605418
O8    O     O_R   0.499980 0.385360 0.683220 -0.632362
Zn1   Zn    Zn3+2 0.500000 0.653120 0.500000 0.983855
Zn2   Zn    Zn3+2 0.500000 0.346880 0.500000 0.968018
N3    N     N_3   0.613432 0.260814 0.138595 -0.403129
H9    H     H_    0.704244 0.232527 0.112821 0.213630
H10   H     H_    0.552107 0.182341 0.114162 0.196406
N4    N     N_3   0.603658 0.251982 0.877628 -0.475564
H11   H     H_    0.521759 0.211168 0.838595 0.214647
H12   H     H_    0.670269 0.269294 0.808592 0.210558
N5    N     N_3   0.138885 0.386283 0.704454 -0.448536
H13   H     H_    0.116155 0.283675 0.715026 0.197020
H14   H     H_    0.114863 0.437845 0.786155 0.193192
N6    N     N_3   0.868809 0.384951 0.704360 -0.473677
H15   H     H_    0.893395 0.437409 0.785892 0.198060
H16   H     H_    0.894307 0.282807 0.715474 0.186555
Br1   Br    Br    0.839659 0.631271 0.254633 -0.470574
Br2   Br    Br    0.150965 0.630285 0.254148 -0.529538

loop_
_geom_bond_atom_site_label_1
_geom_bond_atom_site_label_2
_ccdc_geom_bond_type
C5    N1    A    
C22   Br2   S    
N3    H9    S    
C9    C11   A    
C9    C10   A    
O4    Zn2   S    
C12   C14   A    
C8    C12   S    
O1    Zn1   S    
C2    O2    A    
C15   H1    S    
C17   C18   A    
C7    O5    A    
C18   N6    S    
C16   H2    S    
C21   C22   A    
C7    C11   S    
N3    H10   S    
C4    N2    A    
O2    Zn1   S    
C10   C12   A    
O8    Zn2   S    
C19   C21   A    
C9    C16   S    
N6    H16   S    
C6    N1    A    
O7    Zn2   S    
C5    H7    S    
C3    H5    S    
C8    O6    A    
O5    Zn1   S    
C3    N2    A    
N4    H12   S    
C15   H3    S    
C11   C13   A    
C1    O1    A    
C4    C6    A    
C15   C16   S    
C3    C5    A    
C13   N3    S    
C17   C20   A    
C2    O4    A    
N6    H15   S    
C1    O3    A    
O6    Zn1   S    
C14   N4    S    
N5    H13   S    
C17   N5    S    
C8    O8    A    
C21   Br1   S    
O3    Zn2   S    
C7    O7    A    
N4    H11   S    
C18   C19   A    
C1    C20   S    
N2    Zn2   S    
N1    Zn1   S    
C4    H6    S    
C2    C19   S    
C13   C14   A    
C6    H8    S    
C20   C22   A    
C10   C15   S    
N5    H14   S    
C16   H4    S    
