data_mof_unit_46017.cif
_audit_creation_date              2012-12-11T14:45:24-0500
_audit_creation_method            fapswitch 2.2
_symmetry_space_group_name_H-M    P1
_symmetry_Int_Tables_number       1
_space_group_crystal_system       triclinic
_cell_length_a                    24.866739
_cell_length_b                    7.180362
_cell_length_c                    14.511668
_cell_angle_alpha                 89.999784
_cell_angle_beta                  103.1277
_cell_angle_gamma                 89.999886
_cell_volume                      2523.37524079

loop_
_atom_site_label
_atom_site_type_symbol
_atom_type_description
_atom_site_fract_x
_atom_site_fract_y
_atom_site_fract_z
_atom_type_partial_charge
O1    O     O_R   0.319150 0.364170 0.330530 -0.538568
O2    O     O_R   0.680850 0.635830 0.669470 -0.536512
O3    O     O_R   0.180850 0.864170 0.169470 -0.538569
O4    O     O_R   0.819150 0.135830 0.830530 -0.536513
O5    O     O_R   0.210330 0.696850 0.354180 -0.535255
O6    O     O_R   0.789670 0.303150 0.645820 -0.539197
O7    O     O_R   0.289670 0.196850 0.145820 -0.535260
O8    O     O_R   0.710330 0.803150 0.854180 -0.539197
C1    C     C_R   0.196896 0.525853 0.377681 0.684850
C2    C     C_R   0.802953 0.474094 0.622376 0.696911
C3    C     C_R   0.303104 0.025852 0.122318 0.684843
C4    C     C_R   0.697046 0.974093 0.877624 0.696904
O9    O     O_R   0.320550 0.694110 0.341970 -0.536803
O10   O     O_R   0.679450 0.305890 0.658030 -0.543308
O11   O     O_R   0.179450 0.194110 0.158030 -0.536817
O12   O     O_R   0.820550 0.805890 0.841970 -0.543306
O13   O     O_R   0.291860 0.861000 0.157170 -0.537296
O14   O     O_R   0.708140 0.139000 0.842830 -0.538281
O15   O     O_R   0.208140 0.361000 0.342830 -0.537292
O16   O     O_R   0.791860 0.639000 0.657170 -0.538283
C5    C     C_R   0.341654 0.525764 0.362767 0.708469
C6    C     C_R   0.658085 0.474172 0.638167 0.712640
C7    C     C_R   0.158348 0.025765 0.137224 0.708460
C8    C     C_R   0.841915 0.974173 0.861835 0.712633
O17   O     O_3   0.240460 0.529330 0.189380 -0.377635
O18   O     O_3   0.759540 0.470670 0.810620 -0.378243
O19   O     O_3   0.259540 0.029330 0.310620 -0.377613
O20   O     O_3   0.740460 0.970670 0.689380 -0.378246
V1    V     V_3+5 0.251770 0.805510 0.261240 1.433533
V2    V     V_3+5 0.748230 0.194490 0.738760 1.431052
V3    V     V_3+5 0.248230 0.305510 0.238760 1.433512
V4    V     V_3+5 0.751770 0.694490 0.761240 1.431053
C9    C     C_R   0.103780 0.018966 0.069853 -0.131904
C10   C     C_R   0.896807 0.980736 0.928074 -0.114991
C11   C     C_R   0.396222 0.518951 0.430137 -0.131884
C12   C     C_R   0.603193 0.480738 0.571927 -0.115002
C13   C     C_R   0.957080 0.940314 0.085422 0.246529
C14   C     C_R   0.043254 0.066550 0.913214 0.255443
C15   C     C_R   0.542926 0.440478 0.414571 0.246536
C16   C     C_R   0.456740 0.566374 0.586790 0.255453
C17   C     C_R   0.903267 0.945119 0.025761 0.104900
C18   C     C_R   0.096762 0.071274 0.973773 0.081970
C19   C     C_R   0.596738 0.445235 0.474237 0.104904
C20   C     C_R   0.403234 0.571130 0.526226 0.081938
C21   C     C_R   0.943029 0.019318 0.891676 -0.218536
C22   C     C_R   0.057777 0.970256 0.104912 -0.210895
C23   C     C_R   0.556968 0.519212 0.608328 -0.218563
C24   C     C_R   0.442228 0.470344 0.395074 -0.210932
C25   C     C_R   0.996728 0.020021 0.949999 0.033976
C26   C     C_R   0.003905 0.975250 0.047268 0.033687
C27   C     C_R   0.503270 0.519941 0.550002 0.033985
C28   C     C_R   0.496098 0.475310 0.452724 0.033703
H1    H     H_    0.064896 0.933739 0.178970 0.178782
H2    H     H_    0.936080 0.048287 0.816793 0.177681
H3    H     H_    0.435113 0.433925 0.321010 0.178779
H4    H     H_    0.563913 0.548077 0.683216 0.177680
C29   C     C_R   0.665741 0.975489 0.951616 -0.079791
C30   C     C_R   0.335356 0.022971 0.049214 -0.079981
C31   C     C_R   0.834257 0.475494 0.548382 -0.079799
C32   C     C_R   0.164643 0.522981 0.450785 -0.079990
C33   C     C_R   0.658446 0.869719 0.107579 0.149084
C34   C     C_R   0.342558 0.106396 0.889655 0.158889
C35   C     C_R   0.841554 0.369721 0.392420 0.149083
C36   C     C_R   0.157439 0.606421 0.610343 0.158919
C37   C     C_R   0.689140 0.895922 0.038669 -0.166722
C38   C     C_R   0.311312 0.084930 0.958345 -0.169192
C39   C     C_R   0.810859 0.395917 0.461330 -0.166724
C40   C     C_R   0.188685 0.584939 0.541654 -0.169211
C41   C     C_R   0.610246 0.025102 0.929693 -0.191739
C42   C     C_R   0.391656 0.983446 0.074119 -0.186290
C43   C     C_R   0.889751 0.525131 0.570303 -0.191729
C44   C     C_R   0.108343 0.483461 0.425879 -0.186279
C45   C     C_R   0.575858 0.986898 0.992958 0.072540
C46   C     C_R   0.425801 0.008853 0.009116 0.069463
C47   C     C_R   0.924140 0.486932 0.507038 0.072538
C48   C     C_R   0.074198 0.508885 0.490881 0.069454
C49   C     C_R   0.600974 0.913632 0.083959 0.068503
C50   C     C_R   0.400424 0.070390 0.915850 0.071061
C51   C     C_R   0.899025 0.413644 0.416039 0.068503
C52   C     C_R   0.099573 0.570442 0.584146 0.071062
C53   C     C_R   0.517204 0.014663 0.967403 0.068176
C54   C     C_R   0.484459 0.978931 0.034612 0.067156
C55   C     C_R   0.982794 0.514717 0.532593 0.068178
C56   C     C_R   0.015539 0.478962 0.465385 0.067161
C57   C     C_R   0.511445 0.913405 0.124984 -0.096674
C58   C     C_R   0.490056 0.071466 0.875626 -0.096419
C59   C     C_R   0.988555 0.413408 0.375015 -0.096641
C60   C     C_R   0.009941 0.571569 0.624368 -0.096404
C61   C     C_R   0.567862 0.881158 0.148620 -0.143610
C62   C     C_R   0.433528 0.097658 0.850692 -0.140427
C63   C     C_R   0.932138 0.381155 0.351380 -0.143603
C64   C     C_R   0.066469 0.597756 0.649302 -0.140411
H5    H     H_    0.584915 0.827537 0.218752 0.140287
H6    H     H_    0.416407 0.141581 0.778760 0.133325
H7    H     H_    0.915087 0.327514 0.281250 0.140237
H8    H     H_    0.083590 0.641711 0.721235 0.133309
H9    H     H_    0.407612 0.942084 0.146432 0.113689
H10   H     H_    0.595070 0.085300 0.860783 0.114069
H11   H     H_    0.092387 0.442092 0.353568 0.113701
H12   H     H_    0.904924 0.585340 0.639210 0.114075
H13   H     H_    0.268053 0.119322 0.942852 0.122101
H14   H     H_    0.731535 0.851475 0.050609 0.129661
H15   H     H_    0.231944 0.619325 0.557150 0.122109
H16   H     H_    0.768466 0.351457 0.449391 0.129657
H17   H     H_    0.490140 0.880943 0.179692 0.142470
H18   H     H_    0.511009 0.094706 0.819485 0.140096
H19   H     H_    0.009861 0.380932 0.320310 0.142452
H20   H     H_    0.988989 0.594852 0.680511 0.140098
C65   C     C_3   0.146012 0.135336 0.936525 -0.322160
C66   C     C_3   0.149179 0.347941 0.935130 -0.678518
H21   H     H_    0.114469 0.406500 0.880965 0.244645
H22   H     H_    0.147645 0.406514 0.005285 0.234977
H23   H     H_    0.188564 0.392076 0.918345 0.189753
H24   H     H_    0.184956 0.080442 0.980956 0.136213
H25   H     H_    0.144392 0.078522 0.864831 0.206791
C67   C     C_3   0.852274 0.928749 0.066094 -0.347853
C68   C     C_3   0.828939 0.122099 0.076826 -0.769973
H26   H     H_    0.860401 0.208674 0.124499 0.240678
H27   H     H_    0.816315 0.193243 0.007503 0.236968
H28   H     H_    0.792091 0.110180 0.106856 0.211983
H29   H     H_    0.820547 0.841767 0.019402 0.161026
H30   H     H_    0.860540 0.857188 0.135427 0.227165
C69   C     C_3   0.353980 0.635190 0.563469 -0.322111
C70   C     C_3   0.350839 0.847813 0.564909 -0.678477
H31   H     H_    0.385529 0.906243 0.619156 0.244646
H32   H     H_    0.352447 0.906468 0.494801 0.234929
H33   H     H_    0.311433 0.892004 0.581605 0.189770
H34   H     H_    0.315029 0.580376 0.519012 0.136213
H35   H     H_    0.355586 0.578304 0.635145 0.206748
C71   C     C_3   0.647732 0.428881 0.433907 -0.347854
C72   C     C_3   0.671075 0.622228 0.423201 -0.769930
H36   H     H_    0.639619 0.708832 0.375530 0.240673
H37   H     H_    0.683697 0.693343 0.492531 0.236984
H38   H     H_    0.707926 0.610305 0.393178 0.211984
H39   H     H_    0.679455 0.341870 0.480591 0.161004
H40   H     H_    0.639465 0.357349 0.364565 0.227155
Br1   Br    Br    0.966298 0.896632 0.220090 -0.644255
Br2   Br    Br    0.034142 0.126475 0.780185 -0.646676
Br3   Br    Br    0.533717 0.397018 0.279898 -0.644295
Br4   Br    Br    0.465844 0.626148 0.719828 -0.646682
C73   C     C_3   0.685776 0.788443 0.204127 -0.378483
C74   C     C_3   0.747942 0.749513 0.221612 -0.777769
H41   H     H_    0.756114 0.639269 0.172922 0.233718
H42   H     H_    0.770980 0.877510 0.212404 0.238623
H43   H     H_    0.763976 0.701183 0.295241 0.232432
H44   H     H_    0.679573 0.887356 0.259599 0.183449
H45   H     H_    0.664968 0.655029 0.213342 0.207202
C75   C     C_3   0.315491 0.172059 0.789594 -0.376948
C76   C     C_3   0.253173 0.206608 0.768629 -0.777251
H46   H     H_    0.230560 0.080242 0.782109 0.236185
H47   H     H_    0.244069 0.322685 0.812939 0.236371
H48   H     H_    0.238180 0.245595 0.693079 0.233995
H49   H     H_    0.335336 0.304496 0.775481 0.191639
H50   H     H_    0.323236 0.066077 0.738459 0.183445
C77   C     C_3   0.814224 0.288439 0.295873 -0.378486
C78   C     C_3   0.752058 0.249525 0.278387 -0.777779
H51   H     H_    0.743883 0.139276 0.327072 0.233713
H52   H     H_    0.729022 0.377524 0.287601 0.238625
H53   H     H_    0.736023 0.201208 0.204756 0.232438
H54   H     H_    0.820430 0.387342 0.240399 0.183464
H55   H     H_    0.835030 0.155018 0.286665 0.207174
C79   C     C_3   0.184503 0.672054 0.710407 -0.376993
C80   C     C_3   0.246821 0.706561 0.731375 -0.777387
H56   H     H_    0.269428 0.580215 0.717869 0.236204
H57   H     H_    0.255933 0.822659 0.687098 0.236398
H58   H     H_    0.261812 0.745469 0.806925 0.234021
H59   H     H_    0.164666 0.804495 0.724526 0.191615
H60   H     H_    0.176750 0.566074 0.761531 0.183484

loop_
_geom_bond_atom_site_label_1
_geom_bond_atom_site_label_2
_ccdc_geom_bond_type
O17   V3    S    
C24   H3    S    
O1    C5    A    
C59   C63   A    
O19   V1    S    
O13   V1    S    
O3    C7    A    
C71   H39   S    
C38   H13   S    
C56   C59   A    
C64   H8    S    
C44   C48   A    
C72   H38   S    
O15   V3    S    
C48   C56   A    
C53   C54   A    
C69   C70   S    
C14   C25   A    
C35   C51   A    
C77   H55   S    
O7    C3    A    
C49   C61   A    
O5    C1    A    
C67   H30   S    
C9    C18   A    
C36   C40   A    
O9    V1    S    
C78   H51   S    
C80   H57   S    
C18   C65   S    
O10   V2    S    
C14   C18   A    
C68   H27   S    
O4    C8    A    
C32   C44   A    
O1    V3    S    
C67   C68   S    
C12   C23   A    
O2    V4    S    
O3    V1    S    
C66   H21   S    
C31   C39   A    
C78   H52   S    
C1    O15   A    
C60   C64   A    
C33   C49   A    
C7    C9    S    
O2    C6    A    
C40   H15   S    
C41   C45   A    
O14   V2    S    
C3    C30   S    
C65   C66   S    
C16   C20   A    
C51   C63   A    
C53   C58   A    
C42   H9    S    
C41   H10   S    
O11   C7    A    
C55   C60   A    
O12   C8    A    
C34   C75   S    
C69   H35   S    
C61   H5    S    
C9    C22   A    
C36   C52   A    
C74   H43   S    
C58   H18   S    
C10   C17   A    
C75   H50   S    
C37   H14   S    
C46   C54   A    
C57   H17   S    
C11   C24   A    
C45   C53   A    
C30   C38   A    
C39   H16   S    
C62   H6    S    
O5    V1    S    
C78   H53   S    
C15   Br3   S    
O7    V3    S    
C67   H29   S    
C34   C38   A    
C73   H45   S    
C27   C28   A    
O8    V4    S    
C80   H58   S    
C75   C76   S    
C36   C79   S    
C58   C62   A    
C68   H28   S    
C2    O16   A    
C57   C61   A    
O18   V4    S    
C30   C42   A    
C15   C19   A    
C8    C10   S    
C15   C28   A    
C52   C64   A    
C35   C39   A    
C42   C46   A    
C55   C56   A    
C21   C25   A    
O8    C4    A    
C14   Br2   S    
O9    C5    A    
C10   C21   A    
C11   C20   A    
C66   H23   S    
C73   H44   S    
C70   H33   S    
C79   H60   S    
C4    C29   S    
C65   H24   S    
C33   C73   S    
O6    V2    S    
C21   H2    S    
C74   H42   S    
C76   H48   S    
C75   H49   S    
C17   C67   S    
C72   H36   S    
C54   C57   A    
C70   H32   S    
C79   C80   S    
O16   V4    S    
C3    O13   A    
C77   H54   S    
C34   C50   A    
C19   C71   S    
C71   H40   S    
C48   C52   A    
C29   C37   A    
C72   H37   S    
O6    C2    A    
C23   C27   A    
O11   V3    S    
C5    C11   S    
O12   V4    S    
C16   C27   A    
C6    C12   S    
C43   H12   S    
C22   C26   A    
C20   C69   S    
C68   H26   S    
C1    C32   S    
O10   C6    A    
C76   H47   S    
C2    C31   S    
C35   C77   S    
C76   H46   S    
C43   C47   A    
C13   C26   A    
C47   C55   A    
C69   H34   S    
C50   C62   A    
C60   H20   S    
C16   Br4   S    
C22   H1    S    
O20   V2    S    
C71   C72   S    
C13   C17   A    
C66   H22   S    
C80   H56   S    
C65   H25   S    
C63   H7    S    
C79   H59   S    
C33   C37   A    
C24   C28   A    
C59   H19   S    
C32   C40   A    
C25   C26   A    
C46   C50   A    
C4    O14   A    
C77   C78   S    
C45   C49   A    
C74   H41   S    
C23   H4    S    
C12   C19   A    
C13   Br1   S    
C29   C41   A    
C73   C74   S    
C47   C51   A    
O4    V2    S    
C31   C43   A    
C70   H31   S    
C44   H11   S    
