data_mof_unit_22439.cif
_audit_creation_date              2012-12-10T19:04:14-0500
_audit_creation_method            fapswitch 2.2
_symmetry_space_group_name_H-M    P1
_symmetry_Int_Tables_number       1
_space_group_crystal_system       triclinic
_cell_length_a                    10.622794
_cell_length_b                    10.843719
_cell_length_c                    9.572633
_cell_angle_alpha                 90.693392
_cell_angle_beta                  89.263821
_cell_angle_gamma                 90.712695
_cell_volume                      1102.4223149

loop_
_atom_site_label
_atom_site_type_symbol
_atom_type_description
_atom_site_fract_x
_atom_site_fract_y
_atom_site_fract_z
_atom_type_partial_charge
C1    C     C_R   0.496408 0.262528 0.499204 0.810482
C2    C     C_3   0.961617 0.499079 0.366687 -0.135913
C3    C     C_3   0.041841 0.398502 0.434383 -0.157751
C4    C     C_3   0.122328 0.500514 0.501996 0.022320
C5    C     C_R   0.468247 0.065943 0.622381 0.178399
C6    C     C_R   0.481692 0.129642 0.497482 -0.109112
C7    C     C_R   0.476873 0.062851 0.370928 -0.222606
C8    C     C_R   0.477910 0.934165 0.372070 -0.215934
C9    C     C_R   0.484088 0.871178 0.499712 -0.102832
C10   C     C_R   0.469429 0.938938 0.623817 0.125884
C11   C     C_3   0.543542 0.938750 0.755331 -0.511225
C12   C     C_R   0.259329 0.500184 0.500757 0.806635
C13   C     C_3   0.541346 0.078304 0.753676 -0.434399
C14   C     C_R   0.603408 0.539698 0.072571 0.244868
C15   C     C_R   0.407334 0.442083 0.076068 -0.126174
C16   C     C_R   0.408204 0.439457 0.927744 0.425805
C17   C     C_R   0.603720 0.539074 0.925759 0.200055
C18   C     C_3   0.667921 0.661386 0.920570 -0.503695
C19   C     C_3   0.666693 0.662786 0.079492 -0.479833
C20   C     C_R   0.497515 0.737830 0.500477 0.787849
C21   C     C_R   0.740632 0.500244 0.499252 0.778394
C22   C     C_3   0.038215 0.501916 0.633358 -0.101547
C23   C     C_3   0.955513 0.399858 0.565679 -0.150124
C24   C     C_3   0.877565 0.500408 0.498065 0.010573
C25   C     C_3   0.957984 0.602457 0.565662 -0.195195
C26   C     C_3   0.044370 0.601111 0.434391 -0.174712
Cu1   Cu    Cu3+1 0.499990 0.499980 0.640670 0.985338
Cu2   Cu    Cu3+1 0.500010 0.500020 0.359330 0.941729
H1    H     H_    0.915983 0.317491 0.619193 0.135368
H2    H     H_    0.639771 0.901486 0.739145 0.197563
H3    H     H_    0.484617 0.118989 0.840653 0.229239
H4    H     H_    0.635909 0.121258 0.737043 0.190539
H5    H     H_    0.332206 0.395988 0.133100 0.175856
H6    H     H_    0.764036 0.655873 0.873763 0.196489
H7    H     H_    0.606579 0.731168 0.875798 0.212504
H8    H     H_    0.762321 0.657851 0.124730 0.191667
H9    H     H_    0.605405 0.735279 0.125666 0.207554
H10   H     H_    0.071689 0.503487 0.742729 0.177438
H11   H     H_    0.920371 0.685860 0.619212 0.129340
H12   H     H_    0.083916 0.683495 0.380932 0.135468
H13   H     H_    0.927621 0.497946 0.257474 0.139677
H14   H     H_    0.079374 0.315036 0.380908 0.136117
H15   H     H_    0.479329 0.109316 0.271385 0.172708
H16   H     H_    0.480367 0.884985 0.273014 0.162857
H17   H     H_    0.487982 0.900259 0.844165 0.202408
N1    N     N_R   0.500800 0.500930 0.147930 -0.212476
N2    N     N_R   0.500800 0.500890 0.852020 -0.216845
O1    O     O_R   0.500000 0.319640 0.618810 -0.542079
O2    O     O_R   0.500010 0.319680 0.381230 -0.590992
O3    O     O_R   0.316850 0.499950 0.618770 -0.527540
O4    O     O_R   0.316860 0.499990 0.381190 -0.596092
O5    O     O_R   0.499990 0.680320 0.618770 -0.580873
O6    O     O_R   0.500000 0.680360 0.381190 -0.585608
O7    O     O_R   0.683140 0.500010 0.618810 -0.584987
O8    O     O_R   0.683150 0.500050 0.381230 -0.583443
Cl1   Cl    Cl    0.292490 0.346860 0.847770 -0.669134

loop_
_geom_bond_atom_site_label_1
_geom_bond_atom_site_label_2
_ccdc_geom_bond_type
Cu1   O1    S    
C12   O3    A    
C23   C24   S    
C16   Cl1   S    
C3    H14   S    
C6    C7    A    
C7    H15   S    
C4    C12   S    
C4    C22   S    
C9    C10   A    
C9    C20   S    
C4    C26   S    
Cu1   O3    S    
Cu2   O6    S    
C26   H12   S    
C17   C18   S    
Cu1   O7    S    
C7    C8    A    
C2    C26   S    
Cu1   O5    S    
C11   C13   S    
C14   C17   A    
Cu2   N1    S    
C5    C6    A    
C1    O2    A    
C11   H2    S    
C23   H1    S    
C16   N2    A    
Cu2   O8    S    
C15   H5    S    
C2    C3    S    
C19   H8    S    
C18   H6    S    
C1    O1    A    
C2    C24   S    
C21   O7    A    
Cu2   O4    S    
C11   H17   S    
C10   C11   S    
C2    H13   S    
C1    C6    S    
C22   H10   S    
C8    H16   S    
C5    C10   A    
C12   O4    A    
C24   C25   S    
C18   H7    S    
C20   O5    A    
C18   C19   S    
Cu2   O2    S    
C21   C24   S    
Cu1   N2    S    
Cu1   Cu2   S    
C21   O8    A    
C3    C23   S    
C22   C23   S    
C20   O6    A    
C19   H9    S    
C15   N1    A    
C25   C26   S    
C13   H4    S    
C5    C13   S    
C14   C19   S    
C13   H3    S    
C25   H11   S    
C3    C4    S    
C15   C16   A    
C17   N2    A    
C8    C9    A    
C14   N1    A    
C22   C25   S    
