data_mof_unit_32915.cif
_audit_creation_date              2012-12-10T19:10:03-0500
_audit_creation_method            fapswitch 2.2
_symmetry_space_group_name_H-M    P1
_symmetry_Int_Tables_number       1
_space_group_crystal_system       triclinic
_cell_length_a                    10.786671
_cell_length_b                    10.794317
_cell_length_c                    9.545001
_cell_angle_alpha                 90.683782
_cell_angle_beta                  89.758181
_cell_angle_gamma                 90.722426
_cell_volume                      1111.19308358

loop_
_atom_site_label
_atom_site_type_symbol
_atom_type_description
_atom_site_fract_x
_atom_site_fract_y
_atom_site_fract_z
_atom_type_partial_charge
C1    C     C_R   0.497929 0.262594 0.498988 0.801498
C2    C     C_R   0.259496 0.815847 0.123141 -0.111333
C3    C     C_R   0.935043 0.568790 0.402347 -0.246768
C4    C     C_R   0.871595 0.494793 0.499126 -0.083051
C5    C     C_R   0.936753 0.423015 0.596324 0.018742
C6    C     C_R   0.065462 0.428537 0.595903 -0.236723
C7    C     C_R   0.128673 0.503568 0.500244 -0.077562
C8    C     C_R   0.063645 0.574933 0.402928 -0.001504
C9    C     C_R   0.869799 0.360078 0.840270 0.233458
C10   C     C_R   0.803820 0.278205 0.927465 -0.137071
C11   C     C_R   0.743598 0.173881 0.871012 -0.170736
C12   C     C_R   0.262487 0.501957 0.500188 0.795799
C13   C     C_R   0.748110 0.150273 0.727092 -0.127784
C14   C     C_R   0.811547 0.231717 0.638766 -0.185158
C15   C     C_R   0.872821 0.336978 0.693944 0.112199
C16   C     C_R   0.415730 0.064143 0.586854 0.106960
C17   C     C_R   0.491060 0.129615 0.493936 -0.088731
C18   C     C_R   0.555043 0.064424 0.388698 -0.237722
C19   C     C_R   0.557745 0.935429 0.391420 -0.231244
C20   C     C_R   0.496124 0.871148 0.498918 -0.089785
C21   C     C_R   0.418654 0.936878 0.589883 0.107211
C22   C     C_3   0.402950 0.935591 0.745428 -0.486019
C23   C     C_R   0.499916 0.737693 0.500572 0.803639
C24   C     C_3   0.397331 0.076175 0.741186 -0.477118
C25   C     C_R   0.598737 0.547708 0.073861 0.262505
C26   C     C_R   0.408946 0.441041 0.074026 -0.071758
C27   C     C_R   0.408813 0.441204 0.925154 -0.097700
C28   C     C_R   0.598997 0.547232 0.926438 0.298257
C29   C     C_3   0.647302 0.676882 0.922150 -0.512469
C30   C     C_3   0.646693 0.677607 0.080948 -0.519953
C31   C     C_R   0.737606 0.497576 0.499741 0.793512
C32   C     C_R   0.242375 0.851130 0.263224 -0.117301
C33   C     C_R   0.177275 0.773240 0.354526 -0.155290
C34   C     C_R   0.127828 0.659990 0.305409 0.123185
C35   C     C_R   0.144739 0.625365 0.164589 -0.122820
C36   C     C_R   0.210557 0.703088 0.073764 -0.128190
Cu1   Cu    Cu3+1 0.499990 0.499980 0.640670 0.942247
Cu2   Cu    Cu3+1 0.500010 0.500020 0.359330 0.943488
H1    H     H_    0.310969 0.875718 0.053097 0.123593
H2    H     H_    0.693521 0.111051 0.939061 0.129445
H3    H     H_    0.701783 0.069025 0.683817 0.148392
H4    H     H_    0.812865 0.212895 0.527022 0.118467
H5    H     H_    0.608759 0.112988 0.309902 0.156560
H6    H     H_    0.613034 0.886706 0.314186 0.151711
H7    H     H_    0.314097 0.891057 0.777986 0.193419
H8    H     H_    0.486661 0.903845 0.800196 0.193651
H9    H     H_    0.304329 0.112831 0.768380 0.189665
H10   H     H_    0.476285 0.123152 0.795161 0.214849
H11   H     H_    0.334028 0.395231 0.129383 0.139555
H12   H     H_    0.280231 0.938494 0.301235 0.138030
H13   H     H_    0.333793 0.395537 0.869256 0.135282
H14   H     H_    0.741564 0.683809 0.875869 0.196580
H15   H     H_    0.579223 0.740627 0.877451 0.206868
H16   H     H_    0.741082 0.683821 0.126904 0.189771
H17   H     H_    0.578073 0.742827 0.126238 0.218049
H18   H     H_    0.166097 0.800600 0.463356 0.114354
H19   H     H_    0.109917 0.536864 0.126669 0.118081
H20   H     H_    0.224546 0.675415 0.965513 0.131805
H21   H     H_    0.884197 0.624897 0.329231 0.142822
H22   H     H_    0.116683 0.371507 0.667818 0.139924
N1    N     N_R   0.500790 0.500930 0.147930 -0.182644
N2    N     N_R   0.500790 0.500890 0.852020 -0.186439
O1    O     O_R   0.500000 0.319640 0.618810 -0.571749
O2    O     O_R   0.500010 0.319680 0.381230 -0.589448
O3    O     O_R   0.319640 0.499990 0.618790 -0.593502
O4    O     O_R   0.319650 0.500030 0.381210 -0.574135
O5    O     O_R   0.499990 0.680320 0.618770 -0.584283
O6    O     O_R   0.500000 0.680360 0.381190 -0.572445
O7    O     O_R   0.680350 0.499970 0.618790 -0.569961
O8    O     O_R   0.680360 0.500010 0.381210 -0.589307
C37   C     C_3   0.935167 0.470938 0.903978 -0.927729
H23   H     H_    0.909474 0.484042 0.015959 0.225838
H24   H     H_    0.036932 0.458416 0.896602 0.225851
H25   H     H_    0.910357 0.556025 0.847205 0.242110
H26   H     H_    0.799389 0.294667 0.039539 0.128056

loop_
_geom_bond_atom_site_label_1
_geom_bond_atom_site_label_2
_ccdc_geom_bond_type
Cu2   O8    S    
C16   C21   A    
Cu1   O7    S    
C19   C20   A    
C13   H3    S    
Cu1   N2    S    
C7    C8    A    
C25   C28   A    
C30   H16   S    
C26   C27   A    
Cu1   Cu2   S    
C28   C29   S    
C26   N1    A    
C18   C19   A    
C36   H20   S    
C5    C6    A    
C2    C32   A    
C34   C35   A    
C23   O5    A    
C2    H1    S    
C31   O8    A    
C35   C36   A    
C16   C17   A    
Cu1   O3    S    
C9    C10   A    
C14   H4    S    
Cu2   N1    S    
C33   H18   S    
C16   C24   S    
C21   C22   S    
C1    O1    A    
Cu1   O1    S    
C27   H13   S    
C33   C34   A    
Cu2   O2    S    
C7    C12   S    
C24   H10   S    
C6    H22   S    
C3    C8    A    
C26   H11   S    
C37   H24   S    
C8    C34   S    
C12   O4    A    
C23   O6    A    
C29   C30   S    
C27   N2    A    
C10   H26   S    
C20   C23   S    
C17   C18   A    
C25   N1    A    
C32   H12   S    
C22   H8    S    
Cu2   O6    S    
C22   C24   S    
C3    C4    A    
C1    O2    A    
C19   H6    S    
C12   O3    A    
C2    C36   A    
C25   C30   S    
Cu2   O4    S    
C24   H9    S    
C9    C37   S    
C4    C5    A    
C37   H25   S    
C6    C7    A    
C30   H17   S    
C1    C17   S    
C35   H19   S    
C32   C33   A    
C9    C15   A    
C37   H23   S    
C18   H5    S    
C11   C13   A    
C29   H15   S    
Cu1   O5    S    
C11   H2    S    
C5    C15   S    
C4    C31   S    
C10   C11   A    
C31   O7    A    
C22   H7    S    
C20   C21   A    
C14   C15   A    
C13   C14   A    
C28   N2    A    
C29   H14   S    
C3    H21   S    
