data_mof_unit_27498.cif
_audit_creation_date              2013-03-05T16:18:40-0500
_audit_creation_method            fapswitch 2.2
_symmetry_space_group_name_H-M    P1
_symmetry_Int_Tables_number       1
_space_group_crystal_system       triclinic
_cell_length_a                    15.669124
_cell_length_b                    10.617247
_cell_length_c                    9.874142
_cell_angle_alpha                 89.456809
_cell_angle_beta                  89.409057
_cell_angle_gamma                 90.102531
_cell_volume                      1642.52737396

loop_
_atom_site_label
_atom_site_type_symbol
_atom_site_description
_atom_site_fract_x
_atom_site_fract_y
_atom_site_fract_z
_atom_type_partial_charge
O1    O     O_R   0.499980 0.314910 0.616040 -0.617494
O2    O     O_R   0.500040 0.314680 0.383960 -0.647634
C1    C     C_R   0.502597 0.258163 0.500225 0.874266
O3    O     O_R   0.376750 0.500100 0.616020 -0.642215
O4    O     O_R   0.376810 0.499870 0.383940 -0.549326
C2    C     C_R   0.338226 0.500266 0.500562 0.963216
Zn1   Zn    Zn3+2 0.499960 0.500150 0.654960 0.961680
Zn2   Zn    Zn3+2 0.500040 0.499850 0.345040 0.945336
O5    O     O_R   0.499960 0.685320 0.616040 -0.646929
O6    O     O_R   0.500020 0.685090 0.383960 -0.626519
O7    O     O_R   0.623190 0.500130 0.616060 -0.538091
O8    O     O_R   0.623250 0.499900 0.383980 -0.682380
C3    C     C_R   0.502872 0.741754 0.499309 0.850248
C4    C     C_R   0.661769 0.500113 0.499409 0.901261
C5    C     C_3   0.970986 0.391333 0.556585 -0.140260
C6    C     C_3   0.028903 0.400016 0.429012 -0.138973
H1    H     H_    0.054894 0.319211 0.371276 0.163437
H2    H     H_    0.944959 0.303450 0.602875 0.151741
H3    H     H_    0.949078 0.514607 0.265990 0.146936
C7    C     C_1   0.249165 0.499954 0.501770 -0.091733
C8    C     C_1   0.750809 0.499806 0.498120 -0.143089
C9    C     C_3   0.026637 0.490283 0.628544 -0.156184
C10   C     C_3   0.082699 0.498987 0.500977 0.182696
C11   C     C_3   0.971052 0.597869 0.570610 -0.152692
C12   C     C_3   0.917242 0.498939 0.498654 0.187664
C13   C     C_3   0.028924 0.606558 0.443039 -0.153969
C14   C     C_3   0.973289 0.507604 0.371077 -0.182648
C15   C     C_1   0.173699 0.499444 0.501881 -0.027815
C16   C     C_1   0.826264 0.499354 0.497877 -0.054644
H4    H     H_    0.054907 0.694469 0.396747 0.158900
H5    H     H_    0.945086 0.678664 0.628390 0.146086
H6    H     H_    0.050789 0.483167 0.733654 0.147302
C17   C     C_3   0.569895 0.071614 0.602860 -0.424322
H7    H     H_    0.553903 0.104050 0.706905 0.213429
H8    H     H_    0.634794 0.107870 0.576783 0.201311
C18   C     C_3   0.570056 0.926995 0.602353 -0.435433
H9    H     H_    0.635067 0.892261 0.575916 0.174349
H10   H     H_    0.554185 0.891720 0.706163 0.188222
H11   H     H_    0.402149 0.096997 0.650036 0.085145
H12   H     H_    0.393847 0.886618 0.637249 0.147756
C19   C     C_3   0.413734 0.070321 0.542424 0.166919
C20   C     C_3   0.531164 0.072694 0.357263 -0.380400
C21   C     C_3   0.503598 0.121389 0.499677 0.045519
H13   H     H_    0.489302 0.108952 0.275741 0.221137
H14   H     H_    0.596919 0.106219 0.332239 0.157858
C22   C     C_3   0.504180 0.878256 0.498442 0.127318
C23   C     C_3   0.413745 0.925519 0.536588 -0.425393
C24   C     C_3   0.529508 0.929550 0.355911 -0.379195
H15   H     H_    0.593500 0.893434 0.325352 0.158314
H16   H     H_    0.483101 0.898474 0.278614 0.235892
H17   H     H_    0.366725 0.890723 0.461860 0.230546
C25   C     C_3   0.450347 0.389900 0.085793 -0.316532
H18   H     H_    0.383668 0.392642 0.122271 0.245826
H19   H     H_    0.473402 0.301104 0.132277 0.138911
C26   C     C_3   0.457179 0.381087 0.926707 0.064271
H20   H     H_    0.500337 0.300787 0.910544 0.149894
H21   H     H_    0.386660 0.610977 0.880512 0.221543
C27   C     C_3   0.456756 0.615062 0.077222 0.226087
C28   C     C_3   0.590149 0.497238 0.080266 0.212947
N1    N     N_3   0.498170 0.499750 0.138610 -0.159824
N2    N     N_3   0.498850 0.496730 0.861320 -0.126333
C29   C     C_3   0.452736 0.608345 0.916792 -0.382827
C30   C     C_3   0.587756 0.506011 0.916146 0.196682
H22   H     H_    0.609183 0.598944 0.879262 0.127941
H23   H     H_    0.496314 0.698899 0.098531 0.086464
H24   H     H_    0.480942 0.696292 0.873489 0.133440
N3    N     N_R   0.344521 0.124006 0.460918 0.207087
O9    O     O_R   0.286498 0.193139 0.518870 -0.437953
O10   O     O_R   0.336966 0.097341 0.333229 -0.392143
C31   C     C_3   0.374324 0.326472 0.861387 -0.358411
C32   C     C_3   0.287697 0.388695 0.887148 -0.725822
H25   H     H_    0.268638 0.382589 0.995156 0.276104
H26   H     H_    0.284500 0.486196 0.848212 0.265955
H27   H     H_    0.238537 0.335350 0.831017 0.232067
H28   H     H_    0.381696 0.315157 0.751940 0.263569
H29   H     H_    0.367185 0.228119 0.900119 0.176285
N4    N     N_R   0.372921 0.642880 0.138620 0.243983
O11   O     O_R   0.304503 0.583018 0.103036 -0.432544
O12   O     O_R   0.363826 0.743058 0.212157 -0.403485
C33   C     C_3   0.645005 0.611924 0.140801 -0.343104
C34   C     C_3   0.679499 0.718226 0.048919 -1.025133
H30   H     H_    0.725592 0.681076 0.973135 0.302909
H31   H     H_    0.626992 0.770585 0.999111 0.250604
H32   H     H_    0.714586 0.787175 0.111575 0.264008
H33   H     H_    0.607822 0.660706 0.219156 0.242366
H34   H     H_    0.701979 0.579135 0.195592 0.246261
C35   C     C_3   0.633645 0.367536 0.124566 -0.324992
C36   C     C_3   0.731877 0.359587 0.126146 -0.819039
H35   H     H_    0.763016 0.428984 0.057770 0.300521
H36   H     H_    0.755663 0.376096 0.230025 0.227040
H37   H     H_    0.752805 0.263795 0.096249 0.254155
H38   H     H_    0.611731 0.338041 0.225789 0.239162
H39   H     H_    0.611040 0.289764 0.060186 0.186237
N5    N     N_R   0.649957 0.419790 0.852071 0.235392
O13   O     O_R   0.629297 0.308867 0.808339 -0.439531
O14   O     O_R   0.726836 0.460814 0.825954 -0.427191

loop_
_geom_bond_atom_site_label_1
_geom_bond_atom_site_label_2
_geom_bond_distance
_ccdc_geom_bond_type
C27   C29   1.588284 S    
C5    H2    1.110211 S    
C35   C36   1.541902 S    
H12   C23   1.114039 S    
C26   H20   1.100932 S    
C34   H30   1.110240 S    
H21   C29   1.099381 S    
H11   C19   1.115409 S    
N4    O11   1.298565 A    
Zn1   O7    1.964851 S    
C30   N5    1.479749 S    
C1    C21   1.452330 S    
C13   C14   1.546711 S    
C9    H6    1.110318 S    
C4    C8    1.395115 S    
C18   H9    1.113330 S    
C11   C13   1.546439 S    
C3    C22   1.449321 S    
O7    C4    1.295289 A    
C5    C12   1.530561 S    
C27   N1    1.511391 S    
C5    C6    1.546860 S    
C35   H39   1.106763 S    
C17   C18   1.535518 S    
C10   C13   1.530577 S    
N2    C30   1.503179 S    
O5    C3    1.294350 A    
Zn1   N2    2.037501 S    
C33   H34   1.103793 S    
C25   N1    1.486685 S    
C27   N4    1.472651 S    
C5    C9    1.546816 S    
C6    H1    1.110240 S    
C18   C22   1.554353 S    
C31   C32   1.530630 S    
H3    C14   1.110363 S    
C25   C26   1.577055 S    
C6    C14   1.546898 S    
C24   H16   1.111543 S    
C28   N1    1.546949 S    
C35   H38   1.096158 S    
C19   C21   1.560624 S    
N2    C29   1.494543 S    
C20   H13   1.110111 S    
O3    Zn1   1.972396 S    
C34   H31   1.110223 S    
C25   H19   1.107446 S    
N4    O12   1.300716 A    
C12   C16   1.425658 S    
C22   C24   1.551761 S    
C29   H24   1.112248 S    
N3    O9    1.300927 A    
C17   C21   1.552435 S    
C11   C12   1.530467 S    
C19   N3    1.469779 S    
O3    C2    1.295474 A    
C32   H26   1.102264 S    
C23   H17   1.113186 S    
C7    C15   1.182480 T    
C8    C16   1.182302 T    
O1    C1    1.297930 A    
C20   H14   1.114042 S    
C33   H33   1.098039 S    
C32   H27   1.111094 S    
C27   H23   1.106828 S    
C36   H37   1.110835 S    
Zn2   O8    1.972396 S    
C17   H7    1.112904 S    
C19   C23   1.539025 S    
C20   C24   1.520156 S    
C10   C15   1.426004 S    
N5    O14   1.302661 A    
C24   H15   1.113915 S    
C36   H36   1.110310 S    
C13   H4    1.110223 S    
C6    C10   1.530684 S    
C31   H29   1.113706 S    
C9    C11   1.546627 S    
C20   C21   1.559928 S    
C34   H32   1.111342 S    
C25   H18   1.102149 S    
Zn1   O5    1.999625 S    
C22   C23   1.548151 S    
O1    Zn1   2.007506 S    
O2    Zn2   1.999626 S    
O8    C4    1.295219 A    
C33   C34   1.535362 S    
O6    C3    1.294274 A    
C28   C33   1.612279 S    
O4    Zn2   1.964851 S    
C12   C14   1.530123 S    
C2    C7    1.395440 S    
C28   C30   1.623154 S    
C18   H10   1.113519 S    
O2    C1    1.291356 A    
C11   H5    1.110240 S    
C32   H25   1.105818 S    
Zn2   N1    2.038842 S    
O4    C2    1.295111 A    
C26   N2    1.524502 S    
C17   H8    1.113505 S    
N5    O13   1.299764 A    
C28   C35   1.596958 S    
C26   C31   1.568255 S    
C30   H22   1.099273 S    
C36   H35   1.104209 S    
Zn2   O6    2.007506 S    
C31   H28   1.093443 S    
C9    C10   1.530202 S    
N3    O10   1.301373 A    
