data_mof_unit_41230.cif
_audit_creation_date              2012-12-10T17:46:18-0500
_audit_creation_method            fapswitch 2.2
_symmetry_space_group_name_H-M    P1
_symmetry_Int_Tables_number       1
_space_group_crystal_system       triclinic
_cell_length_a                    14.139174
_cell_length_b                    10.640288
_cell_length_c                    9.97516
_cell_angle_alpha                 89.792783
_cell_angle_beta                  90.830635
_cell_angle_gamma                 92.665502
_cell_volume                      1498.9240639

loop_
_atom_site_label
_atom_site_type_symbol
_atom_type_description
_atom_site_fract_x
_atom_site_fract_y
_atom_site_fract_z
_atom_type_partial_charge
C1    C     C_R   0.501897 0.260778 0.500349 0.877744
C2    C     C_1   0.772211 0.502460 0.502473 -0.208040
C3    C     C_R   0.660807 0.140606 0.626836 -0.173296
C4    C     C_R   0.735285 0.079496 0.687865 -0.130904
C5    C     C_R   0.735655 0.948758 0.687313 -0.139836
C6    C     C_R   0.661577 0.878631 0.625649 -0.192595
C7    C     C_R   0.584837 0.939090 0.564738 0.099062
C8    C     C_R   0.584394 0.070907 0.565370 0.094211
C9    C     C_R   0.508155 0.128691 0.500937 -0.104315
C10   C     C_R   0.435972 0.059981 0.434174 -0.212668
C11   C     C_R   0.436640 0.931620 0.433052 -0.220390
C12   C     C_R   0.329504 0.501992 0.499501 0.913008
C13   C     C_R   0.509153 0.872026 0.499546 -0.086927
C14   C     C_R   0.391940 0.303527 0.128484 0.571344
C15   C     C_R   0.367420 0.195549 0.052489 -0.273460
C16   C     C_R   0.364981 0.203037 0.914900 -0.282479
C17   C     C_R   0.396651 0.313194 0.853542 -0.137000
C18   C     C_R   0.448957 0.406969 0.925336 0.108405
C19   C     C_R   0.448043 0.405146 0.069634 0.042257
C20   C     C_R   0.549148 0.589257 0.072078 -0.111398
C21   C     C_R   0.549149 0.589150 0.929503 -0.100079
C22   C     C_R   0.502927 0.739337 0.499852 0.848560
C23   C     C_R   0.670617 0.500849 0.500815 0.850481
C24   C     C_1   0.228111 0.506080 0.499264 -0.231887
C25   C     C_1   0.142858 0.507582 0.499983 -0.031544
C26   C     C_1   0.042920 0.507360 0.501151 0.001667
C27   C     C_1   0.957581 0.506173 0.502103 -0.000323
C28   C     C_1   0.857574 0.504179 0.502747 -0.015899
H1    H     H_    0.377853 0.105637 0.385384 0.186410
H2    H     H_    0.332163 0.126972 0.856299 0.177676
H3    H     H_    0.377966 0.322435 0.750424 0.211872
H4    H     H_    0.589564 0.662245 0.876959 0.143549
H5    H     H_    0.664577 0.242241 0.626930 0.149089
H6    H     H_    0.793339 0.133822 0.734589 0.138377
H7    H     H_    0.793988 0.901537 0.733609 0.137227
H8    H     H_    0.665888 0.777442 0.624636 0.140435
H9    H     H_    0.379277 0.878286 0.382978 0.151037
H10   H     H_    0.589515 0.662356 0.125740 0.146630
H11   H     H_    0.335920 0.112390 0.100152 0.160969
N1    N     N_R   0.499190 0.498800 0.142780 -0.101906
N2    N     N_R   0.499160 0.498720 0.857170 -0.101894
O1    O     O_R   0.500000 0.316780 0.614690 -0.641927
O2    O     O_R   0.499990 0.316750 0.385360 -0.553415
O3    O     O_R   0.373720 0.500010 0.614690 -0.622264
O4    O     O_R   0.373710 0.499990 0.385360 -0.534131
O5    O     O_R   0.500010 0.683250 0.614640 -0.613773
O6    O     O_R   0.500000 0.683220 0.385310 -0.616157
O7    O     O_R   0.626290 0.500010 0.614640 -0.606959
O8    O     O_R   0.626280 0.499990 0.385310 -0.593749
Zn1   Zn    Zn3+2 0.500010 0.500020 0.653130 0.928642
Zn2   Zn    Zn3+2 0.499990 0.499980 0.346870 0.978985
O9    O     O_3   0.352781 0.310220 0.253318 -0.583297
C29   C     C_3   0.252767 0.312555 0.241865 -0.351285
H12   H     H_    0.219797 0.232515 0.184078 0.149647
H13   H     H_    0.231547 0.403234 0.197476 0.182082
H14   H     H_    0.222716 0.303097 0.343386 0.184433

loop_
_geom_bond_atom_site_label_1
_geom_bond_atom_site_label_2
_ccdc_geom_bond_type
N2    Zn1   S    
C2    C28   T    
C6    C7    A    
C12   O4    A    
N1    Zn2   S    
C20   H10   S    
C9    C10   A    
C12   C24   S    
C15   H11   S    
C20   C21   A    
O5    Zn1   S    
O7    Zn1   S    
C22   O6    A    
C7    C8    A    
C12   O3    A    
C29   H12   S    
C24   C25   T    
C11   C13   A    
C10   H1    S    
O2    Zn2   S    
C26   C27   T    
C16   C17   A    
O1    Zn1   S    
C21   N2    A    
C15   C16   A    
C5    H7    S    
C22   O5    A    
C17   H3    S    
C6    H8    S    
C13   C22   S    
C17   C18   A    
C29   H13   S    
C5    C6    A    
C20   N1    A    
C21   H4    S    
C4    H6    S    
C23   O8    A    
C19   N1    A    
O4    Zn2   S    
C16   H2    S    
C3    C4    A    
C1    O1    A    
C7    C13   A    
C1    C9    S    
O9    C29   S    
C3    C8    A    
C10   C11   A    
C29   H14   S    
O3    Zn1   S    
C2    C23   S    
C11   H9    S    
C18   C19   A    
C3    H5    S    
C14   C15   A    
C4    C5    A    
O6    Zn2   S    
C23   O7    A    
O8    Zn2   S    
C25   C26   S    
C14   C19   A    
C1    O2    A    
C14   O9    S    
C18   N2    A    
C8    C9    A    
C27   C28   S    
