data_mof_unit_52209.cif
_audit_creation_date              2012-10-26T18:34:51-0400
_audit_creation_method            fapswitch 2.2
_symmetry_space_group_name_H-M    P1
_symmetry_Int_Tables_number       1
_space_group_crystal_system       triclinic
_cell_length_a                    11.019913
_cell_length_b                    9.703594
_cell_length_c                    17.814758
_cell_angle_alpha                 87.100821
_cell_angle_beta                  99.347049
_cell_angle_gamma                 89.459341
_cell_volume                      1876.98122823

loop_
_atom_site_label
_atom_site_type_symbol
_atom_type_description
_atom_site_fract_x
_atom_site_fract_y
_atom_site_fract_z
_atom_type_partial_charge
C1    C     C_R   0.263132 0.500232 0.503094 0.577062
C2    C     C_R   0.484069 0.496601 0.642594 0.591914
C3    C     C_R   0.869031 0.498217 0.490826 0.000932
C4    C     C_R   0.128582 0.500605 0.504280 -0.016259
C5    C     C_R   0.488440 0.613460 0.840376 0.210246
C6    C     C_R   0.510063 0.373405 0.159659 0.174640
C7    C     C_R   0.477436 0.623156 0.149369 0.160259
C8    C     C_R   0.391281 0.389827 0.840777 0.145656
C9    C     C_R   0.462437 0.617625 0.760566 0.216593
C10   C     C_R   0.543040 0.380451 0.239150 0.233451
C11   C     C_R   0.519061 0.627408 0.228460 0.201325
C12   C     C_R   0.736041 0.499643 0.495541 0.590564
C13   C     C_R   0.406339 0.376266 0.762748 0.134938
C14   C     C_R   0.454609 0.492000 0.723156 -0.086670
C15   C     C_R   0.519540 0.503964 0.273435 -0.067445
C16   C     C_R   0.415076 0.081193 0.447342 0.311752
C17   C     C_R   0.584937 0.918830 0.552580 0.310578
C18   C     C_R   0.583576 0.069751 0.553525 0.306475
C19   C     C_R   0.415859 0.930160 0.446860 0.297751
C20   C     C_R   0.451028 0.498269 0.881189 -0.062371
C21   C     C_R   0.479571 0.496181 0.114326 -0.064388
C22   C     C_1   0.130823 0.244537 0.533110 0.357640
C23   C     C_1   0.462300 0.497018 0.963621 0.195537
C24   C     C_1   0.863855 0.749605 0.451262 0.357285
C25   C     C_1   0.879801 0.239437 0.493701 0.357653
C26   C     C_1   0.115778 0.759097 0.499353 0.351123
C27   C     C_1   0.469194 0.495259 0.032123 0.199855
C28   C     C_R   0.066221 0.374689 0.511101 -0.047036
C29   C     C_R   0.930437 0.623203 0.480555 -0.037287
C30   C     C_R   0.937890 0.372930 0.500675 -0.028725
C31   C     C_R   0.058857 0.625522 0.492889 -0.043599
C32   C     C_R   0.508973 0.502384 0.356421 0.603267
Cu1   Cu    Cu3+1 0.500000 0.640660 0.500000 1.230064
Cu2   Cu    Cu3+1 0.500000 0.359340 0.500000 1.227889
H1    H     H_    0.653382 0.938842 0.859676 0.387387
H2    H     H_    0.796758 0.630986 0.665872 0.356131
H3    H     H_    0.757169 0.335380 0.684709 0.354859
H4    H     H_    0.251031 0.662559 0.314055 0.343841
H5    H     H_    0.579589 0.027379 0.174074 0.417073
H6    H     H_    0.264942 0.817722 0.158036 0.359912
H7    H     H_    0.112852 0.303267 0.820618 0.363188
H8    H     H_    0.214535 0.870498 0.744686 0.411831
H9    H     H_    0.660030 0.088854 0.368690 0.374918
H10   H     H_    0.774241 0.853767 0.200558 0.390770
H11   H     H_    0.453093 0.082893 0.796640 0.384289
H12   H     H_    0.214029 0.368179 0.324136 0.359899
N1    N     N_R   0.500000 0.852070 0.500000 -0.314661
N2    N     N_R   0.500000 0.147930 0.500000 -0.311255
N3    N     N_1   0.179883 0.139311 0.550758 -0.112456
N4    N     N_1   0.811970 0.850789 0.427611 -0.167080
N5    N     N_1   0.835400 0.132378 0.486997 -0.198311
N6    N     N_1   0.159929 0.866235 0.505643 -0.147221
O1    O     O_R   0.319640 0.618740 0.499990 -0.448622
O2    O     O_2   0.641244 0.713885 0.957743 -0.235859
O3    O     O_3   0.626314 0.857590 0.830232 -0.423580
O4    O     O_2   0.356785 0.206996 0.077866 -0.128167
O5    O     O_2   0.573052 0.194637 0.061891 -0.235663
O6    O     O_3   0.507106 0.079544 0.184266 -0.332707
O7    O     O_2   0.511052 0.856827 0.067931 -0.105274
O8    O     O_2   0.320274 0.735115 0.028688 -0.223801
O9    O     O_3   0.338371 0.871099 0.150000 -0.369661
O10   O     O_2   0.368032 0.159670 0.927456 -0.111075
O11   O     O_2   0.243933 0.359107 0.949036 -0.244207
O12   O     O_R   0.680360 0.381260 0.500010 -0.456913
O13   O     O_3   0.170120 0.222849 0.832178 -0.367841
O14   O     O_2   0.450193 0.872947 0.692101 -0.167011
O15   O     O_2   0.285973 0.714013 0.647389 -0.323833
O16   O     O_3   0.283617 0.819120 0.777038 -0.411812
O17   O     O_2   0.732272 0.202781 0.235371 -0.215912
O18   O     O_2   0.742839 0.342548 0.345639 -0.295187
O19   O     O_3   0.591267 0.138500 0.335291 -0.443562
O20   O     O_2   0.612667 0.850365 0.300868 -0.211656
O21   O     O_2   0.746677 0.647649 0.304670 -0.283110
O22   O     O_3   0.703411 0.797476 0.179568 -0.453078
O23   O     O_R   0.680360 0.618740 0.500010 -0.463298
O24   O     O_2   0.207497 0.255238 0.693551 -0.255119
O25   O     O_2   0.393590 0.185125 0.648933 -0.221939
O26   O     O_3   0.363046 0.090113 0.779600 -0.350277
O27   O     O_2   0.309673 0.132539 0.299091 -0.139073
O28   O     O_2   0.173752 0.137686 0.394464 -0.253621
O29   O     O_3   0.285386 0.349371 0.365121 -0.512547
O30   O     O_2   0.827246 0.858994 0.591944 -0.274964
O31   O     O_2   0.712616 0.871988 0.697130 -0.136568
O32   O     O_3   0.715571 0.651424 0.634017 -0.500811
O33   O     O_2   0.630964 0.117955 0.703641 -0.225094
O34   O     O_R   0.319640 0.381260 0.499990 -0.460197
O35   O     O_2   0.812145 0.090307 0.643991 -0.195334
O36   O     O_3   0.712869 0.319614 0.632923 -0.505728
O37   O     O_2   0.191688 0.910783 0.348782 -0.198865
O38   O     O_2   0.380180 0.877687 0.299175 -0.179872
O39   O     O_3   0.286997 0.680516 0.367285 -0.513568
O40   O     O_R   0.500000 0.618830 0.391250 -0.433190
O41   O     O_R   0.500000 0.381170 0.608750 -0.414169
O42   O     O_R   0.500000 0.618830 0.608750 -0.407996
O43   O     O_R   0.500000 0.381170 0.391250 -0.414795
O44   O     O_2   0.450097 0.843983 0.910136 -0.122141
S1    S     S_3+6 0.551960 0.759544 0.887666 0.128952
S2    S     S_3+6 0.708241 0.823326 0.618350 0.136991
S3    S     S_3+6 0.684373 0.150610 0.632516 0.132833
S4    S     S_3+6 0.318487 0.848806 0.366899 0.121463
S5    S     S_3+6 0.486998 0.211193 0.118397 0.167815
S6    S     S_3+6 0.412009 0.773495 0.096092 0.147786
S7    S     S_3+6 0.293212 0.281353 0.889238 0.140668
S8    S     S_3+6 0.370649 0.759706 0.715968 0.109175
S9    S     S_3+6 0.657646 0.264575 0.289175 0.106894
S10   S     S_3+6 0.646924 0.733768 0.256053 0.087664
S11   S     S_3+6 0.342693 0.226985 0.717254 0.103919
S12   S     S_3+6 0.297898 0.177144 0.377109 0.139750

loop_
_geom_bond_atom_site_label_1
_geom_bond_atom_site_label_2
_ccdc_geom_bond_type
C8    C13   A    
Cu1   O1    S    
H3    O36   S    
Cu2   O41   S    
C13   S11   S    
Cu1   O42   S    
C16   N2    A    
C15   C32   S    
C5    C20   A    
C7    C11   A    
C8    C20   A    
O4    S5    D    
C10   C15   A    
C9    S8    S    
C12   O12   A    
C19   N1    A    
C1    O34   A    
Cu2   O34   S    
C6    S5    S    
C3    C29   A    
C1    O1    A    
C24   C29   S    
C3    C12   S    
C11   C15   A    
Cu1   O23   S    
O31   S2    D    
O2    S1    D    
H11   O26   S    
C23   C27   T    
O39   S4    S    
C17   S2    S    
C21   C27   S    
O29   S12   S    
C26   C31   S    
C22   C28   S    
C13   C14   A    
H8    O16   S    
O30   S2    D    
O8    S6    D    
O38   S4    D    
C4    C28   A    
O15   S8    D    
Cu1   Cu2   S    
O35   S3    D    
C24   N4    T    
O37   S4    D    
H1    O3    S    
C4    C31   A    
O14   S8    D    
C2    O42   A    
Cu2   O43   S    
O11   S7    D    
Cu1   O40   S    
O17   S9    D    
H7    O13   S    
C7    C21   A    
C6    C21   A    
H4    O39   S    
C7    S6    S    
H6    O9    S    
O26   S11   S    
C3    C30   A    
C9    C14   A    
C25   N5    T    
C5    C9    A    
O33   S3    D    
C26   N6    T    
O22   S10   S    
H12   O29   S    
C20   C23   S    
O25   S11   D    
O44   S1    D    
O3    S1    S    
C11   S10   S    
Cu2   O12   S    
C17   C18   A    
O6    S5    S    
H10   O22   S    
C22   N3    T    
C5    S1    S    
O24   S11   D    
O19   S9    S    
Cu1   N1    S    
Cu2   N2    S    
C18   S3    S    
O13   S7    S    
O10   S7    D    
C25   C30   S    
H9    O19   S    
O7    S6    D    
C2    O41   A    
C17   N1    A    
O20   S10   D    
O18   S9    D    
C18   N2    A    
C6    C10   A    
C19   S4    S    
O5    S5    D    
O28   S12   D    
C1    C4    S    
O32   S2    S    
O16   S8    S    
O9    S6    S    
C29   C31   A    
H5    O6    S    
O21   S10   D    
C32   O40   A    
H2    O32   S    
C16   C19   A    
C28   C30   A    
O27   S12   D    
C2    C14   S    
C8    S7    S    
O36   S3    S    
C16   S12   S    
C32   O43   A    
C12   O23   A    
C10   S9    S    
