data_mof_unit_60059.cif
_audit_creation_date              2012-12-10T19:00:57-0500
_audit_creation_method            fapswitch 2.2
_symmetry_space_group_name_H-M    P1
_symmetry_Int_Tables_number       1
_space_group_crystal_system       triclinic
_cell_length_a                    10.632115
_cell_length_b                    14.259884
_cell_length_c                    13.349974
_cell_angle_alpha                 89.999725
_cell_angle_beta                  90.141771
_cell_angle_gamma                 90.000381
_cell_volume                      2024.01976172

loop_
_atom_site_label
_atom_site_type_symbol
_atom_type_description
_atom_site_fract_x
_atom_site_fract_y
_atom_site_fract_z
_atom_type_partial_charge
C1    C     C_R   0.500003 0.326497 0.500000 0.994109
C2    C     C_R   0.741375 0.479138 0.500171 0.927179
C3    C     C_R   0.500000 0.673494 0.500000 0.941610
C4    C     C_3   0.074151 0.420698 0.595825 -0.264033
C5    C     C_3   0.071943 0.427022 0.399284 -0.257660
C6    C     C_3   0.928055 0.427095 0.600760 -0.257678
C7    C     C_3   0.925846 0.420625 0.404226 -0.264047
C8    C     C_3   0.071891 0.575051 0.503098 -0.424993
C9    C     C_3   0.928111 0.575048 0.496820 -0.424970
C10   C     C_3   0.122281 0.472616 0.499301 -0.028684
C11   C     C_3   0.877717 0.472615 0.500704 -0.028690
C12   C     C_1   0.500003 0.957767 0.500000 0.030914
C13   C     C_1   0.500004 0.225899 0.500001 -0.105558
C14   C     C_1   0.500004 0.141363 0.500001 0.028752
C15   C     C_1   0.500004 0.042324 0.500000 0.034217
C16   C     C_2   0.131417 0.324151 0.612447 0.985975
C17   C     C_2   0.137600 0.339423 0.360061 0.979948
C18   C     C_2   0.862402 0.339519 0.640053 0.979934
C19   C     C_2   0.868579 0.324063 0.387696 0.985951
C20   C     C_1   0.500002 0.858707 0.499999 0.005087
C21   C     C_1   0.500001 0.774141 0.499999 -0.227260
C22   C     C_1   0.500001 0.499923 0.169382 0.107595
C23   C     C_1   0.499999 0.499923 0.830617 0.107649
C24   C     C_1   0.500001 0.499884 0.049529 -0.029351
C25   C     C_1   0.499999 0.499884 0.950471 -0.029350
C26   C     C_R   0.258622 0.479140 0.499830 0.927153
H1    H     H_    0.108703 0.462267 0.661139 0.159818
H2    H     H_    0.153319 0.246918 0.246349 0.355639
H3    H     H_    0.846677 0.247101 0.753846 0.355639
H4    H     H_    0.736559 0.247597 0.315833 0.345624
H5    H     H_    0.093042 0.479092 0.339241 0.135815
H6    H     H_    0.906953 0.479207 0.660760 0.135828
H7    H     H_    0.891288 0.462141 0.338875 0.159807
H8    H     H_    0.101971 0.610087 0.573787 0.190282
H9    H     H_    0.110489 0.617495 0.440215 0.186352
H10   H     H_    0.889513 0.617540 0.559666 0.186335
H11   H     H_    0.898033 0.610031 0.426101 0.190300
H12   H     H_    0.263391 0.247737 0.684428 0.345642
N1    N     N_1   0.500000 0.499980 0.261870 -0.054859
N2    N     N_1   0.500000 0.499980 0.738130 -0.054839
O1    O     O_R   0.500000 0.373720 0.576470 -0.587671
O2    O     O_R   0.231999 0.314710 0.679377 -0.793855
O3    O     O_2   0.222978 0.301947 0.406536 -0.640873
O4    O     O_R   0.103006 0.304383 0.266110 -0.786608
O5    O     O_2   0.777030 0.302004 0.593605 -0.640833
O6    O     O_R   0.896990 0.304552 0.734036 -0.786618
O7    O     O_2   0.910006 0.254928 0.430477 -0.534220
O8    O     O_R   0.767953 0.314574 0.320816 -0.793897
O9    O     O_R   0.500000 0.373720 0.423530 -0.587661
O10   O     O_R   0.314810 0.499990 0.576450 -0.606924
O11   O     O_R   0.314810 0.499990 0.423550 -0.624914
O12   O     O_R   0.685190 0.499990 0.576450 -0.624910
O13   O     O_R   0.685190 0.499990 0.423550 -0.606935
O14   O     O_R   0.500000 0.626290 0.576440 -0.595587
O15   O     O_R   0.500000 0.626290 0.423560 -0.595585
O16   O     O_2   0.090023 0.254986 0.569700 -0.534232
Zn1   Zn    Zn3+2 0.500000 0.500010 0.602090 1.005081
Zn2   Zn    Zn3+2 0.500000 0.500010 0.397910 1.005058

loop_
_geom_bond_atom_site_label_1
_geom_bond_atom_site_label_2
_ccdc_geom_bond_type
C4    C16   S    
C9    H10   S    
C6    H6    S    
O13   Zn2   S    
C16   O16   D    
N2    Zn1   S    
C7    H7    S    
C12   C15   T    
H3    O6    S    
O14   Zn1   S    
C10   C26   S    
C9    H11   S    
C17   O4    S    
O1    Zn1   S    
C5    C10   S    
O11   Zn2   S    
C8    H8    S    
C13   C14   T    
C20   C21   T    
C7    C11   S    
C9    C11   S    
C12   C20   S    
O15   Zn2   S    
C2    O12   A    
C22   N1    T    
C18   O6    S    
H4    O8    S    
H12   O2    S    
C7    C19   S    
C26   O10   A    
C6    C18   S    
C3    O14   A    
C22   C24   S    
C3    C21   S    
C5    C17   S    
O12   Zn1   S    
C2    C11   S    
C4    C10   S    
C23   N2    T    
C2    O13   A    
C18   O5    D    
C16   O2    S    
C6    C11   S    
C23   C25   S    
C1    C13   S    
C24   C25   T    
C4    C6    S    
C19   O7    D    
C1    O1    A    
C17   O3    D    
C5    C7    S    
C14   C15   S    
C4    H1    S    
C19   O8    S    
C26   O11   A    
O10   Zn1   S    
C3    O15   A    
H2    O4    S    
C8    C10   S    
O9    Zn2   S    
N1    Zn2   S    
C8    C9    S    
C5    H5    S    
C8    H9    S    
C1    O9    A    
