data_mof_unit_41564.cif
_audit_creation_date              2012-12-10T17:24:12-0500
_audit_creation_method            fapswitch 2.2
_symmetry_space_group_name_H-M    P1
_symmetry_Int_Tables_number       1
_space_group_crystal_system       triclinic
_cell_length_a                    19.291043
_cell_length_b                    10.826823
_cell_length_c                    9.650417
_cell_angle_alpha                 90.351999
_cell_angle_beta                  89.771372
_cell_angle_gamma                 96.157494
_cell_volume                      2003.91552542

loop_
_atom_site_label
_atom_site_type_symbol
_atom_type_description
_atom_site_fract_x
_atom_site_fract_y
_atom_site_fract_z
_atom_type_partial_charge
C1    C     C_R   0.492764 0.262038 0.499690 0.867209
C2    C     C_R   0.290449 0.502615 0.501040 -0.082210
C3    C     C_R   0.925112 0.439016 0.485702 0.472461
C4    C     C_R   0.066554 0.465022 0.489043 0.428561
C5    C     C_R   0.816660 0.475496 0.607950 -0.119457
C6    C     C_R   0.745645 0.485339 0.611299 -0.130812
C7    C     C_R   0.704472 0.459034 0.494534 -0.166511
C8    C     C_R   0.733820 0.402553 0.378200 0.208386
C9    C     C_R   0.806269 0.393232 0.373463 0.274630
C10   C     C_R   0.848411 0.435157 0.487569 -0.084528
C11   C     C_R   0.391284 0.105458 0.687613 0.347801
C12   C     C_R   0.367414 0.503186 0.500605 0.852965
C13   C     C_R   0.360603 0.036371 0.797462 -0.122376
C14   C     C_R   0.371446 0.912903 0.812597 -0.168413
C15   C     C_R   0.410929 0.856153 0.715167 -0.144790
C16   C     C_R   0.446752 0.925460 0.607501 0.051623
C17   C     C_R   0.440554 0.055141 0.599405 0.031772
C18   C     C_R   0.480385 0.126296 0.497229 -0.079847
C19   C     C_R   0.511696 0.066315 0.389473 -0.151439
C20   C     C_R   0.511117 0.939400 0.389116 -0.129163
C21   C     C_R   0.484492 0.868748 0.501794 -0.079337
C22   C     C_R   0.620255 0.606546 0.141763 0.282679
C23   C     C_R   0.494492 0.736309 0.500732 0.850399
C24   C     C_R   0.682470 0.605846 0.070482 -0.221966
C25   C     C_R   0.682205 0.630476 0.931157 0.276467
C26   C     C_R   0.617946 0.625895 0.861789 0.332610
C27   C     C_R   0.556093 0.564351 0.925940 0.025994
C28   C     C_R   0.556372 0.561941 0.075321 0.061336
C29   C     C_R   0.449552 0.432734 0.072050 0.342090
C30   C     C_R   0.449279 0.434818 0.925333 -0.009876
C31   C     C_R   0.631018 0.486682 0.498822 0.906552
C32   C     C_R   0.251008 0.512842 0.624405 0.294704
C33   C     C_R   0.178324 0.500381 0.618519 -0.138681
C34   C     C_R   0.143328 0.480740 0.492101 -0.007666
C35   C     C_R   0.182144 0.476756 0.369614 -0.121433
C36   C     C_R   0.254700 0.487482 0.374107 -0.168629
Cu1   Cu    Cu3+1 0.500000 0.499990 0.640660 1.044337
Cu2   Cu    Cu3+1 0.500000 0.500010 0.359340 1.055582
H1    H     H_    0.323817 0.075737 0.865453 0.199262
H2    H     H_    0.344840 0.858354 0.894380 0.192472
H3    H     H_    0.409686 0.757125 0.724483 0.198707
H4    H     H_    0.534183 0.897771 0.301144 0.211131
H5    H     H_    0.731232 0.625973 0.125907 0.233879
H6    H     H_    0.149070 0.507246 0.713792 0.191473
H7    H     H_    0.408376 0.379522 0.869950 0.214531
H8    H     H_    0.156479 0.462979 0.270261 0.185435
H9    H     H_    0.282659 0.482242 0.277267 0.211932
H10   H     H_    0.847118 0.503020 0.699244 0.212116
H11   H     H_    0.722482 0.514193 0.705499 0.203517
H12   H     H_    0.538576 0.118078 0.305798 0.206513
N1    N     N_R   0.031527 0.477944 0.369211 -0.202831
N2    N     N_R   0.962144 0.466045 0.367856 -0.155474
N3    N     N_R   0.960235 0.426161 0.605400 -0.201063
N4    N     N_R   0.029530 0.438650 0.606985 -0.204678
N5    N     N_R   0.500660 0.501210 0.147910 -0.199308
N6    N     N_R   0.500680 0.501290 0.852040 -0.200770
O1    O     O_R   0.499990 0.319640 0.618810 -0.568394
O2    O     O_R   0.500000 0.319660 0.381240 -0.546567
O3    O     O_R   0.400140 0.499970 0.618820 -0.534285
O4    O     O_R   0.400150 0.500000 0.381250 -0.564764
O5    O     O_R   0.500000 0.680340 0.618760 -0.540929
O6    O     O_R   0.500010 0.680360 0.381190 -0.563821
O7    O     O_R   0.599850 0.500000 0.618750 -0.575026
O8    O     O_R   0.599860 0.500030 0.381180 -0.538963
Br1   Br    Br    0.290238 0.547337 0.805254 -0.517644
Cl1   Cl    Cl    0.349558 0.235209 0.642722 -0.618233
Br2   Br    Br    0.381135 0.316179 0.157364 -0.463974
Br3   Br    Br    0.632793 0.742940 0.269913 -0.425793
Cl2   Cl    Cl    0.760673 0.706797 0.862967 -0.486312
Cl3   Cl    Cl    0.616961 0.749542 0.745361 -0.474647
Br4   Br    Br    0.675344 0.321176 0.235101 -0.437334
Br5   Br    Br    0.845574 0.314779 0.215536 -0.321181

loop_
_geom_bond_atom_site_label_1
_geom_bond_atom_site_label_2
_ccdc_geom_bond_type
Cu1   O5    S    
C3    N2    A    
C9    Br5   S    
C24   C25   A    
Cu1   O1    S    
C16   C21   A    
C1    O1    A    
C11   C13   A    
C9    C10   A    
C30   H7    S    
C20   H4    S    
C19   C20   A    
C11   Cl1   S    
C23   O5    A    
C2    C12   S    
C32   C33   A    
C27   N6    A    
C17   C18   A    
C1    C18   S    
C7    C8    A    
Cu1   N6    S    
C3    C10   S    
Cu1   O3    S    
N3    N4    A    
C12   O3    A    
C3    N3    A    
C19   H12   S    
C22   Br3   S    
C26   C27   A    
C29   C30   A    
C1    O2    A    
Cu2   O4    S    
C22   C24   A    
Cu1   O7    S    
Cu1   Cu2   S    
C33   C34   A    
C6    C7    A    
Cu2   O8    S    
C21   C23   S    
C6    H11   S    
C5    C6    A    
C26   Cl3   S    
C5    H10   S    
C4    C34   S    
C13   H1    S    
C7    C31   S    
C4    N1    A    
C14   H2    S    
N1    N2    A    
C12   O4    A    
C29   Br2   S    
C31   O7    A    
C5    C10   A    
C25   Cl2   S    
C20   C21   A    
C15   H3    S    
C36   H9    S    
C2    C32   A    
C34   C35   A    
C2    C36   A    
C27   C28   A    
C24   H5    S    
C18   C19   A    
C14   C15   A    
C32   Br1   S    
C8    Br4   S    
C22   C28   A    
C29   N5    A    
C13   C14   A    
C4    N4    A    
C25   C26   A    
Cu2   O2    S    
C35   H8    S    
C30   N6    A    
C31   O8    A    
C28   N5    A    
C23   O6    A    
C11   C17   A    
Cu2   N5    S    
C15   C16   A    
C16   C17   A    
Cu2   O6    S    
C8    C9    A    
C33   H6    S    
C35   C36   A    
