data_mof_unit_65691.cif
_audit_creation_date              2012-10-26T20:59:51-0400
_audit_creation_method            fapswitch 2.2
_symmetry_space_group_name_H-M    P1
_symmetry_Int_Tables_number       1
_space_group_crystal_system       triclinic
_cell_length_a                    14.429874
_cell_length_b                    13.152185
_cell_length_c                    10.713352
_cell_angle_alpha                 89.812326
_cell_angle_beta                  90.012695
_cell_angle_gamma                 90.000694
_cell_volume                      2033.21582798

loop_
_atom_site_label
_atom_site_type_symbol
_atom_type_description
_atom_site_fract_x
_atom_site_fract_y
_atom_site_fract_z
_atom_type_partial_charge
C1    C     C_R   0.328729 0.500000 0.500000 0.550484
C2    C     C_3   0.500047 0.403231 0.960109 -0.112358
C3    C     C_3   0.576158 0.548063 0.958249 -0.124787
C4    C     C_3   0.423842 0.451937 0.041751 -0.124787
C5    C     C_3   0.423817 0.547985 0.958158 -0.124777
C6    C     C_3   0.576183 0.452015 0.041842 -0.124777
C7    C     C_3   0.500022 0.499356 0.878875 0.038010
C8    C     C_3   0.499978 0.500644 0.121125 0.038011
C9    C     C_1   0.500000 0.173645 0.500001 0.120166
C10   C     C_1   0.500000 0.826355 0.499999 0.120166
C11   C     C_1   0.227145 0.499999 0.499999 -0.047997
C12   C     C_R   0.671271 0.500000 0.500000 0.550483
C13   C     C_1   0.772855 0.500001 0.500001 -0.047998
C14   C     C_1   0.142324 0.499999 0.499999 -0.042990
C15   C     C_1   0.857676 0.500001 0.500001 -0.042990
C16   C     C_1   0.042410 0.500000 0.500000 -0.000325
C17   C     C_1   0.957590 0.500000 0.500000 -0.000325
C18   C     C_1   0.500000 0.050680 0.500001 -0.047867
C19   C     C_1   0.500000 0.949320 0.499999 -0.047867
C20   C     C_R   0.499966 0.500211 0.256391 0.561882
C21   C     C_R   0.500034 0.499788 0.743608 0.561882
C22   C     C_3   0.499953 0.596769 0.039891 -0.112358
Cu1   Cu    Cu3+1 0.500000 0.592680 0.500000 0.973458
Cu2   Cu    Cu3+1 0.500000 0.407320 0.500000 0.973458
H1    H     H_    0.361576 0.587121 0.920538 0.115058
H2    H     H_    0.638424 0.412879 0.079462 0.115058
H3    H     H_    0.499911 0.675938 0.075524 0.126039
H4    H     H_    0.500089 0.324062 0.924476 0.126039
H5    H     H_    0.638381 0.587260 0.920703 0.115061
H6    H     H_    0.361619 0.412740 0.079297 0.115061
N1    N     N_1   0.500000 0.268070 0.500000 -0.168299
N2    N     N_1   0.500000 0.731930 0.500000 -0.168299
O1    O     O_R   0.376050 0.578280 0.500000 -0.473341
O2    O     O_R   0.623950 0.421720 0.500000 -0.473340
O3    O     O_R   0.623950 0.578280 0.500000 -0.473337
O4    O     O_R   0.376050 0.421720 0.500000 -0.473338
O5    O     O_R   0.499980 0.578250 0.316850 -0.493772
O6    O     O_R   0.500020 0.421750 0.683150 -0.493772
O7    O     O_R   0.500020 0.578250 0.683150 -0.490308
O8    O     O_R   0.499980 0.421750 0.316850 -0.490308

loop_
_geom_bond_atom_site_label_1
_geom_bond_atom_site_label_2
_ccdc_geom_bond_type
C8    C22   S    
Cu1   Cu2   S    
C5    C22   S    
C14   C16   S    
Cu1   O5    S    
C5    C7    S    
C2    C4    S    
C2    C7    S    
C21   O7    A    
C10   C19   S    
C4    C8    S    
C3    C6    S    
Cu1   N2    S    
Cu2   N1    S    
C1    O1    A    
Cu2   O4    S    
C12   O3    A    
C20   O5    A    
C6    H2    S    
C8    C20   S    
Cu1   O7    S    
C6    C8    S    
Cu2   O8    S    
C3    C7    S    
Cu1   O3    S    
C22   H3    S    
C13   C15   T    
C20   O8    A    
C11   C14   T    
C5    H1    S    
C9    N1    T    
C12   O2    A    
Cu2   O6    S    
C10   N2    T    
C9    C18   S    
C12   C13   S    
C15   C17   S    
C18   C19   T    
C3    H5    S    
Cu2   O2    S    
C16   C17   T    
C3    C22   S    
C2    H4    S    
C7    C21   S    
C4    H6    S    
C21   O6    A    
C2    C6    S    
C1    O4    A    
C4    C5    S    
Cu1   O1    S    
C1    C11   S    
