data_mof_unit_62989.cif
_audit_creation_date              2012-12-10T17:47:22-0500
_audit_creation_method            fapswitch 2.2
_symmetry_space_group_name_H-M    P1
_symmetry_Int_Tables_number       1
_space_group_crystal_system       tetragonal
_cell_length_a                    30.408142
_cell_length_b                    30.408142
_cell_length_c                    35.665167
_cell_angle_alpha                 90.0
_cell_angle_beta                  90.0
_cell_angle_gamma                 90.0
_cell_volume                      32977.9785551

loop_
_atom_site_label
_atom_site_type_symbol
_atom_type_description
_atom_site_fract_x
_atom_site_fract_y
_atom_site_fract_z
_atom_type_partial_charge
C1    C     C_R   0.084789 0.500000 0.500000 0.757702
C2    C     C_R   0.500000 0.915211 0.500000 0.757703
C3    C     C_R   0.915211 0.500000 0.500000 0.757703
C4    C     C_R   0.500000 0.084789 0.500000 0.757702
C5    C     C_R   0.584789 1.000000 0.000000 0.757702
C6    C     C_R   1.000000 0.415211 0.000000 0.757702
C7    C     C_R   0.415211 0.000000 0.000000 0.757703
C8    C     C_R   0.000000 0.584789 0.000000 0.757702
C9    C     C_R   0.132834 0.500000 0.500000 -0.057479
C10   C     C_R   0.500000 0.867166 0.500000 -0.057479
C11   C     C_R   0.867166 0.500000 0.500000 -0.057479
C12   C     C_R   0.500000 0.132834 0.500000 -0.057479
C13   C     C_R   0.632834 1.000000 0.000000 -0.057478
C14   C     C_R   1.000000 0.367166 0.000000 -0.057479
C15   C     C_R   0.367166 0.000000 0.000000 -0.057478
C16   C     C_R   1.000000 0.632834 0.000000 -0.057479
C17   C     C_R   0.225182 0.500000 0.500000 0.100287
C18   C     C_R   0.500000 0.774818 0.500000 0.100287
C19   C     C_R   0.774818 0.500000 0.500000 0.100287
C20   C     C_R   0.500000 0.225182 0.500000 0.100287
C21   C     C_R   0.725182 1.000000 0.000000 0.100287
C22   C     C_R   1.000000 0.274818 0.000000 0.100287
C23   C     C_R   0.274818 0.000000 0.000000 0.100287
C24   C     C_R   1.000000 0.725182 0.000000 0.100287
C25   C     C_R   0.296914 0.514076 0.468248 -0.234881
C26   C     C_R   0.514076 0.703086 0.468248 -0.234881
C27   C     C_R   0.703086 0.485924 0.468248 -0.234881
C28   C     C_R   0.485924 0.296914 0.468248 -0.234881
C29   C     C_R   0.296914 0.485924 0.531752 -0.234881
C30   C     C_R   0.514076 0.296914 0.531752 -0.234881
C31   C     C_R   0.703086 0.514076 0.531752 -0.234881
C32   C     C_R   0.485924 0.703086 0.531752 -0.234881
C33   C     C_R   0.796914 0.014076 0.968248 -0.234881
C34   C     C_R   0.014076 0.203085 0.968248 -0.234881
C35   C     C_R   0.203085 0.985924 0.968248 -0.234882
C36   C     C_R   0.985924 0.796914 0.968248 -0.234881
C37   C     C_R   0.796914 0.985924 0.031752 -0.234881
C38   C     C_R   0.014075 0.796914 0.031752 -0.234881
C39   C     C_R   0.203086 0.014076 0.031752 -0.234881
C40   C     C_R   0.985924 0.203086 0.031752 -0.234882
C41   C     C_R   0.342730 0.514072 0.468117 0.571302
C42   C     C_R   0.514072 0.657270 0.468117 0.571303
C43   C     C_R   0.657270 0.485928 0.468117 0.571302
C44   C     C_R   0.485928 0.342730 0.468117 0.571303
C45   C     C_R   0.342730 0.485928 0.531883 0.571302
C46   C     C_R   0.514072 0.342730 0.531883 0.571302
C47   C     C_R   0.657270 0.514072 0.531883 0.571302
C48   C     C_R   0.485928 0.657270 0.531883 0.571303
C49   C     C_R   0.842730 0.014072 0.968117 0.571303
C50   C     C_R   0.014072 0.157270 0.968117 0.571304
C51   C     C_R   0.157270 0.985928 0.968117 0.571304
C52   C     C_R   0.985928 0.842730 0.968117 0.571303
C53   C     C_R   0.842730 0.985928 0.031883 0.571303
C54   C     C_R   0.014072 0.842730 0.031883 0.571303
C55   C     C_R   0.157270 0.014072 0.031883 0.571303
C56   C     C_R   0.985928 0.157270 0.031883 0.571304
C57   C     C_R   0.366173 0.500000 0.500000 -0.288483
C58   C     C_R   0.500000 0.633827 0.500000 -0.288482
C59   C     C_R   0.633827 0.500000 0.500000 -0.288483
C60   C     C_R   0.500000 0.366173 0.500000 -0.288483
C61   C     C_R   0.866173 1.000000 0.000000 -0.288483
C62   C     C_R   1.000000 0.133827 0.000000 -0.288483
C63   C     C_R   0.133827 0.000000 0.000000 -0.288482
C64   C     C_R   0.000000 0.866173 0.000000 -0.288483
C65   C     C_R   0.273665 0.500000 0.500000 -0.065614
C66   C     C_R   0.500000 0.726335 0.500000 -0.065614
C67   C     C_R   0.726335 0.500000 0.500000 -0.065614
C68   C     C_R   0.500000 0.273665 0.500000 -0.065614
C69   C     C_R   0.773665 1.000000 0.000000 -0.065614
C70   C     C_R   1.000000 0.226335 0.000000 -0.065613
C71   C     C_R   0.226335 0.000000 0.000000 -0.065613
C72   C     C_R   1.000000 0.773665 0.000000 -0.065613
C73   C     C_R   0.500000 0.585372 0.500000 0.855115
C74   C     C_R   0.585372 0.500000 0.500000 0.855115
C75   C     C_R   0.500000 0.414628 0.500000 0.855116
C76   C     C_R   0.414628 0.500000 0.500000 0.855115
C77   C     C_R   1.000000 0.085372 0.000000 0.855115
C78   C     C_R   0.085372 0.000000 0.000000 0.855115
C79   C     C_R   1.000000 0.914628 0.000000 0.855115
C80   C     C_R   0.914628 1.000000 0.000000 0.855116
C81   C     C_R   1.000000 0.500000 0.427742 0.835854
C82   C     C_R   0.500000 1.000000 0.427742 0.835854
C83   C     C_R   1.000000 0.500000 0.572258 0.835854
C84   C     C_R   0.500000 1.000000 0.572258 0.835854
C85   C     C_R   0.500000 0.000000 0.927742 0.835854
C86   C     C_R   1.000000 0.500000 0.927742 0.835854
C87   C     C_R   0.500000 0.000000 0.072258 0.835854
C88   C     C_R   1.000000 0.500000 0.072258 0.835854
C89   C     C_R   0.037840 0.487742 0.173183 -0.221315
C90   C     C_R   0.487742 0.962160 0.173183 -0.221315
C91   C     C_R   0.962160 0.512258 0.173183 -0.221315
C92   C     C_R   0.512258 0.037840 0.173183 -0.221314
C93   C     C_R   0.037840 0.512258 0.826817 -0.221315
C94   C     C_R   0.487742 0.037840 0.826817 -0.221315
C95   C     C_R   0.962160 0.487742 0.826817 -0.221314
C96   C     C_R   0.512258 0.962160 0.826817 -0.221316
C97   C     C_R   0.537840 0.987742 0.673183 -0.221315
C98   C     C_R   0.987742 0.462160 0.673183 -0.221315
C99   C     C_R   0.462160 0.012258 0.673183 -0.221315
C100  C     C_R   0.012258 0.537840 0.673183 -0.221315
C101  C     C_R   0.537840 0.012258 0.326817 -0.221314
C102  C     C_R   0.987742 0.537840 0.326817 -0.221315
C103  C     C_R   0.462160 0.987742 0.326817 -0.221315
C104  C     C_R   0.012258 0.462160 0.326817 -0.221315
C105  C     C_R   0.038029 0.487720 0.133996 0.544673
C106  C     C_R   0.487720 0.961971 0.133996 0.544672
C107  C     C_R   0.961971 0.512280 0.133996 0.544673
C108  C     C_R   0.512280 0.038029 0.133996 0.544671
C109  C     C_R   0.038029 0.512280 0.866003 0.544672
C110  C     C_R   0.487720 0.038029 0.866003 0.544672
C111  C     C_R   0.961971 0.487720 0.866003 0.544672
C112  C     C_R   0.512280 0.961971 0.866003 0.544673
C113  C     C_R   0.538029 0.987720 0.633996 0.544671
C114  C     C_R   0.987720 0.461971 0.633996 0.544672
C115  C     C_R   0.461971 0.012280 0.633996 0.544671
C116  C     C_R   0.012280 0.538029 0.633996 0.544671
C117  C     C_R   0.538029 0.012280 0.366003 0.544671
C118  C     C_R   0.987720 0.538029 0.366003 0.544672
C119  C     C_R   0.461971 0.987720 0.366003 0.544672
C120  C     C_R   0.012280 0.461971 0.366003 0.544671
C121  C     C_R   1.000000 0.500000 0.113835 -0.301019
C122  C     C_R   0.500000 0.000000 0.113835 -0.301019
C123  C     C_R   1.000000 0.500000 0.886165 -0.301019
C124  C     C_R   0.500000 1.000000 0.886165 -0.301020
C125  C     C_R   0.500000 1.000000 0.613835 -0.301019
C126  C     C_R   1.000000 0.500000 0.613835 -0.301019
C127  C     C_R   0.500000 0.000000 0.386165 -0.301020
C128  C     C_R   1.000000 0.500000 0.386165 -0.301020
C129  C     C_R   1.000000 0.500000 0.192805 -0.053993
C130  C     C_R   0.500000 1.000000 0.192805 -0.053993
C131  C     C_R   1.000000 0.500000 0.807195 -0.053993
C132  C     C_R   0.500000 1.000000 0.807195 -0.053993
C133  C     C_R   0.500000 1.000000 0.692805 -0.053993
C134  C     C_R   0.000000 0.500000 0.692805 -0.053993
C135  C     C_R   0.500000 0.000000 0.307195 -0.053993
C136  C     C_R   1.000000 0.500000 0.307195 -0.053993
C137  C     C_1   0.000000 0.500000 0.233112 0.028955
C138  C     C_1   0.500000 1.000000 0.233112 0.028955
C139  C     C_1   0.000000 0.500000 0.766888 0.028955
C140  C     C_1   0.500000 0.000000 0.766888 0.028955
C141  C     C_1   0.500000 1.000000 0.733112 0.028955
C142  C     C_1   0.000000 0.500000 0.733112 0.028955
C143  C     C_1   0.500000 1.000000 0.266888 0.028955
C144  C     C_1   1.000000 0.500000 0.266888 0.028955
C145  C     C_R   0.202043 0.515298 0.531319 -0.171751
C146  C     C_R   0.515298 0.797956 0.531319 -0.171752
C147  C     C_R   0.797956 0.484702 0.531319 -0.171752
C148  C     C_R   0.484702 0.202043 0.531319 -0.171752
C149  C     C_R   0.202043 0.484702 0.468680 -0.171752
C150  C     C_R   0.515298 0.202043 0.468680 -0.171752
C151  C     C_R   0.797956 0.515298 0.468680 -0.171751
C152  C     C_R   0.484702 0.797956 0.468680 -0.171752
C153  C     C_R   0.702044 0.015298 0.031320 -0.171751
C154  C     C_R   0.015298 0.297956 0.031320 -0.171752
C155  C     C_R   0.297956 0.984702 0.031320 -0.171752
C156  C     C_R   0.984702 0.702044 0.031319 -0.171751
C157  C     C_R   0.702044 0.984702 0.968680 -0.171751
C158  C     C_R   0.015298 0.702044 0.968681 -0.171751
C159  C     C_R   0.297956 0.015297 0.968680 -0.171752
C160  C     C_R   0.984702 0.297956 0.968680 -0.171751
C161  C     C_R   0.156048 0.515242 0.531875 0.096540
C162  C     C_R   0.515242 0.843952 0.531875 0.096540
C163  C     C_R   0.843952 0.484758 0.531875 0.096540
C164  C     C_R   0.484758 0.156048 0.531875 0.096540
C165  C     C_R   0.156048 0.484758 0.468125 0.096540
C166  C     C_R   0.515242 0.156048 0.468125 0.096541
C167  C     C_R   0.843952 0.515242 0.468125 0.096540
C168  C     C_R   0.484758 0.843952 0.468125 0.096541
C169  C     C_R   0.656048 0.015242 0.031875 0.096540
C170  C     C_R   0.015242 0.343952 0.031875 0.096540
C171  C     C_R   0.343952 0.984758 0.031875 0.096541
C172  C     C_R   0.984758 0.656048 0.031875 0.096540
C173  C     C_R   0.656048 0.984758 0.968125 0.096540
C174  C     C_R   0.015242 0.656048 0.968125 0.096540
C175  C     C_R   0.343952 0.015242 0.968125 0.096541
C176  C     C_R   0.984758 0.343952 0.968125 0.096540
Cu1   Cu    Cu3+1 1.000000 0.456020 0.500000 1.047269
Cu2   Cu    Cu3+1 0.456020 1.000000 0.500000 1.047269
Cu3   Cu    Cu3+1 1.000000 0.543980 0.500000 1.047269
Cu4   Cu    Cu3+1 0.543980 1.000000 0.500000 1.047269
Cu5   Cu    Cu3+1 0.500000 0.956020 0.000000 1.047269
Cu6   Cu    Cu3+1 0.956020 0.500000 0.000000 1.047269
Cu7   Cu    Cu3+1 0.500000 0.043980 0.000000 1.047269
Cu8   Cu    Cu3+1 0.043980 0.500000 0.000000 1.047268
Cu9   Cu    Cu3+1 0.500000 0.500000 0.462810 1.176373
Cu10  Cu    Cu3+1 0.500000 0.500000 0.537190 1.176372
Cu11  Cu    Cu3+1 1.000000 1.000000 0.962810 1.176372
Cu12  Cu    Cu3+1 1.000000 1.000000 0.037190 1.176372
H1    H     H_    0.067257 0.478089 0.188230 0.183078
H2    H     H_    0.478089 0.932743 0.188230 0.183078
H3    H     H_    0.932743 0.521911 0.188230 0.183078
H4    H     H_    0.521911 0.067257 0.188230 0.183078
H5    H     H_    0.067257 0.521911 0.811770 0.183078
H6    H     H_    0.478089 0.067257 0.811770 0.183078
H7    H     H_    0.932743 0.478089 0.811770 0.183078
H8    H     H_    0.521911 0.932743 0.811770 0.183078
H9    H     H_    0.567257 0.978089 0.688230 0.183078
H10   H     H_    0.978089 0.432743 0.688230 0.183078
H11   H     H_    0.432743 0.021911 0.688230 0.183078
H12   H     H_    0.021911 0.567257 0.688230 0.183078
H13   H     H_    0.567257 0.021911 0.311770 0.183078
H14   H     H_    0.978089 0.567257 0.311770 0.183078
H15   H     H_    0.432743 0.978089 0.311770 0.183078
H16   H     H_    0.021911 0.432743 0.311770 0.183078
H17   H     H_    0.219879 0.527523 0.555482 0.150713
H18   H     H_    0.527523 0.780121 0.555482 0.150713
H19   H     H_    0.780121 0.472477 0.555482 0.150713
H20   H     H_    0.472477 0.219879 0.555482 0.150713
H21   H     H_    0.219879 0.472477 0.444518 0.150713
H22   H     H_    0.527523 0.219879 0.444518 0.150713
H23   H     H_    0.780121 0.527523 0.444518 0.150713
H24   H     H_    0.472477 0.780121 0.444518 0.150713
H25   H     H_    0.719879 0.027523 0.055482 0.150713
H26   H     H_    0.027523 0.280121 0.055482 0.150713
H27   H     H_    0.280121 0.972477 0.055482 0.150713
H28   H     H_    0.972476 0.719879 0.055482 0.150713
H29   H     H_    0.719879 0.972477 0.944518 0.150713
H30   H     H_    0.027524 0.719879 0.944518 0.150713
H31   H     H_    0.280121 0.027523 0.944518 0.150713
H32   H     H_    0.972476 0.280121 0.944518 0.150713
H33   H     H_    0.279573 0.525722 0.443648 0.180084
H34   H     H_    0.525722 0.720427 0.443648 0.180084
H35   H     H_    0.720427 0.474278 0.443648 0.180084
H36   H     H_    0.474278 0.279573 0.443648 0.180084
H37   H     H_    0.279573 0.474278 0.556352 0.180084
H38   H     H_    0.525722 0.279573 0.556352 0.180084
H39   H     H_    0.720427 0.525722 0.556352 0.180084
H40   H     H_    0.474278 0.720427 0.556352 0.180084
H41   H     H_    0.779573 0.025722 0.943648 0.180084
H42   H     H_    0.025721 0.220427 0.943648 0.180084
H43   H     H_    0.220427 0.974278 0.943648 0.180084
H44   H     H_    0.974279 0.779573 0.943648 0.180084
H45   H     H_    0.779573 0.974278 0.056352 0.180084
H46   H     H_    0.025721 0.779573 0.056352 0.180084
H47   H     H_    0.220427 0.025722 0.056352 0.180084
H48   H     H_    0.974279 0.220427 0.056352 0.180084
O1    O     O_R   0.064210 0.462880 0.500070 -0.580120
O2    O     O_R   0.462880 0.935790 0.500070 -0.580120
O3    O     O_R   0.935790 0.537120 0.500070 -0.580120
O4    O     O_R   0.537120 0.064210 0.500070 -0.580120
O5    O     O_R   0.064210 0.537120 0.499930 -0.580120
O6    O     O_R   0.462880 0.064210 0.499930 -0.580120
O7    O     O_R   0.935790 0.462880 0.499930 -0.580120
O8    O     O_R   0.537120 0.935790 0.499930 -0.580120
O9    O     O_R   0.564210 0.962880 0.000070 -0.580120
O10   O     O_R   0.962880 0.435790 0.000070 -0.580120
O11   O     O_R   0.435790 0.037120 0.000070 -0.580120
O12   O     O_R   0.037120 0.564210 0.000070 -0.580120
O13   O     O_R   0.564210 0.037120 0.999930 -0.580120
O14   O     O_R   0.962880 0.564210 0.999930 -0.580120
O15   O     O_R   0.435790 0.962880 0.999930 -0.580120
O16   O     O_R   0.037120 0.435790 0.999930 -0.580120
O17   O     O_R   0.999940 0.462880 0.445700 -0.527934
O18   O     O_R   0.462880 0.000060 0.445700 -0.527934
O19   O     O_R   0.000060 0.537120 0.445700 -0.527935
O20   O     O_R   0.537120 0.999940 0.445700 -0.527935
O21   O     O_R   0.999940 0.537120 0.554300 -0.527936
O22   O     O_R   0.462880 0.999940 0.554300 -0.527935
O23   O     O_R   0.000060 0.462880 0.554300 -0.527935
O24   O     O_R   0.537120 0.000060 0.554300 -0.527936
O25   O     O_R   0.499940 0.962880 0.945700 -0.527934
O26   O     O_R   0.962880 0.500060 0.945700 -0.527934
O27   O     O_R   0.500060 0.037120 0.945700 -0.527935
O28   O     O_R   0.037120 0.499940 0.945700 -0.527935
O29   O     O_R   0.499940 0.037120 0.054300 -0.527936
O30   O     O_R   0.962880 0.499940 0.054300 -0.527936
O31   O     O_R   0.500060 0.962880 0.054300 -0.527935
O32   O     O_R   0.037120 0.500060 0.054300 -0.527936
O33   O     O_R   0.499910 0.564360 0.468610 -0.532598
O34   O     O_R   0.564360 0.500090 0.468610 -0.532598
O35   O     O_R   0.500090 0.435640 0.468610 -0.532598
O36   O     O_R   0.435640 0.499910 0.468610 -0.532598
O37   O     O_R   0.499910 0.435640 0.531390 -0.532599
O38   O     O_R   0.564360 0.499910 0.531390 -0.532599
O39   O     O_R   0.500090 0.564360 0.531390 -0.532599
O40   O     O_R   0.435640 0.500090 0.531390 -0.532599
O41   O     O_R   0.999910 0.064360 0.968610 -0.532598
O42   O     O_R   0.064360 0.000090 0.968610 -0.532599
O43   O     O_R   0.000090 0.935640 0.968610 -0.532598
O44   O     O_R   0.935640 0.999910 0.968610 -0.532598
O45   O     O_R   0.999910 0.935640 0.031390 -0.532599
O46   O     O_R   0.064360 0.999910 0.031390 -0.532599
O47   O     O_R   0.000090 0.064360 0.031390 -0.532599
O48   O     O_R   0.935640 0.000090 0.031390 -0.532599
F1    F     F_    0.075257 0.475021 0.116003 -0.646520
F2    F     F_    0.475022 0.924742 0.116003 -0.646519
F3    F     F_    0.924743 0.524979 0.116003 -0.646520
F4    F     F_    0.524978 0.075257 0.116003 -0.646519
F5    F     F_    0.075257 0.524978 0.883997 -0.646519
F6    F     F_    0.475022 0.075258 0.883997 -0.646519
F7    F     F_    0.924743 0.475021 0.883997 -0.646519
F8    F     F_    0.524978 0.924742 0.883997 -0.646519
F9    F     F_    0.575257 0.975021 0.616003 -0.646519
F10   F     F_    0.975021 0.424743 0.616003 -0.646519
F11   F     F_    0.424742 0.024978 0.616003 -0.646519
F12   F     F_    0.024979 0.575257 0.616003 -0.646519
F13   F     F_    0.575257 0.024978 0.383997 -0.646519
F14   F     F_    0.975021 0.575257 0.383997 -0.646519
F15   F     F_    0.424742 0.975021 0.383997 -0.646519
F16   F     F_    0.024978 0.424742 0.383997 -0.646519
C177  C     C_3   0.133081 0.530678 0.567233 -0.407723
C178  C     C_3   0.131642 0.580774 0.569067 -0.691807
H49   H     H_    0.165487 0.594516 0.569187 0.233708
H50   H     H_    0.113343 0.594176 0.544663 0.266653
H51   H     H_    0.114717 0.591207 0.595177 0.274248
H52   H     H_    0.099074 0.517666 0.569264 0.204391
H53   H     H_    0.150820 0.517902 0.592223 0.204964
C179  C     C_3   0.530678 0.866919 0.567233 -0.407722
C180  C     C_3   0.580774 0.868358 0.569067 -0.691807
H54   H     H_    0.594516 0.834513 0.569187 0.233708
H55   H     H_    0.594176 0.886656 0.544663 0.266653
H56   H     H_    0.591207 0.885283 0.595177 0.274248
H57   H     H_    0.517666 0.900926 0.569264 0.204391
H58   H     H_    0.517902 0.849179 0.592223 0.204964
C181  C     C_3   0.866919 0.469322 0.567233 -0.407722
C182  C     C_3   0.868358 0.419226 0.569067 -0.691806
H59   H     H_    0.834513 0.405484 0.569187 0.233707
H60   H     H_    0.886656 0.405824 0.544663 0.266653
H61   H     H_    0.885283 0.408793 0.595177 0.274248
H62   H     H_    0.900926 0.482334 0.569264 0.204392
H63   H     H_    0.849179 0.482098 0.592223 0.204964
C183  C     C_3   0.469322 0.133081 0.567233 -0.407723
C184  C     C_3   0.419226 0.131642 0.569067 -0.691808
H64   H     H_    0.405484 0.165487 0.569187 0.233708
H65   H     H_    0.405824 0.113343 0.544663 0.266653
H66   H     H_    0.408793 0.114717 0.595177 0.274248
H67   H     H_    0.482334 0.099074 0.569264 0.204391
H68   H     H_    0.482098 0.150820 0.592223 0.204964
C185  C     C_3   0.133081 0.469322 0.432767 -0.407723
C186  C     C_3   0.131642 0.419226 0.430933 -0.691807
H69   H     H_    0.165487 0.405484 0.430813 0.233708
H70   H     H_    0.113343 0.405824 0.455337 0.266653
H71   H     H_    0.114717 0.408793 0.404823 0.274248
H72   H     H_    0.099074 0.482334 0.430736 0.204392
H73   H     H_    0.150820 0.482098 0.407776 0.204964
C187  C     C_3   0.530678 0.133081 0.432767 -0.407723
C188  C     C_3   0.580774 0.131642 0.430933 -0.691808
H74   H     H_    0.594516 0.165487 0.430813 0.233708
H75   H     H_    0.594176 0.113343 0.455337 0.266653
H76   H     H_    0.591207 0.114717 0.404823 0.274248
H77   H     H_    0.517666 0.099074 0.430736 0.204391
H78   H     H_    0.517902 0.150820 0.407776 0.204964
C189  C     C_3   0.866919 0.530678 0.432767 -0.407722
C190  C     C_3   0.868358 0.580774 0.430933 -0.691807
H79   H     H_    0.834513 0.594516 0.430813 0.233707
H80   H     H_    0.886656 0.594176 0.455337 0.266653
H81   H     H_    0.885283 0.591207 0.404823 0.274248
H82   H     H_    0.900926 0.517666 0.430736 0.204392
H83   H     H_    0.849179 0.517902 0.407776 0.204964
C191  C     C_3   0.469322 0.866919 0.432767 -0.407723
C192  C     C_3   0.419226 0.868358 0.430933 -0.691806
H84   H     H_    0.405484 0.834513 0.430813 0.233707
H85   H     H_    0.405824 0.886656 0.455337 0.266653
H86   H     H_    0.408793 0.885283 0.404823 0.274248
H87   H     H_    0.482334 0.900926 0.430736 0.204392
H88   H     H_    0.482098 0.849180 0.407776 0.204964
C193  C     C_3   0.633081 0.030677 0.067233 -0.407722
C194  C     C_3   0.631642 0.080774 0.069067 -0.691806
H89   H     H_    0.665487 0.094516 0.069187 0.233707
H90   H     H_    0.613343 0.094176 0.044663 0.266653
H91   H     H_    0.614717 0.091207 0.095177 0.274247
H92   H     H_    0.599074 0.017666 0.069264 0.204390
H93   H     H_    0.650820 0.017902 0.092223 0.204963
C195  C     C_3   0.030678 0.366919 0.067233 -0.407722
C196  C     C_3   0.080774 0.368358 0.069067 -0.691807
H94   H     H_    0.094516 0.334513 0.069187 0.233708
H95   H     H_    0.094176 0.386657 0.044663 0.266653
H96   H     H_    0.091207 0.385283 0.095177 0.274248
H97   H     H_    0.017666 0.400926 0.069264 0.204391
H98   H     H_    0.017902 0.349179 0.092223 0.204964
C197  C     C_3   0.366919 0.969323 0.067233 -0.407723
C198  C     C_3   0.368358 0.919227 0.069068 -0.691808
H99   H     H_    0.334513 0.905484 0.069187 0.233708
H100  H     H_    0.386657 0.905824 0.044663 0.266653
H101  H     H_    0.385283 0.908794 0.095178 0.274248
H102  H     H_    0.400926 0.982334 0.069264 0.204391
H103  H     H_    0.349179 0.982098 0.092223 0.204964
C199  C     C_3   0.969322 0.633081 0.067233 -0.407721
C200  C     C_3   0.919226 0.631642 0.069067 -0.691806
H104  H     H_    0.905484 0.665487 0.069187 0.233707
H105  H     H_    0.905824 0.613343 0.044663 0.266653
H106  H     H_    0.908792 0.614717 0.095177 0.274248
H107  H     H_    0.982333 0.599074 0.069264 0.204391
H108  H     H_    0.982097 0.650820 0.092223 0.204963
C201  C     C_3   0.633081 0.969322 0.932767 -0.407722
C202  C     C_3   0.631642 0.919226 0.930933 -0.691806
H109  H     H_    0.665487 0.905484 0.930813 0.233707
H110  H     H_    0.613343 0.905824 0.955337 0.266653
H111  H     H_    0.614717 0.908793 0.904822 0.274247
H112  H     H_    0.599074 0.982334 0.930736 0.204391
H113  H     H_    0.650820 0.982098 0.907776 0.204963
C203  C     C_3   0.030678 0.633081 0.932767 -0.407721
C204  C     C_3   0.080774 0.631642 0.930933 -0.691808
H114  H     H_    0.094516 0.665487 0.930813 0.233708
H115  H     H_    0.094176 0.613343 0.955337 0.266652
H116  H     H_    0.091207 0.614717 0.904823 0.274248
H117  H     H_    0.017667 0.599074 0.930736 0.204391
H118  H     H_    0.017903 0.650820 0.907777 0.204963
C205  C     C_3   0.366919 0.030677 0.932767 -0.407723
C206  C     C_3   0.368358 0.080773 0.930932 -0.691808
H119  H     H_    0.334513 0.094515 0.930812 0.233708
H120  H     H_    0.386657 0.094176 0.955337 0.266653
H121  H     H_    0.385283 0.091206 0.904822 0.274248
H122  H     H_    0.400926 0.017666 0.930736 0.204391
H123  H     H_    0.349179 0.017902 0.907776 0.204964
C207  C     C_3   0.969322 0.366919 0.932767 -0.407722
C208  C     C_3   0.919226 0.368358 0.930933 -0.691808
H124  H     H_    0.905484 0.334513 0.930813 0.233708
H125  H     H_    0.905824 0.386657 0.955337 0.266653
H126  H     H_    0.908793 0.385283 0.904823 0.274248
H127  H     H_    0.982333 0.400926 0.930736 0.204392
H128  H     H_    0.982098 0.349180 0.907777 0.204964
F17   F     F_    0.363925 0.528753 0.437039 -0.619093
F18   F     F_    0.528753 0.636074 0.437039 -0.619093
F19   F     F_    0.636074 0.471247 0.437039 -0.619093
F20   F     F_    0.471247 0.363925 0.437039 -0.619093
F21   F     F_    0.363925 0.471247 0.562961 -0.619093
F22   F     F_    0.528753 0.363925 0.562961 -0.619093
F23   F     F_    0.636074 0.528753 0.562961 -0.619093
F24   F     F_    0.471247 0.636074 0.562961 -0.619093
F25   F     F_    0.863925 0.028753 0.937039 -0.619093
F26   F     F_    0.028753 0.136074 0.937039 -0.619094
F27   F     F_    0.136074 0.971246 0.937039 -0.619094
F28   F     F_    0.971247 0.863925 0.937039 -0.619093
F29   F     F_    0.863925 0.971246 0.062961 -0.619093
F30   F     F_    0.028753 0.863925 0.062961 -0.619093
F31   F     F_    0.136074 0.028754 0.062961 -0.619094
F32   F     F_    0.971247 0.136074 0.062961 -0.619093

loop_
_geom_bond_atom_site_label_1
_geom_bond_atom_site_label_2
_ccdc_geom_bond_type
C193  C194  S    
C37   C69   A    
C62   C77   S    
C14   C170  A    
C42   C58   A    
C153  H25   S    
C188  H74   S    
C177  C178  S    
C13   C173  A    
C45   C57   A    
C104  H16   S    
C57   C76   S    
C112  C124  A    
C23   C155  A    
C138  C143  T    
C44   F20   S    
C139  C142  T    
Cu10  O40   S    
C98   C114  A    
C87   O31   A    
C61   C80   S    
Cu6   O26   S    
C117  F13   S    
C111  F7    S    
C198  H99   S    
C154  C170  A    
C194  H91   S    
C208  H126  S    
C40   H48   S    
C120  F16   S    
Cu2   O22   S    
C170  C195  S    
C158  C174  A    
C156  H28   S    
C185  H72   S    
C4    C12   S    
C161  C177  S    
C5    C13   S    
C167  C189  S    
Cu11  O41   S    
C35   C71   A    
C8    C16   S    
C207  H128  S    
C11   C167  A    
Cu8   O12   S    
C85   O27   A    
C18   C152  A    
C86   O28   A    
C6    O10   A    
C178  H50   S    
Cu5   Cu7   S    
Cu12  O46   S    
C186  H69   S    
C184  H64   S    
C91   C107  A    
C140  C141  T    
C78   O42   A    
Cu5   O15   S    
C25   C41   A    
C88   C121  S    
C91   H3    S    
C28   C44   A    
C94   C132  A    
C29   C45   A    
C182  H59   S    
C26   C66   A    
C92   C130  A    
C54   F30   S    
C158  H30   S    
C192  H85   S    
Cu9   O34   S    
C176  C207  S    
C81   C128  S    
C35   C51   A    
C64   C79   S    
C56   C62   A    
C202  H111  S    
C83   C126  S    
C174  C203  S    
C130  C138  S    
C188  H76   S    
Cu1   O1    S    
C46   C60   A    
C94   H6    S    
C20   C68   S    
C187  C188  S    
C87   C122  S    
Cu10  O38   S    
C37   H45   S    
C91   C129  A    
Cu11  O43   S    
C79   O45   A    
C204  H114  S    
C27   H35   S    
Cu7   O29   S    
C198  H101  S    
C47   F23   S    
C101  H13   S    
C196  H94   S    
C56   F32   S    
C145  C161  A    
C151  C167  A    
C55   F31   S    
Cu8   O28   S    
Cu5   O9    S    
C191  C192  S    
C3    C11   S    
C179  H57   S    
C47   C59   A    
C129  C137  S    
C10   C168  A    
C197  H102  S    
C7    O15   A    
C21   C153  A    
C194  H90   S    
C81   O17   A    
C199  C200  S    
C2    O8    A    
C86   O26   A    
C24   C156  A    
Cu12  O48   S    
C49   F25   S    
C30   H38   S    
C107  F3    S    
C192  H84   S    
C97   C133  A    
C145  H17   S    
C74   O34   A    
C192  H86   S    
C89   C129  A    
C8    O14   A    
C181  H62   S    
C40   C70   A    
C182  H61   S    
C41   F17   S    
C150  H22   S    
C172  C199  S    
C28   C68   A    
C114  C126  A    
C177  H53   S    
C205  C206  S    
C150  C166  A    
C7    O11   A    
C195  C196  S    
C187  H78   S    
Cu9   O36   S    
C53   C61   A    
C92   C108  A    
C183  H68   S    
Cu1   Cu3   S    
C55   C63   A    
C26   H34   S    
Cu3   O3    S    
C20   C148  A    
C36   C52   A    
C43   C59   A    
Cu3   O19   S    
C31   C67   A    
C135  C143  S    
C75   O37   A    
C33   H41   S    
C4    O6    A    
C100  C134  A    
C101  C135  A    
C113  F9    S    
C204  H116  S    
C38   C72   A    
C118  F14   S    
C115  F11   S    
C148  C164  A    
C97   H9    S    
C149  C165  A    
C163  C181  S    
C196  H96   S    
C148  H20   S    
C109  C123  A    
C200  H106  S    
C1    O1    A    
C156  C172  A    
C105  F1    S    
C21   C69   S    
C184  H65   S    
Cu4   O24   S    
C195  H97   S    
C9    C161  A    
C203  H117  S    
C108  F4    S    
C175  C205  S    
C6    C14   S    
C28   H36   S    
C106  C122  A    
C11   C163  A    
C81   O19   A    
C83   O23   A    
C93   H5    S    
Cu3   O5    S    
C29   C65   A    
C100  H12   S    
Cu1   O7    S    
C137  C144  T    
C99   H11   S    
C24   C72   S    
C90   H2    S    
C16   C174  A    
C45   F21   S    
C39   C71   A    
C104  C136  A    
C30   C46   A    
C119  F15   S    
C206  H119  S    
Cu2   O18   S    
C33   C69   A    
C18   C66   S    
Cu6   O14   S    
C147  C163  A    
C160  H32   S    
C22   C160  A    
C191  H87   S    
C50   C62   A    
C7    C15   S    
C20   C150  A    
C208  H125  S    
Cu6   Cu8   S    
C112  F8    S    
C131  C139  S    
C205  H123  S    
C190  H79   S    
C54   C64   A    
C10   C162  A    
C89   C105  A    
C104  C120  A    
C22   C70   S    
C36   C72   A    
C93   C109  A    
C63   C78   S    
C119  C127  A    
C193  H93   S    
C165  C185  S    
C197  H103  S    
C100  C116  A    
C154  H26   S    
Cu3   O21   S    
C200  H104  S    
C109  F5    S    
C146  C162  A    
C26   C42   A    
C186  H70   S    
C149  H21   S    
Cu6   O10   S    
C99   C115  A    
C180  H56   S    
Cu4   O4    S    
C33   C49   A    
C197  C198  S    
C182  H60   S    
C199  H107  S    
C14   C176  A    
C110  C124  A    
C201  H113  S    
C162  C179  S    
C134  C142  S    
C39   C55   A    
C32   H40   S    
C40   C56   A    
C186  H71   S    
C19   C67   S    
C34   C70   A    
Cu9   O33   S    
C183  C184  S    
C152  H24   S    
C181  C182  S    
C31   C47   A    
C95   C131  A    
C32   C48   A    
C82   O20   A    
C206  H121  S    
C188  H75   S    
C205  H122  S    
C103  C119  A    
C80   O48   A    
C49   C61   A    
C111  C123  A    
C5    O13   A    
C1    C9    S    
C90   C106  A    
C52   C64   A    
C108  C122  A    
Cu10  O39   S    
C180  H54   S    
C94   C110  A    
C19   C147  A    
C17   C145  A    
C23   C71   S    
C12   C164  A    
C204  H115  S    
C51   F27   S    
C38   C54   A    
C190  H81   S    
C157  H29   S    
C185  H73   S    
C51   C63   A    
C27   C67   A    
Cu7   O11   S    
C77   O47   A    
C155  H27   S    
C117  C127  A    
C59   C74   S    
C179  H58   S    
C87   O29   A    
C114  F10   S    
C159  H31   S    
C207  H127  S    
C46   F22   S    
C107  C121  A    
Cu2   O2    S    
C32   C66   A    
C201  C202  S    
C84   C125  S    
Cu12  O45   S    
C116  F12   S    
C95   H7    S    
C106  F2    S    
C17   C65   S    
C15   C175  A    
C88   O32   A    
C5    O9    A    
C203  C204  S    
C38   H46   S    
Cu2   Cu4   S    
C120  C128  A    
C48   C58   A    
C6    O16   A    
C132  C140  S    
C60   C75   S    
C133  C141  S    
C101  C117  A    
C9    C165  A    
C202  H109  S    
C102  H14   S    
C41   C57   A    
Cu11  Cu12  S    
C136  C144  S    
Cu9   Cu10  S    
C75   O35   A    
C177  H52   S    
C44   C60   A    
C189  H83   S    
C74   O38   A    
C83   O21   A    
C35   H43   S    
C102  C136  A    
Cu9   O35   S    
C90   C130  A    
C27   C43   A    
C96   H8    S    
Cu5   O25   S    
C8    O12   A    
C79   O43   A    
C153  C169  A    
C80   O44   A    
C89   H1    S    
C207  C208  S    
C82   O18   A    
C73   O33   A    
C93   C131  A    
C30   C68   A    
C92   H4    S    
C157  C173  A    
Cu2   O6    S    
C189  C190  S    
C31   H39   S    
C185  C186  S    
C202  H110  S    
C29   H37   S    
C146  H18   S    
Cu4   O20   S    
Cu10  O37   S    
Cu6   O30   S    
Cu11  O44   S    
C96   C112  A    
C178  H51   S    
C76   O40   A    
C151  H23   S    
Cu8   O16   S    
C84   O22   A    
C169  C193  S    
C196  H95   S    
C12   C166  A    
C24   C158  A    
C200  H105  S    
C113  C125  A    
C77   O41   A    
C99   C133  A    
C85   C124  S    
C3    O3    A    
C195  H98   S    
C103  C135  A    
C78   O46   A    
C203  H118  S    
Cu5   O31   S    
C198  H100  S    
C208  H124  S    
C25   H33   S    
C48   F24   S    
C102  C118  A    
C36   H44   S    
C96   C132  A    
C110  F6    S    
Cu12  O47   S    
C116  C126  A    
C189  H82   S    
C160  C176  A    
C34   H42   S    
C118  C128  A    
Cu4   O8    S    
C4    O4    A    
C164  C183  S    
C34   C50   A    
C98   H10   S    
C15   C171  A    
C25   C65   A    
C206  H120  S    
C2    O2    A    
C171  C197  S    
C166  C187  S    
C23   C159  A    
Cu7   O13   S    
C187  H77   S    
C152  C168  A    
C16   C172  A    
C19   C151  A    
C183  H67   S    
C191  H88   S    
C76   O36   A    
C105  C121  A    
C3    O7    A    
C147  H19   S    
Cu1   O23   S    
C1    O5    A    
C190  H80   S    
Cu8   O32   S    
C97   C113  A    
C2    C10   S    
C179  C180  S    
C22   C154  A    
Cu11  O42   S    
C193  H92   S    
C178  H49   S    
C21   C157  A    
C84   O24   A    
C17   C149  A    
C85   O25   A    
C18   C146  A    
C50   F26   S    
C173  C201  S    
Cu1   O17   S    
C98   C134  A    
C43   F19   S    
C115  C125  A    
C53   F29   S    
C184  H66   S    
C37   C53   A    
C95   C111  A    
C181  H63   S    
C39   H47   S    
C88   O30   A    
C42   F18   S    
C180  H55   S    
C73   O39   A    
Cu7   O27   S    
C13   C169  A    
C199  H108  S    
C194  H89   S    
C103  H15   S    
C82   C127  S    
C201  H112  S    
C155  C171  A    
C168  C191  S    
C86   C123  S    
C159  C175  A    
C52   F28   S    
C58   C73   S    
