data_mof_unit_63289.cif
_audit_creation_date              2012-12-10T19:39:05-0500
_audit_creation_method            fapswitch 2.2
_symmetry_space_group_name_H-M    P1
_symmetry_Int_Tables_number       1
_space_group_crystal_system       triclinic
_cell_length_a                    21.641305
_cell_length_b                    21.64064
_cell_length_c                    55.764986
_cell_angle_alpha                 90.080791
_cell_angle_beta                  90.175951
_cell_angle_gamma                 90.071722
_cell_volume                      26116.3404576

loop_
_atom_site_label
_atom_site_type_symbol
_atom_type_description
_atom_site_fract_x
_atom_site_fract_y
_atom_site_fract_z
_atom_type_partial_charge
C1    C     C_R   0.500428 0.380164 0.499858 0.914919
C2    C     C_R   0.456968 0.219425 0.511509 -0.062790
C3    C     C_R   0.577976 0.080184 0.301005 -0.108717
C4    C     C_R   0.581477 0.922570 0.800913 -0.108442
C5    C     C_R   0.924193 0.417844 0.800579 -0.108464
C6    C     C_R   0.418677 0.076136 0.800718 -0.108363
C7    C     C_R   0.075908 0.582745 0.801016 -0.108387
C8    C     C_R   0.040362 0.460222 0.313400 -0.040643
C9    C     C_R   0.459540 0.960697 0.313287 -0.041131
C10   C     C_R   0.961066 0.539627 0.313345 -0.041348
C11   C     C_R   0.538803 0.040333 0.313447 -0.040862
C12   C     C_R   0.540787 0.960788 0.813387 -0.041152
C13   C     C_R   0.780582 0.457532 0.512093 -0.058096
C14   C     C_R   0.961757 0.459104 0.813211 -0.041232
C15   C     C_R   0.459368 0.038011 0.813289 -0.041223
C16   C     C_R   0.038064 0.541572 0.813430 -0.041229
C17   C     C_R   0.000755 0.499962 0.300617 -0.056919
C18   C     C_R   0.499160 0.000551 0.300612 -0.056937
C19   C     C_R   0.500084 0.999359 0.800581 -0.056842
C20   C     C_R   0.000067 0.500279 0.800563 -0.056800
C21   C     C_R   0.552122 0.021179 0.586117 0.497598
C22   C     C_R   0.978392 0.551448 0.586091 0.500864
C23   C     C_R   0.448435 0.977530 0.585948 0.535088
C24   C     C_R   0.459605 0.780710 0.513092 -0.064475
C25   C     C_R   0.024102 0.448768 0.585928 0.526632
C26   C     C_R   0.052961 0.520038 0.086087 0.502218
C27   C     C_R   0.479748 0.052682 0.086034 0.502344
C28   C     C_R   0.947840 0.479972 0.086064 0.502553
C29   C     C_R   0.519931 0.947705 0.086112 0.502436
C30   C     C_R   0.039787 0.461117 0.338534 0.550753
C31   C     C_R   0.460556 0.961098 0.338421 0.550993
C32   C     C_R   0.961487 0.538597 0.338477 0.551016
C33   C     C_R   0.537895 0.039732 0.338578 0.550213
C34   C     C_R   0.540249 0.961816 0.838520 0.551153
C35   C     C_R   0.719778 0.044877 0.010694 -0.056557
C36   C     C_R   0.962431 0.459717 0.838348 0.551278
C37   C     C_R   0.459894 0.037161 0.838423 0.551165
C38   C     C_R   0.036892 0.541077 0.838561 0.551121
C39   C     C_R   0.537063 0.955824 0.737165 -0.021754
C40   C     C_R   0.958027 0.462355 0.736975 -0.022015
C41   C     C_R   0.463223 0.042556 0.737082 -0.022046
C42   C     C_R   0.043838 0.537482 0.737231 -0.021808
C43   C     C_R   0.036608 0.455739 0.237178 -0.021954
C44   C     C_R   0.454871 0.964766 0.237073 -0.022000
C45   C     C_R   0.965244 0.544518 0.237149 -0.021993
C46   C     C_R   0.955453 0.719615 0.010776 -0.057007
C47   C     C_R   0.543531 0.036500 0.237243 -0.021970
C48   C     C_R   0.500162 0.999165 0.724508 0.092713
C49   C     C_R   0.001099 0.499857 0.724487 0.092658
C50   C     C_R   0.000937 0.500145 0.224548 0.092850
C51   C     C_R   0.499237 0.000619 0.224543 0.092846
C52   C     C_R   0.021149 0.551867 0.388744 -0.166707
C53   C     C_R   0.551552 0.979713 0.388668 -0.166658
C54   C     C_R   0.979850 0.447773 0.388622 -0.169538
C55   C     C_R   0.447380 0.020542 0.388686 -0.170590
C56   C     C_R   0.519464 0.052206 0.888671 -0.168911
C57   C     C_R   0.280403 0.955315 0.010826 -0.057392
C58   C     C_R   0.052276 0.481266 0.888648 -0.169375
C59   C     C_R   0.480650 0.947175 0.888628 -0.168896
C60   C     C_R   0.946964 0.519021 0.888617 -0.168746
C61   C     C_R   0.430598 0.087426 0.723742 -0.276182
C62   C     C_R   0.088500 0.570725 0.724058 -0.275647
C63   C     C_R   0.569728 0.910903 0.723894 -0.275915
C64   C     C_R   0.913763 0.428924 0.723532 -0.276441
C65   C     C_R   0.933941 0.590374 0.223840 -0.275666
C66   C     C_R   0.589328 0.068027 0.224026 -0.275739
C67   C     C_R   0.067985 0.409956 0.223881 -0.275751
C68   C     C_R   0.044721 0.280461 0.010806 -0.057251
C69   C     C_R   0.409128 0.933239 0.223685 -0.275716
C70   C     C_R   0.431645 0.088010 0.698875 0.729538
C71   C     C_R   0.089433 0.569650 0.699190 0.728778
C72   C     C_R   0.568765 0.910231 0.699023 0.728135
C73   C     C_R   0.913450 0.429802 0.698661 0.728919
C74   C     C_R   0.934985 0.591010 0.198973 0.730084
C75   C     C_R   0.590025 0.066945 0.199158 0.729958
C76   C     C_R   0.066949 0.409364 0.199010 0.729960
C77   C     C_R   0.408592 0.934235 0.198816 0.730087
C78   C     C_R   0.465694 0.043638 0.686225 -0.178749
C79   C     C_3   0.213584 0.453062 0.543255 0.437545
C80   C     C_R   0.045650 0.534939 0.686370 -0.181712
C81   C     C_R   0.534763 0.954561 0.686298 -0.179999
C82   C     C_R   0.957487 0.464492 0.686106 -0.177547
C83   C     C_R   0.967701 0.545693 0.186294 -0.179403
C84   C     C_R   0.544827 0.033972 0.186385 -0.179403
C85   C     C_R   0.034175 0.454659 0.186312 -0.179429
C86   C     C_R   0.453901 0.967124 0.186213 -0.179448
C87   C     C_R   0.500205 0.999120 0.699018 -0.194064
C88   C     C_R   0.001419 0.499754 0.698996 -0.193780
C89   C     C_R   0.000943 0.500169 0.199059 -0.194077
C90   C     C_3   0.401417 0.214985 0.527108 0.438236
C91   C     C_R   0.499319 0.000575 0.199054 -0.194084
C92   C     C_R   0.533844 0.955385 0.661104 0.700540
C93   C     C_R   0.958576 0.465458 0.660919 0.694962
C94   C     C_R   0.466714 0.042743 0.661036 0.697221
C95   C     C_R   0.045026 0.533967 0.661174 0.701820
C96   C     C_R   0.033165 0.455520 0.161121 0.698916
C97   C     C_R   0.454882 0.968010 0.161024 0.698925
C98   C     C_R   0.968606 0.544798 0.161105 0.698901
C99   C     C_R   0.544058 0.032933 0.161193 0.698883
C100  C     C_R   0.000238 0.499889 0.426408 -0.347326
C101  C     C_3   0.784899 0.403176 0.528373 0.455086
C102  C     C_R   0.499711 0.000008 0.426405 -0.346549
C103  C     C_R   0.500014 0.999853 0.926387 -0.350931
C104  C     C_R   0.999752 0.499993 0.926376 -0.351094
C105  C     C_R   0.280441 0.480449 0.518840 -0.134968
C106  C     C_R   0.458288 0.281330 0.512106 -0.171917
C107  C     C_R   0.718665 0.459024 0.512710 -0.133009
C108  C     C_R   0.461129 0.718791 0.513671 -0.134736
C109  C     C_R   0.781702 0.043616 0.011270 -0.128880
C110  C     C_R   0.956696 0.781538 0.011348 -0.128868
C111  C     C_R   0.218486 0.956651 0.011458 -0.128705
C112  C     C_R   0.619844 0.500375 0.499898 0.948457
C113  C     C_3   0.408122 0.785127 0.530669 0.474515
C114  C     C_R   0.043462 0.218540 0.011402 -0.128853
C115  C     C_R   0.313955 0.502219 0.499468 -0.194630
C116  C     C_R   0.502074 0.314812 0.499693 -0.175358
C117  C     C_R   0.685214 0.501951 0.499789 -0.190727
C118  C     C_R   0.501778 0.685323 0.499717 -0.197397
C119  C     C_R   0.814913 0.998255 0.999624 -0.169061
C120  C     C_R   0.001901 0.814920 0.999696 -0.169433
C121  C     C_R   0.185081 0.001959 0.999833 -0.169229
C122  C     C_R   0.998012 0.185069 0.999788 -0.169223
C123  C     C_R   0.280947 0.524878 0.479362 0.682810
C124  C     C_3   0.715798 0.102060 0.025522 0.459818
C125  C     C_R   0.547367 0.282640 0.486596 0.638415
C126  C     C_R   0.717426 0.546089 0.486103 0.664168
C127  C     C_R   0.543678 0.717626 0.485021 0.667912
C128  C     C_R   0.782579 0.951541 0.987244 0.631590
C129  C     C_R   0.048563 0.782762 0.987363 0.631586
C130  C     C_R   0.217210 0.048660 0.987495 0.631704
C131  C     C_R   0.951074 0.217127 0.987500 0.631226
C132  C     C_R   0.216248 0.524451 0.479511 -0.250958
C133  C     C_R   0.547227 0.217873 0.486652 -0.231741
C134  C     C_R   0.782159 0.545903 0.486165 -0.242512
C135  C     C_3   0.898249 0.715426 0.025493 0.459879
C136  C     C_R   0.543598 0.782364 0.485124 -0.249708
C137  C     C_R   0.717832 0.951706 0.987314 -0.226288
C138  C     C_R   0.048422 0.718011 0.987438 -0.226286
C139  C     C_R   0.281947 0.048430 0.987515 -0.226021
C140  C     C_R   0.951241 0.281875 0.987553 -0.226078
C141  C     C_R   0.184851 0.500430 0.499404 -0.114051
C142  C     C_R   0.500885 0.185704 0.499240 -0.124240
C143  C     C_R   0.814305 0.500556 0.499311 -0.128961
C144  C     C_R   0.500487 0.814419 0.499318 -0.140412
C145  C     C_R   0.685813 0.999407 0.999208 -0.133190
C146  C     C_3   0.284614 0.897934 0.025477 0.460063
C147  C     C_R   0.000792 0.685818 0.999288 -0.133072
C148  C     C_R   0.314171 0.000669 0.999312 -0.132680
C149  C     C_R   0.999165 0.314168 0.999334 -0.132980
C150  C     C_3   0.102344 0.284754 0.025413 0.460168
C151  C     C_3   0.284724 0.454898 0.543624 0.478657
C152  C     C_3   0.402437 0.286137 0.527491 0.510543
C153  C     C_3   0.713725 0.404415 0.528796 0.451541
C154  C     C_3   0.409522 0.713944 0.531167 0.428228
C155  C     C_3   0.786980 0.100964 0.025901 0.443620
C156  C     C_R   0.500215 0.619881 0.499878 0.964355
C157  C     C_3   0.899331 0.786610 0.025868 0.443785
C158  C     C_3   0.213441 0.899104 0.025907 0.443689
C159  C     C_3   0.101240 0.213573 0.025810 0.443342
C160  C     C_R   0.500351 0.999041 0.623517 -0.200117
C161  C     C_R   0.001875 0.499989 0.623495 -0.197719
C162  C     C_R   0.000679 0.500053 0.123559 -0.198840
C163  C     C_R   0.499651 0.000330 0.123556 -0.198877
C164  C     C_R   0.551984 0.020947 0.611097 0.588212
C165  C     C_R   0.978865 0.551199 0.611071 0.587533
C166  C     C_R   0.448695 0.977287 0.610926 0.584155
C167  C     C_R   0.379875 0.500820 0.499815 0.930569
C168  C     C_R   0.024574 0.448905 0.610908 0.591061
C169  C     C_R   0.052942 0.520073 0.111066 0.587360
C170  C     C_R   0.479615 0.052568 0.111012 0.587283
C171  C     C_R   0.948234 0.479990 0.111043 0.586996
C172  C     C_R   0.519817 0.948002 0.111090 0.587143
C173  C     C_R   0.000556 0.499812 0.376159 0.114296
C174  C     C_R   0.499394 0.000190 0.376154 0.114567
C175  C     C_R   0.500070 0.999637 0.876126 0.113637
C176  C     C_R   0.999595 0.500227 0.876109 0.113820
C177  C     C_R   0.021002 0.552170 0.413708 0.571885
C178  C     C_R   0.000362 0.880201 0.999858 0.928682
C179  C     C_R   0.551975 0.979614 0.413634 0.573491
C180  C     C_R   0.979691 0.447545 0.413589 0.578900
C181  C     C_R   0.447270 0.020453 0.413652 0.576844
C182  C     C_R   0.519449 0.052581 0.913637 0.579693
C183  C     C_R   0.052622 0.481127 0.913613 0.580086
C184  C     C_R   0.480609 0.947015 0.913594 0.579614
C185  C     C_R   0.946777 0.518924 0.913587 0.579679
C186  C     C_R   0.000048 0.499962 0.452778 0.940827
C187  C     C_R   0.499912 0.999988 0.452777 0.943315
C188  C     C_R   0.499996 0.999958 0.952770 0.943265
C189  C     C_R   0.119799 0.000337 0.999904 0.928975
C190  C     C_R   0.999916 0.499986 0.952767 0.942699
C191  C     C_R   0.119817 0.500061 0.500005 0.916560
C192  C     C_R   0.500129 0.120105 0.499738 0.889904
C193  C     C_R   0.879898 0.500031 0.499809 0.891274
C194  C     C_R   0.500009 0.879937 0.499829 0.921946
C195  C     C_R   0.620145 0.999958 0.999766 0.888486
C196  C     C_R   0.000108 0.620145 0.999778 0.888521
C197  C     C_R   0.379852 0.000048 0.999778 0.888702
C198  C     C_R   0.999887 0.379851 0.999784 0.888428
C199  C     C_R   0.000217 0.500034 0.546930 1.044128
C200  C     C_R   0.999642 0.119796 0.999887 0.929137
C201  C     C_R   0.500078 0.999897 0.546935 1.044695
C202  C     C_R   0.499992 0.000042 0.046944 1.013604
C203  C     C_R   0.000089 0.500000 0.046944 1.013447
C204  C     C_R   0.500221 0.999543 0.573294 -0.544339
C205  C     C_R   0.000879 0.500083 0.573278 -0.524102
C206  C     C_R   0.000300 0.500001 0.073322 -0.544284
C207  C     C_R   0.499901 0.000146 0.073320 -0.544295
C208  C     C_R   0.039312 0.457996 0.262603 0.078822
C209  C     C_R   0.457150 0.962006 0.262494 0.078705
C210  C     C_R   0.962425 0.542144 0.262560 0.078667
C211  C     C_R   0.880200 0.999675 0.999839 0.929311
C212  C     C_R   0.541165 0.039249 0.262659 0.078765
C213  C     C_R   0.539705 0.958253 0.762590 0.078592
C214  C     C_R   0.960051 0.459893 0.762406 0.078725
C215  C     C_R   0.460516 0.040242 0.762498 0.078684
C216  C     C_R   0.041099 0.540250 0.762643 0.078558
C217  C     C_R   0.000833 0.500036 0.275161 0.087355
C218  C     C_R   0.499153 0.000607 0.275156 0.087320
C219  C     C_R   0.500101 0.999283 0.775124 0.087313
C220  C     C_R   0.000402 0.500144 0.775105 0.087301
C221  C     C_R   0.079702 0.419881 0.276019 -0.187086
C222  C     C_R   0.218530 0.478617 0.518596 -0.079431
C223  C     C_R   0.419124 0.921406 0.275801 -0.186934
C224  C     C_R   0.921953 0.580183 0.275916 -0.186903
C225  C     C_R   0.579149 0.079838 0.276124 -0.187124
C226  C     C_R   0.581133 0.921318 0.776029 -0.187400
C227  C     C_R   0.923353 0.418039 0.775693 -0.187159
C228  C     C_R   0.419051 0.077236 0.775836 -0.187145
C229  C     C_R   0.077398 0.582289 0.776138 -0.187301
C230  C     C_R   0.080033 0.420990 0.300904 -0.108820
C231  C     C_R   0.420315 0.920946 0.300684 -0.108448
C232  C     C_R   0.921471 0.578932 0.300796 -0.108113
F1    F     F_    0.398943 0.132651 0.687388 -0.570015
F2    F     F_    0.416622 0.309800 0.549912 -0.566322
F3    F     F_    0.690516 0.420453 0.551044 -0.601723
F4    F     F_    0.357459 0.687730 0.520850 -0.632032
F5    F     F_    0.810725 0.088939 0.048484 -0.598036
F6    F     F_    0.911323 0.810309 0.048471 -0.597776
F7    F     F_    0.190158 0.910834 0.048542 -0.597699
F8    F     F_    0.089888 0.190080 0.048441 -0.597845
F9    F     F_    0.602441 0.043772 0.574562 -0.545127
F10   F     F_    0.954694 0.601286 0.574519 -0.547011
F11   F     F_    0.398079 0.955087 0.574226 -0.522387
F12   F     F_    0.133817 0.602996 0.687870 -0.570695
F13   F     F_    0.047507 0.399045 0.574191 -0.546654
F14   F     F_    0.104008 0.540756 0.074486 -0.541690
F15   F     F_    0.459012 0.103699 0.074382 -0.541665
F16   F     F_    0.896616 0.459234 0.074441 -0.541549
F17   F     F_    0.540768 0.896602 0.074538 -0.541630
F18   F     F_    0.601869 0.042574 0.623317 -0.544732
F19   F     F_    0.956351 0.600526 0.623286 -0.546174
F20   F     F_    0.398853 0.955465 0.622977 -0.541212
F21   F     F_    0.047478 0.399498 0.622963 -0.543346
F22   F     F_    0.103610 0.540087 0.123214 -0.543190
F23   F     F_    0.601504 0.865550 0.687604 -0.572306
F24   F     F_    0.459502 0.103120 0.123109 -0.543237
F25   F     F_    0.897741 0.460018 0.123168 -0.543336
F26   F     F_    0.539808 0.897539 0.123266 -0.543291
F27   F     F_    0.042296 0.603124 0.425331 -0.604862
F28   F     F_    0.603036 0.958460 0.425183 -0.604803
F29   F     F_    0.958296 0.396616 0.425092 -0.596301
F30   F     F_    0.396350 0.041515 0.425222 -0.598702
F31   F     F_    0.539545 0.104095 0.925206 -0.593872
F32   F     F_    0.104288 0.461480 0.925160 -0.593755
F33   F     F_    0.460487 0.895598 0.925117 -0.594016
F34   F     F_    0.869380 0.396323 0.687075 -0.570804
F35   F     F_    0.895194 0.538457 0.925117 -0.593896
F36   F     F_    0.310598 0.548484 0.460000 -0.611537
F37   F     F_    0.591806 0.313480 0.474308 -0.637258
F38   F     F_    0.686669 0.589485 0.473203 -0.583565
F39   F     F_    0.584948 0.686972 0.471120 -0.580180
F40   F     F_    0.813257 0.905705 0.975671 -0.640538
F41   F     F_    0.094283 0.813616 0.975805 -0.640647
F42   F     F_    0.186342 0.094465 0.975955 -0.640788
F43   F     F_    0.905114 0.186177 0.975982 -0.641025
F44   F     F_    0.187526 0.495234 0.558915 -0.615577
F45   F     F_    0.903584 0.636620 0.187514 -0.569435
F46   F     F_    0.351013 0.191538 0.514751 -0.603482
F47   F     F_    0.807887 0.351776 0.516628 -0.597786
F48   F     F_    0.427574 0.811199 0.552081 -0.599225
F49   F     F_    0.692482 0.151206 0.012490 -0.595235
F50   F     F_    0.849124 0.692032 0.012366 -0.595456
F51   F     F_    0.307603 0.848931 0.012278 -0.595400
F52   F     F_    0.151107 0.308002 0.012188 -0.595397
F53   F     F_    0.635591 0.098543 0.187791 -0.569581
F54   F     F_    0.098389 0.363800 0.187564 -0.569575
F55   F     F_    0.363086 0.902619 0.187278 -0.569424
F56   F     F_    0.310542 0.396517 0.543818 -0.622399
H1    H     H_    0.112926 0.389485 0.267855 0.161587
H2    H     H_    0.390188 0.889065 0.310018 0.203218
H3    H     H_    0.889706 0.609085 0.310169 0.203489
H4    H     H_    0.608098 0.112033 0.310464 0.203189
H5    H     H_    0.614008 0.893284 0.810349 0.203215
H6    H     H_    0.895122 0.384958 0.809894 0.203238
H7    H     H_    0.386128 0.105471 0.810076 0.203293
H8    H     H_    0.104731 0.615732 0.810497 0.203237
H9    H     H_    0.037566 0.592044 0.379103 0.199005
H10   H     H_    0.591714 0.963573 0.378971 0.199193
H11   H     H_    0.963538 0.407574 0.378885 0.199415
H12   H     H_    0.388755 0.888100 0.267547 0.161782
H13   H     H_    0.407102 0.036764 0.379005 0.198813
H14   H     H_    0.534866 0.092731 0.878997 0.199737
H15   H     H_    0.092928 0.466333 0.878968 0.199562
H16   H     H_    0.465262 0.906569 0.878920 0.199717
H17   H     H_    0.906256 0.534047 0.878913 0.199730
H18   H     H_    0.192723 0.406134 0.543862 0.158180
H19   H     H_    0.410647 0.192413 0.544648 0.130130
H20   H     H_    0.807797 0.413674 0.545781 0.125135
H21   H     H_    0.365316 0.805733 0.523080 0.143763
H22   H     H_    0.693333 0.094727 0.043192 0.128635
H23   H     H_    0.888770 0.610614 0.267701 0.161890
H24   H     H_    0.905559 0.692905 0.043177 0.128825
H25   H     H_    0.307459 0.905009 0.043151 0.128874
H26   H     H_    0.095547 0.307443 0.043104 0.128931
H27   H     H_    0.404698 0.124107 0.732023 0.183212
H28   H     H_    0.124741 0.597184 0.732474 0.182921
H29   H     H_    0.595604 0.874256 0.732229 0.182833
H30   H     H_    0.877346 0.402481 0.731723 0.183145
H31   H     H_    0.909134 0.627767 0.232147 0.183347
H32   H     H_    0.626643 0.093030 0.232407 0.183287
H33   H     H_    0.092831 0.372574 0.232196 0.183228
H34   H     H_    0.609490 0.113199 0.267997 0.161729
H35   H     H_    0.371750 0.908281 0.231928 0.183295
H36   H     H_    0.190930 0.542327 0.464230 0.192785
H37   H     H_    0.582456 0.193179 0.476762 0.200410
H38   H     H_    0.806862 0.580317 0.475842 0.200890
H39   H     H_    0.576302 0.807158 0.474032 0.208357
H40   H     H_    0.693042 0.915322 0.977997 0.202815
H41   H     H_    0.084721 0.693355 0.978134 0.202896
H42   H     H_    0.306569 0.084768 0.978202 0.202845
H43   H     H_    0.914747 0.306450 0.978271 0.202959
H44   H     H_    0.305334 0.487613 0.556796 0.152609
H45   H     H_    0.615156 0.891787 0.767884 0.161447
H46   H     H_    0.362717 0.308691 0.518375 0.150060
H47   H     H_    0.690663 0.364025 0.520260 0.139230
H48   H     H_    0.423437 0.693216 0.548587 0.144682
H49   H     H_    0.809813 0.139745 0.016318 0.146442
H50   H     H_    0.860557 0.809368 0.016207 0.145777
H51   H     H_    0.190381 0.860480 0.016212 0.146008
H52   H     H_    0.139727 0.190714 0.016079 0.146427
H53   H     H_    0.894330 0.383575 0.767430 0.161563
H54   H     H_    0.385027 0.106703 0.767609 0.161667
H55   H     H_    0.106604 0.616688 0.768037 0.161513
H56   H     H_    0.111739 0.390782 0.310324 0.202862
N1    N     N_R   0.500302 0.999048 0.649170 -0.308888
N2    N     N_R   0.001882 0.499746 0.649147 -0.309634
N3    N     N_R   0.000839 0.500136 0.149212 -0.309436
N4    N     N_R   0.499526 0.000427 0.149208 -0.309448
N5    N     N_R   0.000606 0.499831 0.350494 -0.328466
N6    N     N_R   0.499268 0.000351 0.350488 -0.328467
N7    N     N_R   0.500073 0.999535 0.850460 -0.328398
N8    N     N_R   0.999580 0.500393 0.850443 -0.328424
O1    O     O_R   0.500120 0.408340 0.520000 -0.569164
O2    O     O_R   0.591600 0.500100 0.479780 -0.570106
O3    O     O_R   0.499900 0.591600 0.479780 -0.562516
O4    O     O_R   0.408400 0.499900 0.479780 -0.578389
O5    O     O_R   0.000100 0.908400 0.979780 -0.587374
O6    O     O_R   0.091600 0.000100 0.979780 -0.587031
O7    O     O_R   0.999900 0.091600 0.979780 -0.587430
O8    O     O_R   0.908400 0.999900 0.979780 -0.587469
O9    O     O_2   0.565921 0.912947 0.648513 -0.410224
O10   O     O_2   0.916712 0.432721 0.648170 -0.415162
O11   O     O_2   0.434690 0.085153 0.648379 -0.412778
O12   O     O_R   0.591660 0.500120 0.520000 -0.589667
O13   O     O_2   0.087110 0.566704 0.648672 -0.402839
O14   O     O_2   0.063930 0.412163 0.148505 -0.410759
O15   O     O_2   0.411629 0.937012 0.148319 -0.410747
O16   O     O_2   0.937795 0.588144 0.148474 -0.410862
O17   O     O_2   0.587413 0.063861 0.148652 -0.410821
O18   O     O_R   0.000080 0.551700 0.464240 -0.570289
O19   O     O_R   0.448300 0.000080 0.464240 -0.562890
O20   O     O_R   0.999920 0.448300 0.464240 -0.562094
O21   O     O_R   0.551700 0.999920 0.464240 -0.569791
O22   O     O_R   0.500080 0.051700 0.964240 -0.562614
O23   O     O_R   0.499880 0.591660 0.520000 -0.636158
O24   O     O_R   0.948300 0.500080 0.964240 -0.562666
O25   O     O_R   0.499920 0.948300 0.964240 -0.562866
O26   O     O_R   0.051700 0.499920 0.964240 -0.562130
O27   O     O_R   0.091720 0.551710 0.499860 -0.596395
O28   O     O_R   0.448290 0.091720 0.499860 -0.573904
O29   O     O_R   0.908280 0.448290 0.499860 -0.573071
O30   O     O_R   0.551710 0.908280 0.499860 -0.614297
O31   O     O_R   0.591720 0.051710 0.999860 -0.573945
O32   O     O_R   0.948290 0.591720 0.999860 -0.573766
O33   O     O_R   0.408280 0.948290 0.999860 -0.574043
O34   O     O_R   0.408340 0.499880 0.520000 -0.610453
O35   O     O_R   0.051710 0.408280 0.999860 -0.573789
O36   O     O_R   0.091720 0.448270 0.499890 -0.624442
O37   O     O_R   0.551730 0.091720 0.499890 -0.622545
O38   O     O_R   0.908280 0.551730 0.499890 -0.623713
O39   O     O_R   0.448270 0.908280 0.499890 -0.620145
O40   O     O_R   0.591720 0.948270 0.999890 -0.622908
O41   O     O_R   0.051730 0.591720 0.999890 -0.622965
O42   O     O_R   0.408280 0.051730 0.999890 -0.622924
O43   O     O_R   0.948270 0.408280 0.999890 -0.623078
O44   O     O_R   0.000130 0.551710 0.535480 -0.556898
O45   O     O_R   0.000120 0.908340 0.020000 -0.580236
O46   O     O_R   0.448290 0.000130 0.535480 -0.562841
O47   O     O_R   0.999870 0.448290 0.535480 -0.571770
O48   O     O_R   0.551710 0.999870 0.535480 -0.561435
O49   O     O_R   0.500130 0.051710 0.035480 -0.561992
O50   O     O_R   0.948290 0.500130 0.035480 -0.561666
O51   O     O_R   0.499870 0.948290 0.035480 -0.561932
O52   O     O_R   0.051710 0.499870 0.035480 -0.562266
O53   O     O_2   0.078343 0.423949 0.350948 -0.525965
O54   O     O_2   0.423514 0.922296 0.350731 -0.524720
O55   O     O_2   0.922849 0.575696 0.350834 -0.523696
O56   O     O_R   0.091660 0.000120 0.020000 -0.580781
O57   O     O_2   0.574981 0.078445 0.351040 -0.525236
O58   O     O_2   0.579814 0.925765 0.850955 -0.524067
O59   O     O_2   0.926641 0.419707 0.850633 -0.524088
O60   O     O_2   0.420318 0.073294 0.850762 -0.524062
O61   O     O_2   0.072436 0.581150 0.851051 -0.523953
O62   O     O_R   0.999880 0.091660 0.020000 -0.580637
O63   O     O_R   0.908340 0.999880 0.020000 -0.580097
O64   O     O_R   0.500100 0.408400 0.479780 -0.602005
Zn1   Zn    Zn3+2 0.500000 0.500000 0.526750 1.141369
Zn2   Zn    Zn3+2 0.930950 0.500100 0.999850 1.173564
Zn3   Zn    Zn3+2 0.499900 0.930950 0.999850 1.173377
Zn4   Zn    Zn3+2 0.069050 0.499900 0.999850 1.173694
Zn5   Zn    Zn3+2 1.000000 1.000000 0.026750 1.206290
Zn6   Zn    Zn3+2 0.500000 0.500000 0.473040 1.158888
Zn7   Zn    Zn3+2 1.000000 1.000000 0.973040 1.140062
Zn8   Zn    Zn3+2 0.000100 0.569050 0.499850 1.147020
Zn9   Zn    Zn3+2 0.430950 0.000100 0.499850 1.168287
Zn10  Zn    Zn3+2 0.999900 0.430950 0.499850 1.166362
Zn11  Zn    Zn3+2 0.569050 0.999900 0.499850 1.137479
Zn12  Zn    Zn3+2 0.500100 0.069050 0.999850 1.173476

loop_
_geom_bond_atom_site_label_1
_geom_bond_atom_site_label_2
_ccdc_geom_bond_type
C74   F45   S    
C79   F44   S    
C200  O7    A    
C28   C206  A    
C41   C61   A    
C74   C83   A    
O19   Zn9   S    
C213  C219  A    
C198  O43   A    
C101  H20   S    
C161  N2    S    
C196  O41   A    
C53   H10   S    
C230  H56   S    
C35   C124  S    
C188  O25   A    
C85   C96   A    
C152  F2    S    
C105  C222  A    
C199  C205  S    
C187  O19   A    
C215  C228  A    
C35   C145  A    
C140  H43   S    
C2    C90   S    
C175  N7    S    
C68   C149  A    
C134  C143  A    
C1    O64   A    
C162  C171  A    
C84   C91   A    
C160  C166  A    
C4    C12   A    
C31   N6    A    
C117  C126  A    
C58   H15   S    
C35   C109  A    
O3    Zn6   S    
C173  N5    S    
C119  C128  A    
C192  O28   A    
C84   C99   A    
C26   C206  A    
C105  C151  S    
C115  C123  A    
C150  C159  S    
O42   Zn12  S    
C92   O9    S    
C157  H50   S    
C127  C136  A    
C90   C152  S    
C98   N3    A    
C166  F20   S    
C58   C183  A    
C164  F18   S    
C27   F15   S    
O21   Zn11  S    
O22   Zn12  S    
C16   C20   A    
C10   C232  A    
C167  O4    A    
C48   C87   A    
C163  C172  A    
C110  C157  S    
C212  C225  A    
C46   C110  A    
C60   C176  A    
C72   F23   S    
C23   F11   S    
C37   N7    A    
C79   C222  S    
C21   F9    S    
C208  C217  A    
C132  H36   S    
C43   C208  A    
C6    H7    S    
C126  F38   S    
C154  H48   S    
O41   Zn4   S    
C8    C17   A    
C174  N6    S    
O37   Zn11  S    
C97   N4    A    
C80   C88   A    
C214  C220  A    
C5    H6    S    
C57   C111  A    
C162  C169  A    
C45   C50   A    
C78   C94   A    
C156  O3    A    
C153  H47   S    
C3    C11   A    
C73   F34   S    
C157  F6    S    
C190  O26   A    
C104  C183  A    
C126  C134  A    
C40   C214  A    
C136  H39   S    
C176  N8    S    
C122  C200  S    
C96   O14   S    
C76   C85   A    
C161  C165  A    
C26   F14   S    
C78   C87   A    
O44   Zn8   S    
C11   C18   A    
O6    Zn7   S    
C135  C157  S    
C123  C132  A    
C36   N8    A    
C69   C77   A    
C193  O38   A    
C121  C130  A    
O56   Zn5   S    
C228  H54   S    
C133  C142  A    
C111  C158  S    
C71   F12   S    
C14   C36   A    
C41   C215  A    
C75   C84   A    
C144  C194  S    
C168  F21   S    
C40   C49   A    
C178  O5    A    
O4    Zn6   S    
C44   C209  A    
O5    Zn7   S    
C163  C170  A    
C52   C177  A    
C15   C37   A    
C231  H2    S    
O30   Zn11  S    
C60   H17   S    
C81   C92   A    
C123  F36   S    
C181  F30   S    
C83   C98   A    
C221  C230  A    
C99   O17   S    
C159  F8    S    
C118  C156  S    
C131  C140  A    
O64   Zn6   S    
C42   C62   A    
C137  H40   S    
C151  H44   S    
C127  F39   S    
C191  O36   A    
C184  F33   S    
C128  F40   S    
C76   F54   S    
C135  F50   S    
C3    H4    S    
C77   F55   S    
C53   C179  A    
C25   C168  A    
C83   C89   A    
C138  H41   S    
C139  C148  A    
C39   C213  A    
C120  C129  A    
C11   C33   A    
C4    H5    S    
C199  O47   A    
C38   N8    A    
C158  H51   S    
C162  N3    S    
C133  H37   S    
O31   Zn12  S    
C2    C106  A    
C65   C74   A    
C5    C227  A    
C70   F1    S    
C29   F17   S    
C64   H30   S    
C188  O22   A    
C190  O24   A    
C221  H1    S    
C142  C192  S    
C163  N4    S    
C216  C229  A    
C147  C196  S    
C80   C95   A    
C186  O20   A    
C214  C227  A    
C113  F48   S    
C107  C153  S    
O34   Zn1   S    
C198  O35   A    
C30   N5    A    
C116  C125  A    
C45   C65   A    
C2    C142  A    
C189  O56   A    
C118  C127  A    
C224  H23   S    
C1    O1    A    
C194  O39   A    
C100  C180  A    
C122  C131  A    
C185  F35   S    
C132  C141  A    
C112  O12   A    
C105  C115  A    
C159  H52   S    
C216  C220  A    
C93   N2    A    
C7    H8    S    
C43   C50   A    
C146  C158  S    
C158  F7    S    
C119  C211  S    
C102  C187  S    
C29   C207  A    
C23   C204  A    
C202  C207  S    
C180  F29   S    
C229  H55   S    
C82   C88   A    
C182  F31   S    
C62   C71   A    
C90   H19   S    
C68   C150  S    
C9    C18   A    
C69   H35   S    
C108  C154  S    
C43   C67   A    
C95   O13   S    
C124  C155  S    
C82   C93   A    
C13   C101  S    
C140  C149  A    
C66   H32   S    
C18   C218  A    
C61   C70   A    
C191  O27   A    
C150  H26   S    
C60   C185  A    
C96   N3    A    
C129  F41   S    
C178  O45   A    
C113  C154  S    
O23   Zn1   S    
C22   F10   S    
C15   C19   A    
O48   Zn11  S    
C210  C217  A    
C160  C164  A    
C137  C145  A    
C86   C91   A    
C112  C117  S    
C148  C197  S    
C111  C121  A    
C183  F32   S    
O25   Zn3   S    
O26   Zn4   S    
C28   F16   S    
C186  O18   A    
C120  C178  S    
C51   C91   A    
C46   C135  S    
C67   H33   S    
C94   N1    A    
C56   H14   S    
C6    C228  A    
C124  H22   S    
C24   C108  A    
C4    C226  A    
C130  F42   S    
C47   C66   A    
C72   C81   A    
C149  C198  S    
O49   Zn12  S    
C21   C164  A    
C57   C146  S    
C49   C88   A    
C32   O55   S    
O36   Zn10  S    
C25   C205  A    
C130  C139  A    
C223  C231  A    
C203  C206  S    
C103  C184  A    
C14   C20   A    
C171  F25   S    
C210  C224  A    
C85   C89   A    
C47   C51   A    
O63   Zn5   S    
C36   O59   S    
C106  C116  A    
C225  H34   S    
C55   C174  A    
C199  O44   A    
C167  O34   A    
C215  C219  A    
C203  O52   A    
C50   C89   A    
C46   C147  A    
C33   N6    A    
C75   F53   S    
O32   Zn2   S    
C195  O40   A    
O20   Zn10  S    
C44   C69   A    
C150  F52   S    
C27   C170  A    
C5    C14   A    
C81   C87   A    
C135  H24   S    
O27   Zn8   S    
C7    C16   A    
O1    Zn1   S    
C209  C223  A    
O38   Zn8   S    
C112  O2    A    
C172  F26   S    
C73   C82   A    
C155  H49   S    
C211  O63   A    
C99   N4    A    
C109  C119  A    
C197  O33   A    
C7    C229  A    
C63   H29   S    
C102  C181  A    
C101  F47   S    
O43   Zn2   S    
C103  C188  S    
O47   Zn10  S    
C226  H45   S    
O12   Zn1   S    
C146  H25   S    
C160  N1    S    
C170  F24   S    
C90   F46   S    
C8    C30   A    
C79   H18   S    
C136  C144  A    
O8    Zn7   S    
C121  C189  S    
O35   Zn4   S    
C24   C144  A    
C66   C75   A    
C12   C19   A    
C152  H46   S    
C13   C143  A    
C109  C155  S    
C113  H21   S    
C94   O11   S    
C145  C195  S    
C42   C216  A    
C61   H27   S    
C63   C72   A    
C155  F5    S    
C57   C148  A    
C134  H38   S    
C31   O54   S    
C30   O53   S    
C54   H11   S    
C107  C117  A    
C65   H31   S    
O62   Zn5   S    
C39   C48   A    
C156  O23   A    
C25   F13   S    
O7    Zn7   S    
C93   O10   S    
C70   C78   A    
C103  C182  A    
C141  C191  S    
C13   C107  A    
C151  F56   S    
C232  H3    S    
C189  O6    A    
C124  F49   S    
C104  C185  A    
O50   Zn2   S    
C153  F3    S    
C212  C218  A    
C209  C218  A    
C54   C173  A    
C59   C175  A    
C201  O46   A    
C224  C232  A    
C203  O50   A    
C92   N1    A    
C10   C17   A    
C143  C193  S    
C202  O51   A    
O33   Zn3   S    
C86   C97   A    
C196  O32   A    
C6    C15   A    
C22   C165  A    
C8    C230  A    
C129  C138  A    
C26   C169  A    
C1    C116  S    
C3    C225  A    
C27   C207  A    
O24   Zn2   S    
C141  C222  A    
C34   O58   S    
C24   C113  S    
C47   C212  A    
C102  C179  A    
C20   C220  A    
C21   C204  A    
C100  C177  A    
C71   C80   A    
C53   C174  A    
C194  O30   A    
O28   Zn9   S    
C56   C175  A    
O52   Zn4   S    
C108  C118  A    
C38   O61   S    
C110  C120  A    
C197  O42   A    
C55   H13   S    
C16   C38   A    
C208  C221  A    
C22   C205  A    
C125  F37   S    
C52   H9    S    
C100  C186  S    
C128  C137  A    
C131  F43   S    
O29   Zn10  S    
C23   C166  A    
C28   C171  A    
C101  C153  S    
C138  C147  A    
C64   C73   A    
C104  C190  S    
C55   C181  A    
C187  O21   A    
O2    Zn6   S    
C177  F27   S    
O46   Zn9   S    
C44   C51   A    
C77   C86   A    
C201  C204  S    
C106  C152  S    
C19   C219  A    
C211  O8    A    
C115  C167  S    
C17   C217  A    
C79   C151  S    
C59   H16   S    
C125  C133  A    
C192  O37   A    
C165  F19   S    
C169  F22   S    
C58   C176  A    
C201  O48   A    
C193  O29   A    
C179  F28   S    
O18   Zn8   S    
C195  O31   A    
C39   C63   A    
C223  H12   S    
C202  O49   A    
O45   Zn5   S    
C45   C210  A    
C40   C64   A    
C9    C231  A    
C32   N5    A    
O51   Zn3   S    
C37   O60   S    
C56   C182  A    
C97   O15   S    
C41   C48   A    
C54   C180  A    
C33   O57   S    
O39   Zn9   S    
C29   C172  A    
C59   C184  A    
C114  C159  S    
C161  C168  A    
C98   O16   S    
C9    C31   A    
C42   C49   A    
C114  C122  A    
C10   C32   A    
C95   N2    A    
C200  O62   A    
C34   N7    A    
C62   H28   S    
C154  F4    S    
C67   C76   A    
C227  H53   S    
C213  C226  A    
C12   C34   A    
C52   C173  A    
O40   Zn3   S    
C146  F51   S    
C68   C114  A    
C139  H42   S    
