data_mof_unit_51673.cif
_audit_creation_date              2012-12-10T18:09:49-0500
_audit_creation_method            fapswitch 2.2
_symmetry_space_group_name_H-M    P1
_symmetry_Int_Tables_number       1
_space_group_crystal_system       triclinic
_cell_length_a                    10.678859
_cell_length_b                    12.610162
_cell_length_c                    13.100229
_cell_angle_alpha                 81.974208
_cell_angle_beta                  90.952516
_cell_angle_gamma                 102.528074
_cell_volume                      1705.06351202

loop_
_atom_site_label
_atom_site_type_symbol
_atom_type_description
_atom_site_fract_x
_atom_site_fract_y
_atom_site_fract_z
_atom_type_partial_charge
C1    C     C_R   0.486604 0.438423 0.691408 0.856489
C2    C     C_R   0.479703 0.450363 0.972328 0.065086
C3    C     C_R   0.537173 0.459179 0.874292 0.053065
C4    C     C_R   0.741852 0.500831 0.499661 0.862910
C5    C     C_R   0.529872 0.530825 0.036279 0.079871
C6    C     C_R   0.641231 0.613015 0.004762 0.132616
C7    C     C_R   0.706386 0.609754 0.914632 -0.244696
C8    C     C_R   0.659212 0.530295 0.852018 0.092689
C9    C     C_R   0.474992 0.530271 0.132295 -0.237729
C10   C     C_R   0.640784 0.684714 0.166470 -0.193645
C11   C     C_R   0.469801 0.397604 0.801052 -0.113744
C12   C     C_3   0.121664 0.501837 0.492764 0.125619
C13   C     C_R   0.324922 0.091172 0.342482 -0.315568
C14   C     C_R   0.650830 0.798917 0.631344 0.009351
C15   C     C_R   0.681391 0.903157 0.661101 0.176914
C16   C     C_R   0.513161 0.561402 0.308750 0.832558
C17   C     C_R   0.623437 0.984682 0.610694 -0.208951
C18   C     C_R   0.535356 0.962227 0.530485 -0.033540
C19   C     C_R   0.508539 0.854918 0.503592 0.169701
C20   C     C_R   0.473138 0.041590 0.476337 -0.021485
C21   C     C_R   0.386097 0.012466 0.395907 0.141414
C22   C     C_R   0.362461 0.905447 0.370348 0.022126
C23   C     C_3   0.069638 0.497522 0.378415 0.253411
C24   C     C_R   0.423084 0.828837 0.424304 -0.191529
C25   C     C_R   0.494199 0.149804 0.498521 -0.042179
C26   C     C_R   0.350256 0.196201 0.368407 0.026151
C27   C     C_R   0.258333 0.500288 0.497754 0.855883
C28   C     C_3   0.907040 0.408243 0.574721 -0.513209
C29   C     C_3   0.047029 0.399992 0.564716 -0.442179
C30   C     C_3   0.919328 0.484571 0.384827 0.031965
C31   C     C_3   0.957898 0.613716 0.522222 -0.456404
C32   C     C_3   0.878878 0.503109 0.494586 0.108126
C33   C     C_3   0.861497 0.550042 0.294278 -0.930587
C34   C     C_3   0.099120 0.608658 0.532976 -0.060648
C35   C     C_3   0.136980 0.601682 0.304631 -0.935539
C36   C     C_3   0.774496 0.928002 0.746158 -0.954272
C37   C     C_R   0.692119 0.692422 0.068154 -0.191094
C38   C     C_R   0.536896 0.599059 0.199944 -0.046232
C39   C     C_R   0.366800 0.309728 0.831928 -0.191388
C40   C     C_R   0.322972 0.289257 0.933260 -0.153626
C41   C     C_R   0.375406 0.360639 0.002314 -0.172849
H1    H     H_    0.843885 0.328087 0.563606 0.189990
H2    H     H_    0.888706 0.423161 0.654023 0.190211
H3    H     H_    0.304694 0.257833 0.327295 0.122805
H4    H     H_    0.258420 0.073005 0.280886 0.138371
H5    H     H_    0.558535 0.179845 0.557177 0.122088
H6    H     H_    0.694125 0.734572 0.669407 0.129101
H7    H     H_    0.649436 0.064160 0.636002 0.142243
H8    H     H_    0.401593 0.748808 0.402080 0.218696
H9    H     H_    0.090671 0.392758 0.642443 0.179557
H10   H     H_    0.050612 0.323304 0.532984 0.206343
H11   H     H_    0.874316 0.397319 0.378172 0.167856
H12   H     H_    0.156002 0.682652 0.484946 0.171415
H13   H     H_    0.947758 0.682111 0.461385 0.173813
H14   H     H_    0.921556 0.633052 0.595004 0.180006
H15   H     H_    0.896115 0.535042 0.219317 0.252452
H16   H     H_    0.755997 0.521301 0.294500 0.250662
H17   H     H_    0.884096 0.639306 0.298673 0.245102
H18   H     H_    0.242735 0.616852 0.312422 0.221952
H19   H     H_    0.116626 0.591055 0.222866 0.249970
H20   H     H_    0.104843 0.675904 0.319480 0.252803
H21   H     H_    0.720703 0.431630 0.760864 0.161144
H22   H     H_    0.742414 0.566236 0.710172 0.197684
H23   H     H_    0.689178 0.738853 0.219025 0.155684
H24   H     H_    0.311135 0.921066 0.220114 0.196206
H25   H     H_    0.186152 0.882566 0.306239 0.176235
H26   H     H_    0.812573 0.855121 0.778062 0.231567
H27   H     H_    0.856419 0.995098 0.716177 0.246003
H28   H     H_    0.725885 0.954207 0.809516 0.252325
H29   H     H_    0.191822 0.414906 0.314850 0.196476
H30   H     H_    0.043489 0.388919 0.270739 0.176922
H31   H     H_    0.144885 0.693661 0.656633 0.185765
H32   H     H_    0.075960 0.560888 0.691846 0.201192
H33   H     H_    0.798075 0.665483 0.895396 0.146414
H34   H     H_    0.776967 0.755365 0.044658 0.135568
H35   H     H_    0.389860 0.471217 0.160816 0.126163
H36   H     H_    0.315715 0.260629 0.776493 0.153111
H37   H     H_    0.333058 0.342053 0.078491 0.120899
H38   H     H_    0.243078 0.221522 0.956941 0.136964
N1    N     N_R   0.433240 0.222190 0.444680 -0.102272
N2    N     N_R   0.566070 0.776970 0.554790 -0.143311
N3    N     N_3   0.746001 0.512205 0.777215 -0.484464
N4    N     N_3   0.277549 0.871830 0.289307 -0.479892
N5    N     N_3   0.095713 0.400573 0.338100 -0.479473
N6    N     N_3   0.141778 0.614364 0.640002 -0.428990
O1    O     O_R   0.468120 0.366740 0.627160 -0.618492
O2    O     O_R   0.510770 0.544830 0.662520 -0.602008
O3    O     O_R   0.663880 0.410950 0.482330 -0.627880
O4    O     O_R   0.706530 0.589040 0.517700 -0.636909
O5    O     O_R   0.489230 0.455170 0.337480 -0.613955
O6    O     O_R   0.531880 0.633260 0.372840 -0.634293
O7    O     O_R   0.293470 0.410960 0.482300 -0.624516
O8    O     O_R   0.336120 0.589050 0.517670 -0.620452
Zn1   Zn    Zn3+2 0.471520 0.381090 0.476390 0.925780
Zn2   Zn    Zn3+2 0.528480 0.618910 0.523610 0.924514

loop_
_geom_bond_atom_site_label_1
_geom_bond_atom_site_label_2
_ccdc_geom_bond_type
C1    O2    A    
C30   C32   S    
C16   O5    A    
C33   H17   S    
C12   C29   S    
C25   N1    A    
C1    C11   S    
C17   H7    S    
H31   N6    S    
C36   H26   S    
C26   H3    S    
C7    C8    A    
C12   C23   S    
C10   C37   A    
C8    N3    S    
C39   H36   S    
C28   C29   S    
C4    O4    A    
C5    C6    A    
N2    Zn2   S    
H24   N4    S    
C20   C25   A    
C2    C41   A    
C24   H8    S    
C35   H18   S    
C18   C19   A    
O1    Zn1   S    
H25   N4    S    
C14   H6    S    
C6    C37   A    
O2    Zn2   S    
C9    H35   S    
H29   N5    S    
C33   H15   S    
C37   H34   S    
O8    Zn2   S    
C21   C22   A    
O5    Zn1   S    
C7    H33   S    
C29   H9    S    
O3    Zn1   S    
C31   C34   S    
C23   N5    S    
C12   C27   S    
C23   C30   S    
C28   C32   S    
C3    C8    A    
C39   C40   A    
H22   N3    S    
C26   N1    A    
C35   H19   S    
C34   N6    S    
O4    Zn2   S    
C5    C9    A    
C31   C32   S    
O7    Zn1   S    
C17   C18   A    
C40   H38   S    
C13   C21   A    
C27   O7    A    
C35   H20   S    
C11   C39   A    
H32   N6    S    
C4    C32   S    
C16   O6    A    
C40   C41   A    
C23   C35   S    
C22   C24   A    
C13   C26   A    
C27   O8    A    
C2    C5    A    
C12   C34   S    
C15   C36   S    
C41   H37   S    
C36   H28   S    
H30   N5    S    
C29   H10   S    
C1    O1    A    
C15   C17   A    
C30   H11   S    
C33   H16   S    
C30   C33   S    
C10   H23   S    
C36   H27   S    
C6    C7    A    
C4    O3    A    
C28   H2    S    
C10   C38   A    
C22   N4    S    
C19   C24   A    
C13   H4    S    
C28   H1    S    
C9    C38   A    
C2    C3    A    
C18   C20   A    
C31   H13   S    
H21   N3    S    
C3    C11   A    
O6    Zn2   S    
C20   C21   A    
C34   H12   S    
C14   C15   A    
C14   N2    A    
C31   H14   S    
C19   N2    A    
N1    Zn1   S    
C25   H5    S    
C16   C38   S    
