data_mof_unit_40282.cif
_audit_creation_date              2013-03-05T15:58:17-0500
_audit_creation_method            fapswitch 2.2
_symmetry_space_group_name_H-M    P1
_symmetry_Int_Tables_number       1
_space_group_crystal_system       triclinic
_cell_length_a                    12.659443
_cell_length_b                    13.163984
_cell_length_c                    15.49252
_cell_angle_alpha                 84.073399
_cell_angle_beta                  99.205387
_cell_angle_gamma                 96.499295
_cell_volume                      2522.61843776

loop_
_atom_site_label
_atom_site_type_symbol
_atom_site_description
_atom_site_fract_x
_atom_site_fract_y
_atom_site_fract_z
_atom_type_partial_charge
O1    O     O_R   0.374950 0.371210 0.521360 -0.607908
O2    O     O_R   0.542050 0.338030 0.492790 -0.644136
C1    C     C_R   0.445027 0.308447 0.512672 0.850912
O3    O     O_R   0.368720 0.526070 0.390200 -0.587485
O4    O     O_R   0.535820 0.492890 0.361630 -0.628455
C2    C     C_R   0.435109 0.511343 0.336148 0.877306
Zn1   Zn    Zn3+2 0.388420 0.522150 0.519080 0.953648
Zn2   Zn    Zn3+2 0.611580 0.477850 0.480920 0.917992
O5    O     O_R   0.457950 0.661970 0.507210 -0.632973
O6    O     O_R   0.625050 0.628790 0.478640 -0.620625
O7    O     O_R   0.464180 0.507110 0.638370 -0.618442
O8    O     O_R   0.631280 0.473930 0.609800 -0.640765
C3    C     C_R   0.556844 0.691145 0.492209 0.859482
C4    C     C_R   0.564129 0.484513 0.663753 0.844163
C5    C     C_R   0.394165 0.502105 0.243248 -0.101247
C6    C     C_R   0.600683 0.464340 0.757535 -0.053280
C7    C     C_R   0.249110 0.460412 0.126778 -0.158736
C8    C     C_R   0.284186 0.487282 0.212165 -0.127593
C9    C     C_R   0.468418 0.493304 0.187720 -0.251038
C10   C     C_R   0.435799 0.458469 0.104636 0.096612
C11   C     C_R   0.324235 0.445225 0.072936 0.145152
C12   C     C_R   0.511691 0.440408 0.051396 0.073631
C13   C     C_R   0.475691 0.425307 0.961950 0.071342
C14   C     C_R   0.363660 0.408436 0.932895 -0.221995
C15   C     C_R   0.289384 0.417237 0.988067 -0.206159
C16   C     C_R   0.622353 0.437418 0.084542 -0.228027
C17   C     C_R   0.697285 0.434843 0.028811 -0.218026
C18   C     C_R   0.664544 0.438034 0.938593 0.166754
C19   C     C_R   0.553285 0.431685 0.904402 0.094614
C20   C     C_R   0.741926 0.451264 0.881888 -0.181957
C21   C     C_R   0.710171 0.465915 0.791599 -0.190765
C22   C     C_R   0.523695 0.441764 0.813313 -0.266575
H1    H     H_    0.204283 0.404556 0.963414 0.154534
H2    H     H_    0.440731 0.437397 0.783963 0.161299
H3    H     H_    0.771026 0.480770 0.748823 0.163570
H4    H     H_    0.781721 0.435721 0.056163 0.165218
H5    H     H_    0.163545 0.449499 0.103496 0.169860
H6    H     H_    0.226109 0.494067 0.254501 0.241985
H7    H     H_    0.552214 0.513871 0.210961 0.168115
H8    H     H_    0.330782 0.386269 0.868235 0.146820
H9    H     H_    0.653364 0.436223 0.153624 0.155517
H10   H     H_    0.826979 0.455037 0.907536 0.149045
C23   C     C_R   0.727432 0.926095 0.566282 -0.182733
H11   H     H_    0.762334 0.775763 0.545626 0.157712
H12   H     H_    0.752692 0.111752 0.625764 0.157318
H13   H     H_    0.809773 0.948876 0.594105 0.156227
C24   C     C_R   0.594631 0.797996 0.501989 -0.051097
C25   C     C_R   0.301852 0.165444 0.498592 -0.187433
C26   C     C_R   0.269460 0.061873 0.492684 -0.095007
C27   C     C_R   0.346107 0.992066 0.503973 -0.165806
C28   C     C_R   0.456998 0.025050 0.525415 0.078682
C29   C     C_R   0.487285 0.127121 0.545431 0.086507
C30   C     C_R   0.538945 0.960309 0.527202 0.080896
C31   C     C_R   0.646685 0.991773 0.562908 0.172763
C32   C     C_R   0.671696 0.087649 0.595543 -0.247598
C33   C     C_R   0.592909 0.154785 0.586960 -0.221584
C34   C     C_R   0.516797 0.866017 0.491927 -0.264684
C35   C     C_R   0.701092 0.828479 0.537074 -0.187382
C36   C     C_R   0.411005 0.198936 0.522301 -0.113955
H14   H     H_    0.437998 0.842019 0.458140 0.157914
H15   H     H_    0.241772 0.219577 0.482433 0.165929
H16   H     H_    0.316273 0.912674 0.497672 0.146812
H17   H     H_    0.185067 0.036071 0.475728 0.163253
H18   H     H_    0.615536 0.228378 0.613418 0.178380
C37   C     C_R   0.135308 0.652310 0.615924 0.235206
H19   H     H_    0.933821 0.679509 0.635447 0.202456
N1    N     N_R   0.239390 0.551900 0.544730 -0.138854
C38   C     C_R   0.762719 0.379071 0.395004 0.211140
C39   C     C_R   0.854518 0.381928 0.354695 -0.291365
C40   C     C_R   0.946425 0.444384 0.382802 0.271855
C41   C     C_R   0.950306 0.495444 0.459131 -0.064390
C42   C     C_R   0.851613 0.504740 0.488782 0.173987
C43   C     C_R   0.047160 0.537613 0.507054 -0.014857
C44   C     C_R   0.041402 0.606444 0.570165 0.025091
C45   C     C_R   0.941451 0.626367 0.588527 -0.211424
C46   C     C_R   0.848843 0.572009 0.551793 -0.203310
C47   C     C_R   0.148804 0.508547 0.498590 -0.038954
C48   C     C_R   0.234916 0.623643 0.603494 0.151923
N2    N     N_R   0.759950 0.448600 0.455730 -0.152153
H20   H     H_    0.157630 0.449759 0.457406 0.169389
H21   H     H_    0.854805 0.338822 0.299130 0.210196
H22   H     H_    0.776363 0.583451 0.574663 0.205397
C49   C     C_3   0.333820 0.672999 0.659149 -0.341071
C50   C     C_3   0.341639 0.632416 0.756014 -0.795689
H23   H     H_    0.310150 0.550316 0.762759 0.246625
H24   H     H_    0.426784 0.640823 0.788089 0.242256
H25   H     H_    0.295680 0.676646 0.791574 0.298902
H26   H     H_    0.409075 0.663433 0.638047 0.258280
H27   H     H_    0.332401 0.757658 0.653135 0.213671
N3    N     N_R   0.129974 0.728597 0.674710 0.191600
O9    O     O_R   0.096380 0.701867 0.749693 -0.413376
O10   O     O_R   0.147535 0.825452 0.649093 -0.412179
C51   C     C_3   0.668944 0.298343 0.372379 -0.330801
C52   C     C_3   0.680530 0.225145 0.304451 -0.948767
H28   H     H_    0.686788 0.267889 0.239551 0.266336
H29   H     H_    0.751648 0.181608 0.326653 0.276365
H30   H     H_    0.608057 0.168889 0.296581 0.271375
H31   H     H_    0.659332 0.248691 0.433272 0.239155
H32   H     H_    0.594824 0.335023 0.347245 0.253544
N4    N     N_R   0.027830 0.465240 0.326857 0.181035
O11   O     O_R   0.069273 0.559178 0.311312 -0.411257
O12   O     O_R   0.046402 0.394844 0.279605 -0.453838

loop_
_geom_bond_atom_site_label_1
_geom_bond_atom_site_label_2
_geom_bond_distance
_ccdc_geom_bond_type
C5    C8    1.397066 A    
C32   C33   1.387934 A    
C51   C52   1.532405 S    
C26   H17   1.082714 S    
C43   C44   1.415272 A    
C9    C10   1.395208 A    
N1    C47   1.351128 A    
C50   H25   1.107476 S    
C42   C46   1.390995 A    
N3    O9    1.301510 A    
C30   C31   1.419819 A    
C6    C21   1.400648 A    
C5    C9    1.393220 A    
C16   C17   1.386303 A    
C13   C19   1.418777 A    
C18   C19   1.419564 A    
C50   H24   1.110869 S    
C19   C22   1.397445 A    
C20   C21   1.391893 A    
O7    C4    1.321347 A    
O5    C3    1.317082 A    
C23   C35   1.393562 A    
C2    C5    1.462225 S    
C48   C49   1.522955 S    
H11   C35   1.081730 S    
C38   C39   1.399778 A    
Zn2   N2    2.063441 S    
C13   C14   1.417201 A    
C33   H18   1.081767 S    
C40   C41   1.410906 A    
C51   H32   1.100921 S    
C38   N2    1.385532 A    
C49   H26   1.079655 S    
C52   H28   1.110138 S    
N1    C48   1.389297 A    
O3    Zn1   1.968220 S    
C40   N4    1.435688 S    
C27   C28   1.418507 A    
C37   N3    1.437504 S    
C49   H27   1.110655 S    
C44   C45   1.398738 A    
C28   C29   1.407113 A    
C50   H23   1.109213 S    
O3    C2    1.319371 A    
C46   H22   1.066049 S    
C41   C43   1.415099 A    
C30   C34   1.389333 A    
C34   H14   1.079190 S    
C52   H30   1.110890 S    
C7    C11   1.404128 A    
C37   C44   1.391633 A    
O1    C1    1.309520 A    
C22   H2    1.073347 S    
Zn1   O7    1.942896 S    
C45   C46   1.375158 A    
C29   C36   1.407357 A    
C24   C34   1.385187 A    
C23   C31   1.403142 A    
N3    O10   1.300812 A    
C49   C50   1.531698 S    
Zn2   O8    1.968220 S    
N4    O12   1.301705 A    
C7    C8    1.394766 A    
C7    H5    1.083762 S    
C14   C15   1.389408 A    
C52   H29   1.111019 S    
C9    H7    1.077575 S    
C25   C26   1.386581 A    
C10   C12   1.416212 A    
C27   H16   1.079056 S    
C21   H3    1.083248 S    
C25   C36   1.404229 A    
C3    C24   1.448712 S    
C47   H20   1.078346 S    
Zn1   O5    1.952301 S    
C11   C15   1.391695 A    
C31   C32   1.392443 A    
C37   C48   1.403563 A    
O1    Zn1   1.972083 S    
O2    Zn2   1.952301 S    
O8    C4    1.311090 A    
O6    C3    1.310599 A    
O4    Zn2   1.942896 S    
C42   N2    1.359704 A    
C17   H4    1.084234 S    
C6    C22   1.391330 A    
C38   C51   1.523058 S    
C18   C20   1.402449 A    
O2    C1    1.320282 A    
C8    H6    1.077017 S    
C41   C42   1.420153 A    
C24   C35   1.400392 A    
C25   H15   1.083467 S    
O4    C2    1.315153 A    
H19   C45   1.081616 S    
N4    O11   1.301719 A    
C14   H8    1.077663 S    
C4    C6    1.458995 S    
C39   C40   1.383689 A    
C23   H13   1.083732 S    
C39   H21   1.079529 S    
Zn1   N1    2.076045 S    
C10   C11   1.416435 A    
H12   C32   1.083834 S    
Zn2   O6    1.972082 S    
C26   C27   1.389569 A    
C12   C16   1.416322 A    
C17   C18   1.390535 A    
C43   C47   1.412503 A    
C12   C13   1.414862 A    
C20   H10   1.083869 S    
C28   C30   1.410460 A    
C51   H31   1.106081 S    
C29   C33   1.413298 A    
C16   H9    1.078569 S    
C15   H1    1.084061 S    
C1    C36   1.456553 S    
