data_mof_unit_46646.cif
_audit_creation_date              2012-12-10T20:43:58-0500
_audit_creation_method            fapswitch 2.2
_symmetry_space_group_name_H-M    P1
_symmetry_Int_Tables_number       1
_space_group_crystal_system       triclinic
_cell_length_a                    17.455759
_cell_length_b                    10.747028
_cell_length_c                    9.90259
_cell_angle_alpha                 88.007114
_cell_angle_beta                  90.468929
_cell_angle_gamma                 91.659845
_cell_volume                      1855.75090292

loop_
_atom_site_label
_atom_site_type_symbol
_atom_type_description
_atom_site_fract_x
_atom_site_fract_y
_atom_site_fract_z
_atom_type_partial_charge
C1    C     C_R   0.500964 0.260037 0.501366 0.925850
C2    C     C_R   0.883627 0.433925 0.501687 -0.001925
C3    C     C_1   0.964219 0.430609 0.506454 -0.000167
C4    C     C_1   0.032167 0.436428 0.507242 0.016516
C5    C     C_R   0.152094 0.469141 0.625089 -0.255064
C6    C     C_R   0.230912 0.486776 0.623513 -0.150734
C7    C     C_R   0.270185 0.489008 0.500339 -0.089009
C8    C     C_R   0.229769 0.474688 0.378733 -0.318088
C9    C     C_R   0.150578 0.452576 0.380353 0.506846
C10   C     C_R   0.112591 0.451190 0.504271 0.051277
C11   C     C_R   0.476280 0.057571 0.612724 -0.017996
C12   C     C_R   0.353339 0.499173 0.499781 0.916450
C13   C     C_R   0.503085 0.127425 0.501151 -0.171456
C14   C     C_R   0.524120 0.067980 0.382500 0.399410
C15   C     C_R   0.502887 0.942883 0.369967 -0.163312
C16   C     C_R   0.489482 0.871539 0.490639 -0.173684
C17   C     C_R   0.474811 0.929533 0.611025 0.012337
C18   C     C_3   0.401066 0.919531 0.688576 -0.272628
C19   C     C_3   0.399578 0.061289 0.679869 0.255135
C20   C     C_R   0.436472 0.460913 0.071759 0.147428
C21   C     C_R   0.559836 0.552480 0.072266 0.446648
C22   C     C_R   0.560401 0.550442 0.927737 -0.146696
C23   C     C_R   0.495613 0.739398 0.497066 0.919895
C24   C     C_R   0.436584 0.460612 0.929562 0.198627
C25   C     C_3   0.400849 0.333333 0.929868 -0.507854
C26   C     C_3   0.399148 0.334834 0.082842 -0.459444
C27   C     C_R   0.646392 0.496898 0.500616 0.864394
C28   C     C_R   0.839534 0.389473 0.611982 0.522113
C29   C     C_R   0.761911 0.415141 0.613253 -0.235495
C30   C     C_R   0.728204 0.477781 0.502351 -0.123059
C31   C     C_R   0.772016 0.513257 0.389196 -0.207386
C32   C     C_R   0.849903 0.493168 0.389720 -0.219236
H1    H     H_    0.411234 0.883541 0.793809 0.117910
H2    H     H_    0.402325 0.104760 0.779623 0.063544
H3    H     H_    0.343104 0.332345 0.882217 0.195177
H4    H     H_    0.441455 0.265373 0.892258 0.216699
H5    H     H_    0.340283 0.337585 0.124266 0.195532
H6    H     H_    0.727751 0.382468 0.698824 0.197621
H7    H     H_    0.436395 0.264422 0.132597 0.262150
H8    H     H_    0.746248 0.557651 0.301428 0.204473
H9    H     H_    0.884082 0.525901 0.304006 0.178808
H10   H     H_    0.121965 0.468576 0.720395 0.169823
H11   H     H_    0.260957 0.497913 0.718662 0.185677
H12   H     H_    0.259436 0.478674 0.283071 0.172159
N1    N     N_R   0.499490 0.499140 0.142800 -0.133889
N2    N     N_R   0.499490 0.499180 0.857150 -0.164426
O1    O     O_R   0.500010 0.316790 0.614690 -0.638631
O2    O     O_R   0.500000 0.316760 0.385350 -0.571563
O3    O     O_R   0.389120 0.500020 0.614710 -0.617796
O4    O     O_R   0.389110 0.499990 0.385370 -0.613570
O5    O     O_R   0.500000 0.683240 0.614650 -0.573317
O6    O     O_R   0.499990 0.683210 0.385310 -0.609255
O7    O     O_R   0.610890 0.500010 0.614630 -0.611146
O8    O     O_R   0.610880 0.499980 0.385290 -0.573420
Zn1   Zn    Zn3+2 0.500010 0.500020 0.653130 0.981574
Zn2   Zn    Zn3+2 0.499990 0.499980 0.346870 1.017897
O9    O     O_3   0.872209 0.329014 0.722990 -0.635958
C33   C     C_3   0.885589 0.203602 0.692752 0.070150
H13   H     H_    0.931596 0.170035 0.761893 0.177487
H14   H     H_    0.907149 0.193046 0.588122 0.122772
C34   C     C_3   0.813380 0.121149 0.716835 -0.373336
H15   H     H_    0.794174 0.129121 0.822861 0.239727
H16   H     H_    0.766577 0.152459 0.648279 0.214817
C35   C     C_3   0.828430 0.984989 0.690522 -0.935364
H17   H     H_    0.848406 0.975202 0.585299 0.264657
H18   H     H_    0.774656 0.928489 0.704348 0.262936
H19   H     H_    0.872411 0.948825 0.762228 0.269411
C36   C     C_2   0.479649 0.898886 0.233498 0.958250
O10   O     O_2   0.424537 0.826953 0.222246 -0.591474
O11   O     O_R   0.515969 0.947209 0.116924 -0.829497
H20   H     H_    0.492620 0.913482 0.031022 0.324255
C37   C     C_2   0.335893 0.849743 0.619660 0.973486
O12   O     O_2   0.297465 0.772712 0.685141 -0.658079
O13   O     O_R   0.319889 0.871882 0.482409 -0.754335
H21   H     H_    0.275599 0.817811 0.449029 0.338178
O14   O     O_3   0.344037 0.109148 0.588406 -0.601207
C38   C     C_3   0.274459 0.126759 0.655928 0.104142
H22   H     H_    0.278020 0.217134 0.706722 0.129137
H23   H     H_    0.261448 0.050738 0.732660 0.142667
C39   C     C_3   0.209367 0.129891 0.551574 -0.283998
H24   H     H_    0.217085 0.213743 0.483923 0.208454
H25   H     H_    0.211421 0.046466 0.488710 0.253107
C40   C     C_3   0.130841 0.131349 0.618077 -0.990817
H26   H     H_    0.120846 0.045255 0.681552 0.276275
H27   H     H_    0.085536 0.136193 0.538834 0.261515
H28   H     H_    0.126497 0.213426 0.681877 0.274412
O15   O     O_3   0.624125 0.593588 0.142743 -0.622209
C41   C     C_3   0.635151 0.724597 0.128127 0.096644
H29   H     H_    0.613710 0.767459 0.220264 0.148372
H30   H     H_    0.603673 0.767083 0.040527 0.152149
C42   C     C_3   0.721342 0.756654 0.116389 -0.357261
H31   H     H_    0.746242 0.768574 0.218955 0.189749
H32   H     H_    0.751296 0.679373 0.069601 0.273560
C43   C     C_3   0.737531 0.875430 0.031218 -0.913763
H33   H     H_    0.715545 0.864794 0.926757 0.281737
H34   H     H_    0.800296 0.894913 0.026890 0.263004
H35   H     H_    0.710050 0.955512 0.075866 0.255245
C44   C     C_2   0.629085 0.599237 0.856567 1.005195
O16   O     O_2   0.690230 0.548492 0.875064 -0.639474
O17   O     O_R   0.625074 0.706461 0.773312 -0.804208
H36   H     H_    0.676026 0.730537 0.729917 0.319730
O18   O     O_3   0.108815 0.442174 0.261430 -0.646120
C45   C     C_3   0.130402 0.336547 0.190609 0.070147
H37   H     H_    0.078832 0.274343 0.180779 0.169088
H38   H     H_    0.175395 0.279583 0.241921 0.115925
C46   C     C_3   0.157511 0.378149 0.049392 -0.312549
H39   H     H_    0.111348 0.429879 0.996056 0.238951
H40   H     H_    0.208603 0.441606 0.057447 0.217823
C47   C     C_3   0.178143 0.267122 0.966747 -1.013006
H41   H     H_    0.224611 0.214087 0.017295 0.275436
H42   H     H_    0.198437 0.301614 0.866300 0.255106
H43   H     H_    0.127173 0.204469 0.952814 0.277347
O19   O     O_3   0.553698 0.136445 0.272684 -0.602358
C48   C     C_3   0.631511 0.107703 0.255175 0.142736
H44   H     H_    0.645513 0.128277 0.147378 0.182032
H45   H     H_    0.643038 0.007200 0.275998 0.120323
C49   C     C_3   0.684207 0.189372 0.341619 -0.388010
H46   H     H_    0.676611 0.288531 0.310825 0.261773
H47   H     H_    0.669060 0.176040 0.449997 0.192883
C50   C     C_3   0.767979 0.157084 0.323632 -0.945293
H48   H     H_    0.776951 0.058228 0.354710 0.262304
H49   H     H_    0.804966 0.216966 0.387464 0.269783
H50   H     H_    0.785142 0.172741 0.216474 0.273713

loop_
_geom_bond_atom_site_label_1
_geom_bond_atom_site_label_2
_ccdc_geom_bond_type
C8    C9    A    
C5    H10   S    
C21   O15   S    
C22   C44   S    
O15   C41   S    
C12   O3    A    
C23   O6    A    
C27   O8    A    
C7    C8    A    
C26   H5    S    
C28   O9    S    
C11   C19   S    
C20   C26   S    
C19   O14   S    
C49   H47   S    
C30   C31   A    
C39   H24   S    
C26   H7    S    
C46   H39   S    
C33   H14   S    
C15   C16   A    
C31   H8    S    
C2    C32   A    
C18   C19   S    
C34   H16   S    
C36   O10   D    
C20   C24   A    
N1    Zn2   S    
C9    O18   S    
C29   H6    S    
C32   H9    S    
O11   H20   S    
C9    C10   A    
C20   N1    A    
C50   H50   S    
C38   H22   S    
C34   H15   S    
C33   C34   S    
C38   H23   S    
C21   C22   A    
C27   C30   S    
O18   C45   S    
C39   C40   S    
C50   H49   S    
C48   H44   S    
C21   N1    A    
O7    Zn1   S    
C18   C37   S    
C7    C12   S    
O8    Zn2   S    
O13   H21   S    
C35   H19   S    
C24   C25   S    
C37   O13   S    
C49   C50   S    
C42   H31   S    
C16   C17   A    
C43   H35   S    
C33   H13   S    
O3    Zn1   S    
O4    Zn2   S    
C35   H18   S    
N2    Zn1   S    
C34   C35   S    
C29   C30   A    
C42   H32   S    
C23   O5    A    
C40   H26   S    
C41   C42   S    
C17   C18   S    
C45   H38   S    
O14   C38   S    
C43   H34   S    
C25   H3    S    
C39   H25   S    
C22   N2    A    
C41   H30   S    
C16   C23   S    
C44   O17   S    
C6    H11   S    
C47   H43   S    
C1    C13   S    
C4    C10   S    
C3    C4    T    
C28   C29   A    
C50   H48   S    
O1    Zn1   S    
O19   C48   S    
C38   C39   S    
O2    Zn2   S    
C11   C17   A    
C40   H27   S    
C31   C32   A    
C1    O1    A    
C8    H12   S    
C37   O12   D    
C19   H2    S    
C48   H45   S    
C27   O7    A    
C1    O2    A    
C6    C7    A    
C14   O19   S    
C24   N2    A    
C35   H17   S    
C47   H42   S    
C2    C3    S    
C25   C26   S    
C5    C10   A    
C49   H46   S    
C42   C43   S    
C11   C13   A    
O9    C33   S    
C5    C6    A    
C46   H40   S    
C15   C36   S    
O17   H36   S    
C45   C46   S    
O5    Zn1   S    
C43   H33   S    
C18   H1    S    
C48   C49   S    
C25   H4    S    
C40   H28   S    
C41   H29   S    
C36   O11   S    
C44   O16   D    
C47   H41   S    
C45   H37   S    
C14   C15   A    
C2    C28   A    
C13   C14   A    
C12   O4    A    
O6    Zn2   S    
C46   C47   S    
