data_mof_unit_26632.cif
_audit_creation_date              2012-12-11T15:29:40-0500
_audit_creation_method            fapswitch 2.2
_symmetry_space_group_name_H-M    P1
_symmetry_Int_Tables_number       1
_space_group_crystal_system       triclinic
_cell_length_a                    21.622944
_cell_length_b                    7.347116
_cell_length_c                    14.782006
_cell_angle_alpha                 89.660077
_cell_angle_beta                  73.432155
_cell_angle_gamma                 89.419066
_cell_volume                      2250.73770871

loop_
_atom_site_label
_atom_site_type_symbol
_atom_type_description
_atom_site_fract_x
_atom_site_fract_y
_atom_site_fract_z
_atom_type_partial_charge
O1    O     O_R   0.464160 0.506670 0.130070 -0.532334
O2    O     O_R   0.535840 0.006670 0.869930 -0.537770
O3    O     O_R   0.589710 0.179080 0.006710 -0.544297
O4    O     O_R   0.410290 0.679080 0.993290 -0.540873
C1    C     C_R   0.615862 0.343666 0.003535 0.669673
C2    C     C_R   0.383566 0.844830 0.999455 0.675181
O5    O     O_R   0.467940 0.177220 0.138010 -0.548105
O6    O     O_R   0.532060 0.677220 0.861990 -0.537830
O7    O     O_R   0.413200 0.002810 0.002170 -0.540299
O8    O     O_R   0.586800 0.502810 0.997830 -0.540329
C3    C     C_R   0.452170 0.345165 0.173785 0.711440
C4    C     C_R   0.548155 0.844621 0.825758 0.713010
O9    O     O_3   0.482180 0.337850 0.955280 -0.380906
O10   O     O_3   0.517820 0.837850 0.044720 -0.386957
V1    V     V_3+5 0.503310 0.064600 0.008300 1.350172
V2    V     V_3+5 0.496690 0.564600 0.991700 1.363492
C5    C     C_R   0.578909 0.851492 0.721749 -0.121847
C6    C     C_R   0.422652 0.356510 0.277028 -0.116005
C7    C     C_R   0.937488 0.867743 0.277846 -0.017538
C8    C     C_R   0.065527 0.365983 0.722541 -0.022190
C9    C     C_R   0.570761 0.842670 0.559366 0.000447
C10   C     C_R   0.433956 0.394389 0.436475 -0.000011
C11   C     C_R   0.542860 0.815694 0.658485 0.249315
C12   C     C_R   0.460373 0.403352 0.335987 0.245751
C13   C     C_R   0.644905 0.886644 0.686754 -0.268758
C14   C     C_R   0.356813 0.328236 0.314686 -0.277488
C15   C     C_R   0.677763 0.870202 0.589302 0.052737
C16   C     C_R   0.325525 0.356582 0.411449 0.056174
C17   C     C_R   0.640094 0.845229 0.523947 -0.035332
C18   C     C_R   0.364477 0.389724 0.474239 -0.029979
C19   C     C_R   0.747339 0.874997 0.554524 0.038718
C20   C     C_R   0.256213 0.353460 0.447247 0.016886
C21   C     C_R   0.777184 0.844465 0.457635 -0.000182
C22   C     C_R   0.227117 0.372229 0.545202 0.001659
C23   C     C_R   0.740107 0.786133 0.401875 -0.226788
C24   C     C_R   0.265010 0.422841 0.602193 -0.210838
C25   C     C_R   0.674324 0.805320 0.427588 0.256233
C26   C     C_R   0.331532 0.427534 0.571047 0.245194
C27   C     C_R   0.788849 0.899797 0.612155 -0.249922
C28   C     C_R   0.214448 0.344133 0.388778 -0.212367
C29   C     C_R   0.856667 0.898385 0.574087 0.259252
C30   C     C_R   0.146984 0.353627 0.426101 0.261506
C31   C     C_R   0.884829 0.883855 0.475853 0.104172
C32   C     C_R   0.118819 0.361888 0.524787 0.067788
C33   C     C_R   0.844326 0.863175 0.417198 0.047136
C34   C     C_R   0.159484 0.359591 0.584452 0.061492
C35   C     C_R   0.952340 0.891011 0.434173 -0.156250
C36   C     C_R   0.051424 0.379738 0.565909 -0.157822
C37   C     C_R   0.978437 0.881615 0.335676 -0.208279
C38   C     C_R   0.025415 0.388170 0.664096 -0.170111
C39   C     C_R   0.871553 0.867203 0.318319 -0.206810
C40   C     C_R   0.131447 0.348229 0.682935 -0.213031
H1    H     H_    0.842188 0.878309 0.270301 0.093130
H2    H     H_    0.160208 0.327527 0.731031 0.097596
H3    H     H_    0.030157 0.889560 0.304635 0.113870
H4    H     H_    0.974079 0.409383 0.694460 0.094182
H5    H     H_    0.670136 0.913076 0.738447 0.110473
H6    H     H_    0.330922 0.288975 0.265572 0.110323
H7    H     H_    0.762082 0.725364 0.334254 0.157357
H8    H     H_    0.242859 0.475598 0.671921 0.137921
H9    H     H_    0.770389 0.918930 0.687125 0.121383
H10   H     H_    0.232449 0.338896 0.312945 0.138673
H11   H     H_    0.985023 0.905540 0.477142 0.155347
H12   H     H_    0.018504 0.392126 0.523175 0.125592
C41   C     C_3   0.216781 0.668650 0.976161 -0.407835
C42   C     C_3   0.784125 0.166208 0.025730 -0.398016
H13   H     H_    0.190405 0.570825 0.030311 0.141459
H14   H     H_    0.811767 0.072004 0.970654 0.147327
H15   H     H_    0.210867 0.619074 0.908276 0.159832
H16   H     H_    0.790581 0.112812 0.092964 0.163158
C43   C     C_3   0.289141 0.665888 0.973115 -0.335348
C44   C     C_3   0.711648 0.161177 0.028840 -0.349007
H17   H     H_    0.318767 0.628251 0.901533 0.141840
H18   H     H_    0.682482 0.119138 0.100556 0.143432
H19   H     H_    0.296739 0.557025 0.021633 0.149558
H20   H     H_    0.705098 0.056254 0.978476 0.151625
H21   H     H_    0.172488 0.784267 0.146630 0.072078
H22   H     H_    0.826478 0.297171 0.857205 0.060950
H23   H     H_    0.274755 0.793045 0.152521 0.112493
H24   H     H_    0.724403 0.308756 0.851746 0.105298
C45   C     C_3   0.195131 0.902312 0.102094 0.141748
C46   C     C_3   0.802940 0.411114 0.904373 0.153707
C47   C     C_3   0.230140 0.993958 0.923349 0.187363
C48   C     C_3   0.768169 0.488069 0.083294 0.187403
C49   C     C_3   0.187244 0.862391 0.000695 0.073024
C50   C     C_3   0.811743 0.362152 0.003782 0.063782
H25   H     H_    0.209589 0.133472 0.931637 0.111300
H26   H     H_    0.786910 0.629074 0.073298 0.115236
C51   C     C_3   0.311868 0.853120 0.001731 0.060348
C52   C     C_3   0.686994 0.350167 0.003861 0.049131
C53   C     C_3   0.267778 0.898490 0.101824 -0.366863
C54   C     C_3   0.730273 0.407745 0.905398 -0.334245
C55   C     C_3   0.299350 0.004852 0.935017 -0.361715
C56   C     C_3   0.697091 0.490981 0.076521 -0.371892
H27   H     H_    0.335452 0.999113 0.865482 0.139532
H28   H     H_    0.662641 0.461542 0.146580 0.147653
H29   H     H_    0.306468 0.140688 0.962984 0.124930
H30   H     H_    0.684764 0.630149 0.056764 0.123369
H31   H     H_    0.282490 0.029029 0.126678 0.149647
H32   H     H_    0.712732 0.539978 0.885606 0.155285
O11   O     O_R   0.913210 0.208550 0.002110 -0.546882
O12   O     O_R   0.086790 0.708550 0.997890 -0.547917
O13   O     O_R   0.032060 0.539960 0.861980 -0.534241
O14   O     O_R   0.967940 0.039960 0.138020 -0.532896
C57   C     C_R   0.040640 0.372650 0.825404 0.672311
C58   C     C_R   0.961133 0.872337 0.174579 0.683874
O15   O     O_R   0.910290 0.538020 0.993280 -0.523239
O16   O     O_R   0.089710 0.038020 0.006720 -0.536713
O17   O     O_R   0.964160 0.712340 0.130090 -0.543374
O18   O     O_R   0.035840 0.212340 0.869910 -0.543778
C59   C     C_R   0.883908 0.370162 0.999286 0.673551
C60   C     C_R   0.115667 0.869353 0.002501 0.674111
O19   O     O_3   0.017820 0.379210 0.044690 -0.382014
O20   O     O_3   0.982180 0.879210 0.955310 -0.374872
V3    V     V_3+5 0.996690 0.652500 0.991710 1.400668
V4    V     V_3+5 0.003310 0.152500 0.008290 1.391193
N1    N     N_2   0.645411 0.768091 0.354493 -0.529599
H33   H     H_    0.648595 0.631574 0.337876 0.267928
C61   C     C_3   0.670651 0.875790 0.268495 -0.605285
H34   H     H_    0.635198 0.884186 0.227503 0.190081
H35   H     H_    0.715227 0.812590 0.222037 0.203809
H36   H     H_    0.681618 0.017150 0.285035 0.194841
N2    N     N_2   0.362456 0.495847 0.636780 -0.517797
H37   H     H_    0.354647 0.634033 0.645315 0.254595
C62   C     C_3   0.346209 0.405147 0.728468 -0.579228
H38   H     H_    0.385993 0.422317 0.761100 0.208513
H39   H     H_    0.338477 0.257011 0.722181 0.211826
H40   H     H_    0.301584 0.464737 0.776448 0.169749
N3    N     N_2   0.235465 0.936476 0.826673 -0.547086
H41   H     H_    0.265622 0.827752 0.800249 0.263126
C63   C     C_3   0.179467 0.949595 0.792104 -0.548760
H42   H     H_    0.195394 0.965588 0.714179 0.204832
H43   H     H_    0.149388 0.068845 0.822879 0.211000
H44   H     H_    0.150538 0.823580 0.809576 0.193288
N4    N     N_2   0.767111 0.429171 0.178611 -0.548799
H45   H     H_    0.740507 0.315142 0.205093 0.263148
C64   C     C_3   0.824336 0.450103 0.209502 -0.556073
H46   H     H_    0.810867 0.444369 0.287704 0.195804
H47   H     H_    0.847351 0.582780 0.185779 0.207195
H48   H     H_    0.858761 0.336536 0.183022 0.201983
N5    N     N_2   0.159926 0.061008 0.150800 -0.514640
H49   H     H_    0.152124 0.054244 0.222963 0.263943
C65   C     C_3   0.176203 0.242553 0.113597 -0.519655
H50   H     H_    0.157643 0.343887 0.170149 0.209502
H51   H     H_    0.152228 0.273589 0.058551 0.209367
H52   H     H_    0.228872 0.262063 0.086463 0.164884
N6    N     N_2   0.837733 0.574664 0.862489 -0.507692
H53   H     H_    0.869330 0.555895 0.796189 0.238626
C66   C     C_3   0.807000 0.752005 0.874930 -0.557803
H54   H     H_    0.845003 0.857149 0.860328 0.199333
H55   H     H_    0.775118 0.770462 0.947291 0.188398
H56   H     H_    0.778619 0.771584 0.823903 0.174384
N7    N     N_2   0.896368 0.911066 0.635425 -0.525663
H57   H     H_    0.884526 0.817913 0.689742 0.263001
C67   C     C_3   0.901680 0.093188 0.668298 -0.581158
H58   H     H_    0.853623 0.145191 0.709768 0.182915
H59   H     H_    0.921804 0.185187 0.607336 0.211615
H60   H     H_    0.934333 0.091510 0.714211 0.205125
N8    N     N_2   0.108657 0.354962 0.362269 -0.531258
H61   H     H_    0.068620 0.272812 0.381548 0.257269
C68   C     C_3   0.095151 0.535200 0.332494 -0.586188
H62   H     H_    0.067111 0.524701 0.280436 0.205167
H63   H     H_    0.140907 0.607160 0.298565 0.195886
H64   H     H_    0.066541 0.615386 0.393948 0.204038
C69   C     C_R   0.527966 0.881983 0.496115 0.126429
C70   C     C_R   0.466947 0.802503 0.509831 -0.155172
C71   C     C_R   0.427141 0.845512 0.453206 -0.152786
C72   C     C_R   0.449993 0.957116 0.375380 -0.113123
C73   C     C_R   0.511475 0.029938 0.357248 -0.146739
C74   C     C_R   0.547123 0.008082 0.421857 -0.048622
H65   H     H_    0.450908 0.698555 0.560294 0.202936
H66   H     H_    0.380349 0.782880 0.466128 0.127458
H67   H     H_    0.421807 0.978134 0.326339 0.129656
H68   H     H_    0.532571 0.095982 0.291123 0.112743
H69   H     H_    0.591407 0.082982 0.410926 0.137625
C75   C     C_R   0.478504 0.364947 0.498785 0.140587
C76   C     C_R   0.460915 0.246986 0.577067 -0.034209
C77   C     C_R   0.498505 0.232203 0.639961 -0.137427
C78   C     C_R   0.559400 0.308838 0.617902 -0.098175
C79   C     C_R   0.581195 0.409259 0.535516 -0.150323
C80   C     C_R   0.540304 0.442793 0.479061 -0.142560
H70   H     H_    0.417075 0.169578 0.590449 0.117699
H71   H     H_    0.481306 0.159492 0.705419 0.123896
H72   H     H_    0.589452 0.290868 0.664693 0.124593
H73   H     H_    0.628812 0.467826 0.517556 0.125743
H74   H     H_    0.556330 0.537847 0.423458 0.177849
N9    N     N_2   0.482787 0.725614 0.693628 -0.520798
H75   H     H_    0.485912 0.606780 0.729474 0.282328
C81   C     C_3   0.427930 0.836641 0.741116 -0.621569
H76   H     H_    0.413934 0.927878 0.690565 0.200264
H77   H     H_    0.437889 0.916060 0.798560 0.189024
H78   H     H_    0.386296 0.748658 0.772400 0.196107
N10   N     N_2   0.525674 0.452960 0.292301 -0.566022
H79   H     H_    0.552021 0.362146 0.243261 0.229197
C82   C     C_3   0.533047 0.635118 0.253799 -0.513978
H80   H     H_    0.567746 0.637970 0.182212 0.190868
H81   H     H_    0.551138 0.718899 0.300448 0.241868
H82   H     H_    0.486830 0.696387 0.249692 0.216750

loop_
_geom_bond_atom_site_label_1
_geom_bond_atom_site_label_2
_ccdc_geom_bond_type
C65   H52   S    
C47   H25   S    
C57   O18   A    
C3    C6    S    
O4    V2    S    
C69   C70   A    
C65   H51   S    
O18   V4    S    
C15   C17   A    
C21   C33   A    
C73   C74   A    
C42   H14   S    
C30   N8    S    
O1    C3    A    
C44   H20   S    
C63   H44   S    
O2    C4    A    
C2    O7    A    
O14   C58   A    
O20   V3    S    
C28   H10   S    
N2    H37   S    
C48   N4    S    
C63   H43   S    
O5    C3    A    
C64   H47   S    
C5    C11   A    
C13   H5    S    
C33   C39   A    
C6    C12   A    
C23   C25   A    
C48   C50   S    
C47   N3    S    
C66   H55   S    
C35   H11   S    
N2    C62   S    
C67   H59   S    
C56   H30   S    
C65   H50   S    
C47   C55   S    
C34   C40   A    
C46   C54   S    
C18   C26   A    
C23   H7    S    
C81   H77   S    
H22   C46   S    
C8    C38   A    
O12   V3    S    
O14   V4    S    
O12   C60   A    
C42   C44   S    
N6    H53   S    
C32   C34   A    
C41   H13   S    
C6    C14   A    
C4    C5    S    
C62   H40   S    
C73   H68   S    
C19   C21   A    
C22   C34   A    
H21   C45   S    
C51   C53   S    
H23   C53   S    
C1    C52   S    
O19   V4    S    
C49   C60   S    
C36   C38   A    
C70   H65   S    
C55   H27   S    
C67   H60   S    
C29   C31   A    
C75   C80   A    
N5    H49   S    
C30   C32   A    
C68   H63   S    
C40   H2    S    
C52   C56   S    
C29   N7    S    
C74   H69   S    
C61   H35   S    
C46   N6    S    
C72   H67   S    
C27   H9    S    
C64   H48   S    
C43   H19   S    
C15   C19   A    
C77   C78   A    
N4    H45   S    
C35   C37   A    
C66   H56   S    
C71   C72   A    
C43   H17   S    
N3    H41   S    
N10   C82   S    
C46   C50   S    
C9    C17   A    
C38   H4    S    
O16   C60   A    
C39   H1    S    
N5    C65   S    
C20   C22   A    
H24   C54   S    
C81   H78   S    
O13   V3    S    
C82   H81   S    
C44   C52   S    
C7    C37   A    
C52   C54   S    
N8    H61   S    
C43   C51   S    
C16   C20   A    
O6    C4    A    
C45   N5    S    
N8    C68   S    
O13   C57   A    
O1    V2    S    
C48   C56   S    
C61   H34   S    
C56   H28   S    
O2    V1    S    
C14   H6    S    
O15   V3    S    
C44   H18   S    
C72   C73   A    
C47   C49   S    
C76   C77   A    
C9    C11   A    
C62   H38   S    
C10   C12   A    
O4    C2    A    
N7    C67   S    
C63   H42   S    
C55   H29   S    
C68   H64   S    
O3    V1    S    
C79   C80   A    
C54   H32   S    
C8    C57   S    
C78   H72   S    
C61   H36   S    
C69   C74   A    
N4    C64   S    
C75   C76   A    
C10   C18   A    
N6    C66   S    
O15   C59   A    
C27   C29   A    
C77   H71   S    
C28   C30   A    
O3    C1    A    
C42   C50   S    
C10   C75   S    
C80   H74   S    
C41   C49   S    
C71   H66   S    
C78   C79   A    
C13   C15   A    
C2    C51   S    
C26   N2    S    
C64   H46   S    
C42   H16   S    
C14   C16   A    
C5    C13   A    
C82   H82   S    
N1    C61   S    
C50   C59   S    
O7    V1    S    
C16   C18   A    
C8    C40   A    
C32   C36   A    
C37   H3    S    
N1    H33   S    
C24   C26   A    
C11   N9    S    
O16   V4    S    
C70   C71   A    
C48   H26   S    
C68   H62   S    
C12   N10   S    
C41   H15   S    
O11   C59   A    
O5    V1    S    
C21   C23   A    
C19   C27   A    
C22   C24   A    
C41   C43   S    
C20   C28   A    
C51   C55   S    
C81   H76   S    
N9    C81   S    
C36   H12   S    
C79   H73   S    
O17   V3    S    
C9    C69   S    
C82   H80   S    
C45   C53   S    
C7    C58   S    
C7    C39   A    
C1    O8    A    
C25   N1    S    
N9    H75   S    
O6    V2    S    
N10   H79   S    
O9    V2    S    
C17   C25   A    
C67   H58   S    
C62   H39   S    
O11   V4    S    
C24   H8    S    
O10   V1    S    
O8    V2    S    
C53   H31   S    
N7    H57   S    
C66   H54   S    
C31   C35   A    
C31   C33   A    
C45   C49   S    
C76   H70   S    
N3    C63   S    
C58   O17   A    
