data_mof_unit_50429.cif
_audit_creation_date              2012-12-11T17:07:31-0500
_audit_creation_method            fapswitch 2.2
_symmetry_space_group_name_H-M    P1
_symmetry_Int_Tables_number       1
_space_group_crystal_system       triclinic
_cell_length_a                    6.963664
_cell_length_b                    14.775928
_cell_length_c                    15.893078
_cell_angle_alpha                 90.091795
_cell_angle_beta                  89.789332
_cell_angle_gamma                 90.150669
_cell_volume                      1635.29308811

loop_
_atom_site_label
_atom_site_type_symbol
_atom_type_description
_atom_site_fract_x
_atom_site_fract_y
_atom_site_fract_z
_atom_type_partial_charge
O1    O     O_R   0.505720 0.583900 0.413310 -0.541998
O2    O     O_R   0.175940 0.594920 0.586080 -0.550360
O3    O     O_R   0.005640 0.416100 0.586690 -0.553890
C1    C     C_R   0.345011 0.619274 0.612770 0.713819
O4    O     O_R   0.176000 0.594930 0.413930 -0.533075
O5    O     O_R   0.005700 0.416110 0.413310 -0.517561
C2    C     C_R   0.345232 0.616522 0.385003 0.760222
O6    O     O_R   0.505660 0.583890 0.586690 -0.510059
O7    O     O_3   0.339200 0.441330 0.500000 -0.373218
V1    V     V_3+5 0.064350 0.510880 0.500000 1.507036
O8    O     O_R   0.675980 0.405080 0.413920 -0.552502
C3    C     C_R   0.845257 0.382981 0.385296 0.668544
O9    O     O_R   0.675920 0.405070 0.586070 -0.525819
C4    C     C_R   0.844466 0.384184 0.615752 0.740607
V2    V     V_3+5 0.564340 0.489120 0.500000 1.516085
O10   O     O_3   0.839360 0.558670 0.500000 -0.352899
H1    H     H_    0.597395 0.093935 0.517422 0.116559
C5    C     C_R   0.972818 0.433455 0.791651 0.019288
C6    C     C_R   0.062437 0.452357 0.868339 -0.260182
C7    C     C_R   0.082940 0.385784 0.929018 0.047315
C8    C     C_R   0.019318 0.298310 0.911510 -0.133813
C9    C     C_R   0.943063 0.274589 0.831870 0.013001
C10   C     C_R   0.922933 0.342722 0.768760 0.056360
C11   C     C_R   0.879133 0.184959 0.816653 -0.163963
C12   C     C_R   0.799368 0.162099 0.737481 0.079427
C13   C     C_R   0.790233 0.227666 0.672130 0.057964
C14   C     C_R   0.852123 0.317970 0.686910 -0.171633
C15   C     C_R   0.731509 0.073488 0.721195 -0.152264
C16   C     C_R   0.656613 0.050054 0.643105 -0.114473
C17   C     C_R   0.652747 0.112984 0.578530 -0.108868
C18   C     C_R   0.720117 0.200486 0.592222 -0.145518
H2    H     H_    0.101713 0.521551 0.883839 0.104705
H3    H     H_    0.028651 0.249481 0.961754 0.148570
H4    H     H_    0.735565 0.021238 0.768434 0.100846
H5    H     H_    0.602544 0.982544 0.632517 0.106240
H6    H     H_    0.716119 0.245997 0.539114 0.096821
C19   C     C_R   0.733626 0.251106 0.185606 0.087219
C20   C     C_R   0.883038 0.188131 0.180783 -0.071985
C21   C     C_R   0.032959 0.197609 0.239619 -0.118996
H7    H     H_    0.155074 0.152866 0.237239 0.160711
C22   C     C_R   0.020421 0.260841 0.306016 -0.112340
H8    H     H_    0.132875 0.262519 0.352766 0.121500
C23   C     C_R   0.858969 0.317481 0.314805 -0.083153
C24   C     C_R   0.722666 0.314531 0.250308 0.020146
C25   C     C_3   0.509190 0.308797 0.253780 -0.188717
C26   C     C_3   0.521353 0.238779 0.183046 -0.449740
H9    H     H_    0.456197 0.280986 0.314533 0.143252
H10   H     H_    0.460447 0.260796 0.121903 0.206745
H11   H     H_    0.478525 0.169597 0.203065 0.177112
C27   C     C_R   0.523192 0.701102 0.726122 0.151987
C28   C     C_R   0.354998 0.688832 0.680176 -0.148635
C29   C     C_R   0.202791 0.748089 0.697407 -0.222452
H12   H     H_    0.081957 0.749433 0.655879 0.182993
C30   C     C_R   0.213493 0.811333 0.763686 -0.189286
H13   H     H_    0.097263 0.858725 0.772612 0.139811
C31   C     C_R   0.378334 0.817684 0.814388 -0.101888
C32   C     C_R   0.533737 0.761988 0.793767 0.082918
C33   C     C_3   0.728086 0.793643 0.767716 -0.514266
C34   C     C_3   0.711617 0.732317 0.691762 -0.157633
H14   H     H_    0.836999 0.770539 0.813753 0.183255
H15   H     H_    0.733437 0.866906 0.752784 0.159909
H16   H     H_    0.818235 0.677890 0.690110 0.173753
C35   C     C_R   0.490050 0.678925 0.251323 0.124247
C36   C     C_R   0.353182 0.683631 0.315912 -0.121937
C37   C     C_R   0.216119 0.753220 0.311410 -0.265508
H17   H     H_    0.107105 0.757836 0.360121 0.140776
C38   C     C_R   0.229934 0.822703 0.250456 0.001299
C39   C     C_R   0.375389 0.818697 0.186752 -0.123655
C40   C     C_R   0.498781 0.743827 0.187898 0.015848
C41   C     C_3   0.713100 0.741134 0.184767 -0.391773
C42   C     C_3   0.704025 0.671145 0.255106 -0.048846
H18   H     H_    0.778460 0.806243 0.204544 0.151899
H19   H     H_    0.766810 0.714896 0.123442 0.175688
H20   H     H_    0.764433 0.695785 0.315703 0.159385
O11   O     O_R   0.229140 0.916090 0.913340 -0.545953
O12   O     O_R   0.558860 0.905090 0.086080 -0.547820
O13   O     O_R   0.729100 0.083920 0.086690 -0.543443
C43   C     C_R   0.389614 0.885620 0.116958 0.761876
O14   O     O_R   0.558860 0.905090 0.913930 -0.542934
O15   O     O_R   0.729100 0.083920 0.913310 -0.538237
C44   C     C_R   0.390126 0.884729 0.883822 0.688501
O16   O     O_R   0.229140 0.916080 0.086720 -0.520138
O17   O     O_3   0.395570 0.058660 0.000020 -0.368042
V3    V     V_3+5 0.670450 0.989140 0.000000 1.422883
O18   O     O_R   0.058810 0.094980 0.913910 -0.544090
C45   C     C_R   0.890165 0.115718 0.884550 0.677486
O19   O     O_R   0.058810 0.094980 0.086060 -0.523640
C46   C     C_R   0.890021 0.117364 0.114524 0.737752
V4    V     V_3+5 0.170450 0.010950 0.999970 1.468388
O20   O     O_3   0.895460 0.941370 0.999990 -0.375924
C47   C     C_2   0.418138 0.396386 0.227712 0.462344
H21   H     H_    0.459992 0.428778 0.169172 0.054161
O21   O     O_2   0.297351 0.432098 0.272383 -0.537520
C48   C     C_2   0.907065 0.513476 0.746283 0.325500
H22   H     H_    0.006678 0.568536 0.734969 0.039033
O22   O     O_2   0.737826 0.521192 0.728179 -0.544094
C49   C     C_2   0.694193 0.782276 0.609371 0.361572
H23   H     H_    0.583054 0.832614 0.601020 0.051866
O23   O     O_2   0.801251 0.764597 0.550689 -0.541145
C50   C     C_2   0.103404 0.902144 0.263212 0.335658
H24   H     H_    0.970784 0.894812 0.298672 0.043765
O24   O     O_2   0.150800 0.977488 0.239732 -0.554104
C51   C     C_3   0.776948 0.577650 0.229087 -0.696983
H25   H     H_    0.713768 0.555666 0.168249 0.195788
H26   H     H_    0.935784 0.579476 0.222805 0.225838
H27   H     H_    0.737945 0.527620 0.278131 0.202863
C52   C     C_2   0.159187 0.410167 0.012836 0.329000
H28   H     H_    0.216603 0.477493 0.023999 0.046737
O25   O     O_2   0.156084 0.356005 0.070753 -0.547896

loop_
_geom_bond_atom_site_label_1
_geom_bond_atom_site_label_2
_ccdc_geom_bond_type
O19   C46   A    
C22   C23   A    
C22   H8    S    
C6    C7    A    
O15   V3    S    
O12   V3    S    
C49   H23   S    
C31   C44   S    
C21   C22   A    
O18   C45   A    
C29   H12   S    
C12   C15   A    
C26   H11   S    
C13   C14   A    
C16   C17   A    
O16   V4    S    
C27   C34   S    
C15   C16   A    
O12   C43   A    
C3    C23   S    
O5    C3    A    
C17   C18   A    
C8    H3    S    
C33   H14   S    
V2    O10   S    
C31   C32   A    
C5    C6    A    
O15   C45   A    
O8    V2    S    
C35   C40   A    
O13   C46   A    
C39   C40   A    
C37   C38   A    
C52   H28   S    
C41   C42   S    
O1    V2    S    
C10   C14   A    
C4    C14   S    
O7    V1    S    
C1    O6    A    
C7    C52   S    
C33   H15   S    
C15   H4    S    
C13   C18   A    
O9    C4    A    
H1    C17   S    
C52   O25   D    
C48   H22   S    
V3    O20   S    
C6    H2    S    
C49   O23   D    
C29   C30   A    
C30   C31   A    
C25   H9    S    
C39   C43   S    
C20   C21   A    
O17   V4    S    
C26   H10   S    
C1    C28   S    
C5    C10   A    
C11   C12   A    
V4    O20   S    
C47   H21   S    
O4    C2    A    
O18   V4    S    
O11   C44   A    
O13   V3    S    
C12   C13   A    
C25   C26   S    
C38   C39   A    
C20   C46   S    
O2    C1    A    
C23   C24   A    
C19   C20   A    
C47   O21   D    
C43   O16   A    
O17   V3    S    
C41   H19   S    
C50   O24   D    
C27   C28   A    
C51   H26   S    
C48   O22   D    
O3    C4    A    
C38   C50   S    
C35   C42   S    
O6    V2    S    
O19   V4    S    
C5    C48   S    
C9    C11   A    
O2    V1    S    
C21   H7    S    
C24   C25   S    
O14   C44   A    
C42   C51   S    
C30   H13   S    
C34   H16   S    
O1    C2    A    
C27   C32   A    
C9    C10   A    
O5    V1    S    
C42   H20   S    
O8    C3    A    
C16   H5    S    
C36   C37   A    
C19   C24   A    
O9    V2    S    
C33   C34   S    
C28   C29   A    
O3    V1    S    
V1    O10   S    
C32   C33   S    
O14   V3    S    
C34   C49   S    
C50   H24   S    
C51   H27   S    
O7    V2    S    
C40   C41   S    
C25   C47   S    
C2    C36   S    
O11   V4    S    
C35   C36   A    
O4    V1    S    
C7    C8    A    
C37   H17   S    
C51   H25   S    
C18   H6    S    
C41   H18   S    
C19   C26   S    
C8    C9    A    
C11   C45   S    
