data_mof_unit_12376.cif
_audit_creation_date              2012-10-26T18:34:22-0400
_audit_creation_method            fapswitch 2.2
_symmetry_space_group_name_H-M    P1
_symmetry_Int_Tables_number       1
_space_group_crystal_system       triclinic
_cell_length_a                    10.827335
_cell_length_b                    9.808872
_cell_length_c                    8.980817
_cell_angle_alpha                 90.001589
_cell_angle_beta                  94.176106
_cell_angle_gamma                 89.999804
_cell_volume                      951.265779324

loop_
_atom_site_label
_atom_site_type_symbol
_atom_type_description
_atom_site_fract_x
_atom_site_fract_y
_atom_site_fract_z
_atom_type_partial_charge
C1    C     C_R   0.262984 0.499920 0.501051 0.532988
C2    C     C_R   0.063866 0.622953 0.502638 -0.142069
C3    C     C_R   0.871256 0.499519 0.497522 0.017541
C4    C     C_R   0.128740 0.499522 0.502392 0.017537
C5    C     C_R   0.442479 0.072048 0.383268 0.118199
C6    C     C_R   0.574447 0.927158 0.602574 0.118220
C7    C     C_R   0.557533 0.072046 0.616715 0.118201
C8    C     C_R   0.425592 0.927147 0.397373 0.118219
C9    C     C_3   0.402294 0.133044 0.230307 -0.208663
C10   C     C_3   0.278191 0.209771 0.223370 -0.379403
C11   C     C_3   0.688434 0.866376 0.689976 -0.223927
C12   C     C_R   0.737015 0.499919 0.498924 0.532979
C13   C     C_3   0.667565 0.803354 0.842480 -0.395713
C14   C     C_3   0.597702 0.133006 0.769702 -0.208732
C15   C     C_3   0.721785 0.209777 0.776678 -0.379419
C16   C     C_3   0.311733 0.866298 0.309751 -0.223976
C17   C     C_3   0.332797 0.803490 0.157190 -0.395834
C18   C     C_R   0.500488 0.499961 0.221744 0.539780
C19   C     C_R   0.499517 0.499963 0.778257 0.539774
C20   C     C_1   0.500250 0.499772 0.065956 -0.090104
C21   C     C_1   0.499764 0.499776 0.934044 -0.090093
C22   C     C_R   0.064019 0.375742 0.501628 -0.145501
C23   C     C_R   0.936114 0.622948 0.497008 -0.142066
C24   C     C_R   0.935991 0.375740 0.498482 -0.145494
Cu1   Cu    Cu3+1 0.500000 0.640660 0.500000 0.915052
Cu2   Cu    Cu3+1 0.500000 0.359340 0.500000 0.912024
H1    H     H_    0.111763 0.278834 0.504123 0.121443
H2    H     H_    0.569692 0.813025 0.870400 0.162993
H3    H     H_    0.696715 0.694880 0.844849 0.156436
H4    H     H_    0.726181 0.855631 0.931814 0.107756
H5    H     H_    0.741290 0.800102 0.622706 0.168157
H6    H     H_    0.759601 0.946717 0.709735 0.091088
H7    H     H_    0.777150 0.180306 0.682789 0.137186
H8    H     H_    0.709824 0.321557 0.776255 0.178283
H9    H     H_    0.776938 0.184372 0.882232 0.102189
H10   H     H_    0.521302 0.184480 0.821286 0.161448
H11   H     H_    0.609145 0.052131 0.854575 0.091486
H12   H     H_    0.889160 0.720014 0.491682 0.111204
H13   H     H_    0.430731 0.813150 0.129500 0.163024
H14   H     H_    0.303590 0.695034 0.154557 0.156353
H15   H     H_    0.274316 0.855910 0.067843 0.107800
H16   H     H_    0.258900 0.799831 0.376807 0.168291
H17   H     H_    0.240485 0.946563 0.290046 0.091073
H18   H     H_    0.888259 0.278829 0.496149 0.121418
H19   H     H_    0.110809 0.720028 0.507742 0.111200
H20   H     H_    0.222855 0.180279 0.317280 0.137237
H21   H     H_    0.290133 0.321555 0.223783 0.178279
H22   H     H_    0.223021 0.184344 0.117832 0.102171
H23   H     H_    0.478685 0.184522 0.178719 0.161442
H24   H     H_    0.390881 0.052224 0.145383 0.091472
N1    N     N_R   0.500000 0.852070 0.500000 -0.228738
N2    N     N_R   0.500000 0.147930 0.500000 -0.224485
O1    O     O_R   0.319640 0.618740 0.499990 -0.517047
O2    O     O_R   0.680360 0.381260 0.500010 -0.503869
O3    O     O_R   0.680360 0.618740 0.500010 -0.517013
O4    O     O_R   0.319640 0.381260 0.499990 -0.503870
O5    O     O_R   0.500000 0.618760 0.288390 -0.489560
O6    O     O_R   0.500000 0.381240 0.711610 -0.507396
O7    O     O_R   0.500000 0.618760 0.711610 -0.489559
O8    O     O_R   0.500000 0.381240 0.288390 -0.507412

loop_
_geom_bond_atom_site_label_1
_geom_bond_atom_site_label_2
_ccdc_geom_bond_type
C10   H20   S    
C5    C8    A    
C2    C4    A    
Cu1   N1    S    
C13   H2    S    
C5    C9    S    
C6    C7    A    
Cu2   N2    S    
C6    N1    A    
C23   H12   S    
Cu2   O6    S    
C9    C10   S    
C18   O5    A    
C3    C23   A    
C16   H17   S    
C7    N2    A    
C1    C4    S    
C2    C23   A    
C4    C22   A    
C11   H5    S    
C8    C16   S    
C14   H11   S    
C10   H22   S    
C11   C13   S    
C8    N1    A    
C3    C24   A    
Cu1   O5    S    
Cu2   O2    S    
C22   C24   A    
C13   H3    S    
C19   C21   S    
C1    O4    A    
Cu1   O1    S    
C11   H6    S    
C18   C20   S    
C22   H1    S    
C19   O6    A    
C14   H10   S    
C24   H18   S    
C17   H15   S    
C12   O3    A    
C2    H19   S    
C15   H8    S    
C16   H16   S    
C13   H4    S    
C6    C11   S    
C9    H23   S    
C20   C21   T    
C17   H13   S    
C18   O8    A    
C10   H21   S    
C15   H9    S    
C1    O1    A    
C14   C15   S    
C3    C12   S    
Cu1   O7    S    
C5    N2    A    
C19   O7    A    
Cu1   Cu2   S    
Cu2   O8    S    
C15   H7    S    
C7    C14   S    
C12   O2    A    
C9    H24   S    
Cu1   O3    S    
C16   C17   S    
C17   H14   S    
Cu2   O4    S    
