data_mof_unit_55907.cif
_audit_creation_date              2012-10-26T20:19:31-0400
_audit_creation_method            fapswitch 2.2
_symmetry_space_group_name_H-M    P1
_symmetry_Int_Tables_number       1
_space_group_crystal_system       triclinic
_cell_length_a                    10.92558
_cell_length_b                    10.805192
_cell_length_c                    9.708959
_cell_angle_alpha                 90.349229
_cell_angle_beta                  90.20099
_cell_angle_gamma                 96.239703
_cell_volume                      1139.35039444

loop_
_atom_site_label
_atom_site_type_symbol
_atom_type_description
_atom_site_fract_x
_atom_site_fract_y
_atom_site_fract_z
_atom_type_partial_charge
C1    C     C_R   0.503119 0.261999 0.500883 0.564440
C2    C     C_R   0.504280 0.060187 0.633063 0.025251
C3    C     C_R   0.496884 0.125097 0.506061 0.016901
C4    C     C_R   0.259227 0.482724 0.498765 0.536485
C5    C     C_R   0.458864 0.057688 0.386984 -0.081872
C6    C     C_R   0.436885 0.929173 0.389910 -0.108381
C7    C     C_R   0.452039 0.864568 0.511270 0.004444
C8    C     C_R   0.653696 0.680765 0.140252 0.022280
C9    C     C_R   0.776922 0.704283 0.099298 -0.036284
C10   C     C_R   0.804528 0.672822 0.962229 -0.024902
C11   C     C_R   0.703686 0.638837 0.871337 0.002147
C12   C     C_3   0.873904 0.477538 0.497412 -0.041495
C13   C     C_R   0.592136 0.574525 0.927816 0.087282
C14   C     C_R   0.582067 0.582115 0.074977 0.053857
C15   C     C_R   0.431141 0.412459 0.071244 0.158429
C16   C     C_R   0.481378 0.733968 0.502058 0.560100
C17   C     C_R   0.420386 0.421570 0.925433 0.088272
C18   C     C_R   0.738063 0.491540 0.499666 0.531014
C19   C     C_3   0.061525 0.415483 0.634824 -0.132847
C20   C     C_3   0.921079 0.435738 0.641596 -0.097715
C21   C     C_3   0.082600 0.604786 0.484225 -0.244669
C22   C     C_3   0.052762 0.390547 0.367752 0.154567
C23   C     C_3   0.943489 0.605554 0.462850 -0.274494
C24   C     C_3   0.117960 0.469379 0.495212 -0.037063
C25   C     C_2   0.841384 0.381132 0.249250 0.293887
C26   C     C_2   0.378262 0.296327 0.133908 0.346073
C27   C     C_2   0.092278 0.283504 0.659745 0.308884
C28   C     C_2   0.587849 0.792589 0.155462 0.272936
C29   C     C_2   0.862359 0.787291 0.188457 0.290182
C30   C     C_2   0.932785 0.696912 0.909981 0.288485
C31   C     C_2   0.701177 0.729814 0.759561 0.377033
C32   C     C_2   0.321083 0.341774 0.854922 0.229101
C33   C     C_2   0.838526 0.331425 0.709159 0.308345
C34   C     C_3   0.909078 0.381246 0.386265 -0.085661
C35   C     C_R   0.550431 0.117799 0.757164 -0.051324
C36   C     C_R   0.525206 0.061867 0.883563 -0.091549
C37   C     C_R   0.451792 0.949457 0.888818 -0.038490
C38   C     C_R   0.419445 0.882877 0.768048 0.150318
C39   C     C_R   0.458976 0.932543 0.637690 0.057525
Cu1   Cu    Cu3+1 0.499990 0.499990 0.640660 0.939439
Cu2   Cu    Cu3+1 0.500010 0.500010 0.359340 1.027818
H1    H     H_    0.106942 0.471149 0.721326 0.173181
H2    H     H_    0.109280 0.657327 0.579846 0.193058
H3    H     H_    0.910248 0.681249 0.525768 0.164059
H4    H     H_    0.877417 0.289099 0.429566 0.216915
H5    H     H_    0.842556 0.465815 0.189736 0.109859
H6    H     H_    0.386700 0.207856 0.083423 0.064503
H7    H     H_    0.169853 0.250500 0.607468 0.103101
H8    H     H_    0.489828 0.782982 0.135363 0.099976
H9    H     H_    0.835605 0.805423 0.293675 0.141565
H10   H     H_    0.009355 0.681707 0.976710 0.180466
H11   H     H_    0.731951 0.711135 0.656847 0.133076
H12   H     H_    0.132806 0.657156 0.399665 0.170747
H13   H     H_    0.329964 0.310997 0.751151 0.145373
H14   H     H_    0.805521 0.344544 0.813044 0.122791
H15   H     H_    0.926668 0.625827 0.353721 0.123770
H16   H     H_    0.446785 0.103713 0.290383 0.158358
H17   H     H_    0.604984 0.206633 0.760404 0.178150
H18   H     H_    0.556317 0.109534 0.977804 0.143022
H19   H     H_    0.418060 0.915256 0.987298 0.124999
H20   H     H_    0.407501 0.880196 0.296944 0.135692
H21   H     H_    0.915218 0.515882 0.711945 0.123369
I1    I     I_    0.281490 0.733246 0.799095 -0.306238
I2    I     I_    0.110054 0.478324 0.170541 -0.262327
I3    I     I_    0.082568 0.194384 0.341826 -0.129362
N1    N     N_R   0.501200 0.501210 0.147910 -0.256530
N2    N     N_R   0.501250 0.501290 0.852040 -0.274762
O1    O     O_R   0.499990 0.319640 0.618810 -0.568744
O2    O     O_2   0.316974 0.298167 0.236630 -0.434935
O3    O     O_2   0.041935 0.217244 0.748907 -0.361958
O4    O     O_2   0.640490 0.895005 0.184751 -0.488702
O5    O     O_2   0.959747 0.839357 0.146684 -0.450762
O6    O     O_2   0.954874 0.735164 0.793750 -0.508115
O7    O     O_2   0.678246 0.835223 0.786247 -0.464816
O8    O     O_2   0.225135 0.309093 0.914823 -0.449409
O9    O     O_2   0.810349 0.232017 0.650771 -0.472342
O10   O     O_R   0.500000 0.319660 0.381240 -0.452276
O11   O     O_R   0.317680 0.499970 0.618790 -0.521695
O12   O     O_R   0.317700 0.499990 0.381210 -0.423801
O13   O     O_R   0.500000 0.680340 0.618760 -0.486467
O14   O     O_R   0.500010 0.680360 0.381190 -0.521601
O15   O     O_R   0.682300 0.500010 0.618790 -0.551829
O16   O     O_R   0.682320 0.500030 0.381210 -0.513304
O17   O     O_2   0.782759 0.286265 0.205396 -0.454803

loop_
_geom_bond_atom_site_label_1
_geom_bond_atom_site_label_2
_ccdc_geom_bond_type
C27   H7    S    
C33   H14   S    
C30   H10   S    
C1    O10   A    
C19   C20   S    
C31   H11   S    
C36   H18   S    
C32   O8    D    
C23   H15   S    
C12   C23   S    
C35   H17   S    
C6    H20   S    
C36   C37   A    
Cu2   O10   S    
C5    C6    A    
C4    C24   S    
Cu2   O16   S    
C1    O1    A    
C21   H2    S    
C2    C39   A    
C35   C36   A    
C8    C9    A    
Cu1   N2    S    
C25   O17   D    
Cu1   O13   S    
C19   C27   S    
C9    C10   A    
C19   H1    S    
C9    C29   S    
C25   C34   S    
C29   O5    D    
C11   C31   S    
C13   C14   A    
C32   H13   S    
C29   H9    S    
C22   C34   S    
C17   N2    A    
Cu1   O15   S    
C4    O12   A    
C30   O6    D    
C31   O7    D    
C3    C5    A    
C15   N1    A    
C2    C35   A    
C23   H3    S    
C1    C3    S    
C22   I3    S    
C4    O11   A    
C37   C38   A    
C28   H8    S    
C10   C30   S    
C33   O9    D    
Cu2   O14   S    
C12   C20   S    
C18   O16   A    
C14   N1    A    
C34   H4    S    
Cu2   N1    S    
C27   O3    D    
C26   H6    S    
C20   C33   S    
Cu1   Cu2   S    
C21   C23   S    
C8    C28   S    
C22   C24   S    
C28   O4    D    
C12   C34   S    
C38   I1    S    
C13   N2    A    
C15   C17   A    
C7    C16   S    
C8    C14   A    
C15   C26   S    
Cu2   O12   S    
C6    C7    A    
C5    H16   S    
C2    C3    A    
C21   H12   S    
C11   C13   A    
C38   C39   A    
C16   O14   A    
C18   O15   A    
C19   C24   S    
Cu1   O11   S    
C20   H21   S    
C37   H19   S    
C10   C11   A    
C22   I2    S    
Cu1   O1    S    
C21   C24   S    
C12   C18   S    
C17   C32   S    
C7    C39   A    
C26   O2    D    
C16   O13   A    
C25   H5    S    
