data_mof_unit_41980.cif
_audit_creation_date              2012-12-11T14:56:05-0500
_audit_creation_method            fapswitch 2.2
_symmetry_space_group_name_H-M    P1
_symmetry_Int_Tables_number       1
_space_group_crystal_system       triclinic
_cell_length_a                    27.85735
_cell_length_b                    17.251175
_cell_length_c                    17.997284
_cell_angle_alpha                 90.116196
_cell_angle_beta                  137.840029
_cell_angle_gamma                 89.936394
_cell_volume                      5805.21474274

loop_
_atom_site_label
_atom_site_type_symbol
_atom_type_description
_atom_site_fract_x
_atom_site_fract_y
_atom_site_fract_z
_atom_type_partial_charge
C1    C     C_R   0.666931 0.922847 0.817031 -0.093969
C2    C     C_3   0.222450 0.657336 0.045628 0.579254
C3    C     C_3   0.664270 0.739457 0.940690 -0.269817
C4    C     C_3   0.163346 0.760142 0.941057 -0.268773
C5    C     C_3   0.836619 0.239787 0.059001 -0.268872
C6    C     C_3   0.792807 0.810482 0.094356 -0.287966
C7    C     C_3   0.207061 0.189814 0.906052 -0.288213
C8    C     C_3   0.204324 0.737089 0.059852 -0.244265
C9    C     C_3   0.795695 0.262822 0.940230 -0.244267
C10   C     C_3   0.753645 0.786605 0.977555 -0.269392
C11   C     C_3   0.246699 0.213846 0.023070 -0.269069
C12   C     C_3   0.748187 0.286514 0.024921 -0.269479
C13   C     C_3   0.266075 0.292248 0.011540 0.565417
C14   C     C_3   0.251762 0.713509 0.975039 -0.269502
C15   C     C_3   0.295802 0.236864 0.940726 -0.243965
C16   C     C_3   0.703903 0.762702 0.058786 -0.244699
C17   C     C_3   0.273149 0.769212 0.103849 -0.041525
C18   C     C_3   0.726835 0.230762 0.896169 -0.041354
C19   C     C_3   0.683720 0.818866 0.930109 -0.031888
C20   C     C_3   0.316320 0.181094 0.069909 -0.032243
C21   C     C_3   0.817505 0.319128 0.070549 -0.032358
C22   C     C_3   0.182478 0.680835 0.929470 -0.032406
C23   C     C_3   0.226600 0.269115 0.895407 -0.041037
C24   C     C_3   0.734406 0.707955 0.988799 0.565607
C25   C     C_3   0.773409 0.730935 0.104710 -0.041185
C26   C     C_3   0.232833 0.792037 0.987289 0.565191
C27   C     C_3   0.767096 0.207953 0.012705 0.565175
C28   C     C_3   0.722342 0.842559 0.045574 0.579861
C29   C     C_3   0.277221 0.157258 0.954220 0.579385
C30   C     C_R   0.610363 0.856678 0.351706 0.014979
C31   C     C_R   0.389657 0.143270 0.648331 0.014982
C32   C     C_R   0.280815 0.754101 0.370853 -0.014862
C33   C     C_R   0.333096 0.077124 0.182974 -0.093970
C34   C     C_R   0.719199 0.245895 0.629209 -0.014886
C35   C     C_R   0.219259 0.254145 0.629551 -0.014707
C36   C     C_R   0.780672 0.745838 0.370230 -0.014682
C37   C     C_R   0.889530 0.357155 0.648114 0.015257
C38   C     C_R   0.110443 0.642808 0.351844 0.015299
C39   C     C_R   0.398339 0.245655 0.750401 -0.084362
C40   C     C_R   0.601659 0.754258 0.249649 -0.084277
C41   C     C_R   0.739120 0.376107 0.605101 -0.059341
C42   C     C_R   0.260903 0.623887 0.394977 -0.059461
C43   C     C_R   0.760477 0.876119 0.394114 -0.059311
C44   C     C_R   0.312345 0.897933 0.198018 -0.052150
C45   C     C_R   0.239416 0.123883 0.605553 -0.059759
C46   C     C_R   0.101687 0.745083 0.249988 -0.084293
C47   C     C_R   0.898292 0.254874 0.749970 -0.084301
C48   C     C_R   0.424671 0.208823 0.717780 -0.215181
C49   C     C_R   0.575343 0.791115 0.282279 -0.215220
C50   C     C_R   0.695400 0.322293 0.589497 -0.215747
C51   C     C_R   0.304626 0.677711 0.410603 -0.215759
C52   C     C_R   0.804323 0.822369 0.409788 -0.216093
C53   C     C_R   0.195558 0.177662 0.589794 -0.216170
C54   C     C_R   0.075297 0.708156 0.282338 -0.215209
C55   C     C_R   0.687651 0.102058 0.801993 -0.052186
C56   C     C_R   0.924668 0.291795 0.717598 -0.215399
C57   C     C_R   0.339279 0.104940 0.635599 0.408455
C58   C     C_R   0.660739 0.894993 0.364420 0.408297
C59   C     C_R   0.792816 0.229970 0.704796 0.390904
C60   C     C_R   0.207191 0.770012 0.295236 0.390883
C61   C     C_R   0.707077 0.729709 0.294541 0.390784
C62   C     C_R   0.292874 0.270215 0.705379 0.390547
C63   C     C_R   0.161040 0.604681 0.364837 0.408426
C64   C     C_R   0.838948 0.395291 0.635150 0.408410
C65   C     C_R   0.305290 0.147836 0.652635 -0.012029
C66   C     C_R   0.187743 0.397759 0.801467 -0.052621
C67   C     C_R   0.694673 0.852108 0.347270 -0.012009
C68   C     C_R   0.833374 0.279581 0.706155 0.016303
C69   C     C_R   0.166625 0.720393 0.293851 0.016247
C70   C     C_R   0.666446 0.779224 0.293239 0.016162
C71   C     C_R   0.333528 0.220697 0.706731 0.016123
C72   C     C_R   0.194994 0.647661 0.347921 -0.012091
C73   C     C_R   0.805010 0.352318 0.652100 -0.012105
C74   C     C_R   0.359086 0.071125 0.490623 -0.073465
C75   C     C_R   0.640901 0.928881 0.509354 -0.073477
C76   C     C_R   0.674918 0.104014 0.595184 -0.058208
C77   C     C_R   0.812253 0.602261 0.198564 -0.052611
C78   C     C_R   0.325085 0.895985 0.404831 -0.058087
C79   C     C_R   0.825067 0.603997 0.404778 -0.057683
C80   C     C_R   0.174922 0.395996 0.595175 -0.057600
C81   C     C_R   0.140875 0.570912 0.509309 -0.074369
C82   C     C_R   0.859116 0.429080 0.490676 -0.074365
C83   C     C_R   0.406876 0.802903 0.491101 -0.130810
C84   C     C_R   0.593129 0.197097 0.508917 -0.130859
C85   C     C_R   0.556728 0.836571 0.418845 -0.100200
C86   C     C_R   0.443273 0.163420 0.581164 -0.100211
C87   C     C_R   0.943292 0.336822 0.581149 -0.101785
C88   C     C_R   0.834285 0.423474 0.183388 -0.095343
C89   C     C_R   0.056695 0.663164 0.418829 -0.101726
C90   C     C_R   0.093147 0.302860 0.508931 -0.129749
C91   C     C_R   0.906832 0.697141 0.491020 -0.129674
C92   C     C_R   0.604263 0.193784 0.713522 -0.150019
C93   C     C_R   0.395733 0.806211 0.286484 -0.150100
C94   C     C_R   0.417477 0.169296 0.273927 -0.099936
C95   C     C_R   0.582546 0.830671 0.726073 -0.099750
C96   C     C_R   0.081674 0.669203 0.725425 -0.100745
C97   C     C_R   0.918318 0.330784 0.274577 -0.100775
C98   C     C_R   0.895726 0.693886 0.287142 -0.148951
C99   C     C_R   0.165707 0.576516 0.816611 -0.095516
C100  C     C_R   0.104268 0.306137 0.712924 -0.149318
C101  C     C_R   0.640451 0.862376 0.828748 0.146908
C102  C     C_R   0.359601 0.137561 0.171257 0.146758
C103  C     C_R   0.325121 0.822351 0.193832 0.136907
C104  C     C_R   0.674870 0.177636 0.806179 0.136905
C105  C     C_R   0.174961 0.322109 0.805261 0.136624
C106  C     C_R   0.825030 0.677934 0.194843 0.136564
C107  C     C_R   0.861093 0.362981 0.171956 0.148205
C108  C     C_R   0.138892 0.636995 0.828048 0.148107
C109  C     C_R   0.397242 0.125381 0.576788 0.095678
C110  C     C_3   0.777586 0.342606 0.954415 0.579148
C111  C     C_R   0.602757 0.874607 0.423213 0.095684
C112  C     C_R   0.664929 0.183979 0.577888 0.113932
C113  C     C_R   0.335078 0.816021 0.422146 0.113958
C114  C     C_R   0.835021 0.683991 0.421931 0.113848
C115  C     C_R   0.164945 0.316006 0.577962 0.114028
C116  C     C_R   0.102750 0.625023 0.423215 0.095653
C117  C     C_R   0.897232 0.374957 0.576756 0.095659
C118  C     C_3   0.707762 0.310208 0.907498 -0.288108
C119  C     C_3   0.292239 0.689796 0.092482 -0.287870
C120  C     C_3   0.335920 0.260254 0.059056 -0.269251
Cl1   Cl    Cl    0.786910 0.432916 0.918635 -0.532403
Cl2   Cl    Cl    0.320434 0.004948 0.603126 -0.651169
Cl3   Cl    Cl    0.164427 0.847770 0.200043 -0.714686
Cl4   Cl    Cl    0.835582 0.152207 0.799980 -0.714724
Cl5   Cl    Cl    0.335481 0.348043 0.800822 -0.714833
Cl6   Cl    Cl    0.664461 0.651816 0.199195 -0.715014
Cl7   Cl    Cl    0.819847 0.495187 0.602626 -0.651344
Cl8   Cl    Cl    0.180151 0.504793 0.397385 -0.651440
Cl9   Cl    Cl    0.213193 0.566994 0.081440 -0.532498
Cl10  Cl    Cl    0.259080 0.381830 0.052440 -0.580121
Cl11  Cl    Cl    0.742043 0.618633 0.948303 -0.579510
Cl12  Cl    Cl    0.239365 0.881397 0.945755 -0.580203
Cl13  Cl    Cl    0.760472 0.118611 0.054169 -0.580770
Cl14  Cl    Cl    0.712027 0.932944 0.080206 -0.532346
Cl15  Cl    Cl    0.286938 0.066646 0.919174 -0.532282
Cl16  Cl    Cl    0.679512 0.995017 0.396737 -0.651075
H1    H     H_    0.715018 0.955832 0.882571 0.144595
H2    H     H_    0.216968 0.067678 0.566623 0.191360
H3    H     H_    0.076308 0.798551 0.203941 0.198065
H4    H     H_    0.923665 0.201399 0.796000 0.198056
H5    H     H_    0.423577 0.299272 0.796392 0.197961
H6    H     H_    0.576417 0.700634 0.203684 0.197988
H7    H     H_    0.716573 0.432221 0.566214 0.191316
H8    H     H_    0.283458 0.567780 0.433889 0.191288
H9    H     H_    0.316325 0.034205 0.459563 0.165642
H10   H     H_    0.683640 0.965818 0.540366 0.165632
H11   H     H_    0.724678 0.073108 0.651845 0.169894
H12   H     H_    0.285009 0.044141 0.117432 0.144868
H13   H     H_    0.275322 0.926886 0.348168 0.169884
H14   H     H_    0.775308 0.573022 0.348093 0.169690
H15   H     H_    0.224691 0.426955 0.651848 0.169654
H16   H     H_    0.183601 0.533945 0.540292 0.165967
H17   H     H_    0.816392 0.466050 0.459693 0.165992
H18   H     H_    0.432035 0.747729 0.509273 0.096969
H19   H     H_    0.567969 0.252272 0.490741 0.097033
H20   H     H_    0.519529 0.791104 0.362832 0.102752
H21   H     H_    0.480478 0.208880 0.637195 0.102757
H22   H     H_    0.980485 0.291446 0.637122 0.102383
H23   H     H_    0.260651 0.925289 0.144892 0.133722
H24   H     H_    0.019491 0.708530 0.362840 0.102441
H25   H     H_    0.068015 0.247685 0.490805 0.097294
H26   H     H_    0.931970 0.752316 0.509171 0.097270
H27   H     H_    0.579652 0.250491 0.684803 0.105065
H28   H     H_    0.420346 0.749504 0.315206 0.105111
H29   H     H_    0.448144 0.219884 0.293621 0.112901
H30   H     H_    0.551869 0.780090 0.706362 0.112683
H31   H     H_    0.051523 0.720376 0.705720 0.113550
H32   H     H_    0.948465 0.279606 0.294287 0.113495
H33   H     H_    0.920765 0.750402 0.315688 0.104407
H34   H     H_    0.739346 0.074703 0.855127 0.133638
H35   H     H_    0.079245 0.249612 0.684399 0.104602
H36   H     H_    0.186657 0.746739 0.097643 0.212939
H37   H     H_    0.813389 0.253124 0.902486 0.212968
H38   H     H_    0.773567 0.796055 0.942984 0.179094
H39   H     H_    0.227049 0.204759 0.058111 0.179215
H40   H     H_    0.729157 0.295839 0.060894 0.179226
H41   H     H_    0.270765 0.704234 0.939019 0.179280
H42   H     H_    0.314192 0.246275 0.903997 0.212982
H43   H     H_    0.685238 0.752927 0.095045 0.213335
H44   H     H_    0.654787 0.339131 0.844915 0.171482
H45   H     H_    0.239429 0.425211 0.854721 0.134552
H46   H     H_    0.345228 0.660902 0.155031 0.171593
H47   H     H_    0.389037 0.288915 0.122346 0.176182
H48   H     H_    0.611302 0.710523 0.877158 0.175992
H49   H     H_    0.110197 0.788696 0.878390 0.176479
H50   H     H_    0.889753 0.211202 0.121697 0.176415
H51   H     H_    0.845622 0.839728 0.157835 0.171644
H52   H     H_    0.154110 0.160806 0.842866 0.171578
H53   H     H_    0.531010 0.763908 0.259563 0.146526
H54   H     H_    0.469004 0.236044 0.740509 0.146534
H55   H     H_    0.358811 0.659869 0.461429 0.145334
H56   H     H_    0.760567 0.574802 0.145289 0.134165
H57   H     H_    0.641224 0.340148 0.538714 0.145366
H58   H     H_    0.141364 0.159731 0.538826 0.145516
H59   H     H_    0.858475 0.840364 0.460546 0.145462
H60   H     H_    0.969169 0.264779 0.740574 0.146608
H61   H     H_    0.030782 0.735161 0.259335 0.146682
H62   H     H_    0.786466 0.456632 0.117626 0.146119
H63   H     H_    0.213526 0.543360 0.882374 0.146426
H64   H     H_    0.782897 0.932361 0.432925 0.191309
N1    N     N_R   0.625380 0.928280 0.709340 -0.057469
N2    N     N_R   0.613900 0.929750 0.547530 -0.057792
N3    N     N_R   0.613900 0.070250 0.547530 -0.056647
N4    N     N_R   0.386100 0.929750 0.452470 -0.056640
N5    N     N_R   0.886100 0.570250 0.452470 -0.056360
N6    N     N_R   0.113900 0.429750 0.547530 -0.056356
N7    N     N_R   0.113900 0.570250 0.547530 -0.058026
N8    N     N_R   0.886100 0.429750 0.452470 -0.058040
N9    N     N_R   0.437800 0.869550 0.507970 -0.043648
N10   N     N_R   0.562200 0.130450 0.492030 -0.043657
N11   N     N_R   0.562200 0.869550 0.492030 -0.047918
N12   N     N_R   0.374620 0.071720 0.290660 -0.057515
N13   N     N_R   0.437800 0.130450 0.507970 -0.047920
N14   N     N_R   0.937800 0.369550 0.507970 -0.047933
N15   N     N_R   0.062200 0.630450 0.492030 -0.047948
N16   N     N_R   0.062200 0.369550 0.492030 -0.043677
N17   N     N_R   0.937800 0.630450 0.507970 -0.043700
N18   N     N_R   0.573690 0.128980 0.653840 -0.045895
N19   N     N_R   0.426310 0.871020 0.346160 -0.045906
N20   N     N_R   0.426310 0.128980 0.346160 -0.051096
N21   N     N_R   0.573690 0.871020 0.653840 -0.051101
N22   N     N_R   0.073690 0.628980 0.653840 -0.051183
N23   N     N_R   0.374620 0.928280 0.290660 -0.053014
N24   N     N_R   0.926310 0.371020 0.346160 -0.051186
N25   N     N_R   0.926310 0.628980 0.346160 -0.045809
N26   N     N_R   0.073690 0.371020 0.653840 -0.045815
N27   N     N_R   0.625380 0.071720 0.709340 -0.052981
N28   N     N_R   0.125380 0.428280 0.709340 -0.052867
N29   N     N_R   0.874620 0.571720 0.290660 -0.052792
N30   N     N_R   0.874620 0.428280 0.290660 -0.057965
N31   N     N_R   0.125380 0.571720 0.709340 -0.057960
N32   N     N_R   0.386100 0.070250 0.452470 -0.057806
Ni1   Ni    Ni4+2 0.616560 0.000000 0.627280 0.243354
Ni2   Ni    Ni4+2 0.383440 0.000000 0.372720 0.243312
Ni3   Ni    Ni4+2 0.116560 0.500000 0.627280 0.243268
Ni4   Ni    Ni4+2 0.883440 0.500000 0.372720 0.243236
Ni5   Ni    Ni4+2 0.497990 0.870580 0.500000 0.231622
Ni6   Ni    Ni4+2 0.502010 0.129420 0.500000 0.231620
Ni7   Ni    Ni4+2 0.997990 0.370580 0.500000 0.232089
Ni8   Ni    Ni4+2 0.002010 0.629420 0.500000 0.232078

loop_
_geom_bond_atom_site_label_1
_geom_bond_atom_site_label_2
_ccdc_geom_bond_type
C61   C70   A    
C10   H38   S    
C80   H15   S    
C80   N6    A    
C97   N24   A    
C16   C28   S    
C7    C29   S    
C40   H6    S    
C35   C53   A    
N24   Ni7   S    
C34   C112  S    
C83   C113  A    
C74   H9    S    
C88   N30   A    
N1    N21   A    
N2    N11   A    
C4    C8    S    
C36   C114  S    
C110  C118  S    
C74   C109  A    
C82   N8    A    
C21   C110  S    
C76   N3    A    
N7    Ni3   S    
C22   C108  S    
C83   H18   S    
C7    C11   S    
C99   C108  A    
C77   H56   S    
N5    N17   A    
C100  C105  A    
C95   N21   A    
C54   H61   S    
C40   C70   A    
C28   Cl14  S    
C17   C26   S    
N10   Ni6   S    
C77   C106  A    
N23   Ni2   S    
N9    Ni5   S    
C87   C117  A    
C110  Cl1   S    
C84   H19   S    
C84   N10   A    
C43   C52   A    
C6    C25   S    
C20   C102  S    
C88   H62   S    
C40   C49   A    
C23   C105  S    
C16   C25   S    
C2    Cl9   S    
C42   C72   A    
C15   C120  S    
C13   C23   S    
C55   N27   A    
C46   C69   A    
N4    Ni2   S    
C57   Cl2   S    
C5    C27   S    
C98   H33   S    
C44   C103  A    
C6    C28   S    
C39   H5    S    
C76   H11   S    
N28   Ni3   S    
N4    N9    A    
C2    C22   S    
C64   C73   A    
N11   Ni5   S    
N3    N10   A    
C35   C115  S    
C61   Cl6   S    
C32   C113  S    
C3    H48   S    
C18   C118  S    
C55   H34   S    
C48   H54   S    
C63   Cl8   S    
C36   C52   A    
C16   H43   S    
C76   C112  A    
C42   C51   A    
C12   H40   S    
C98   N25   A    
C89   N15   A    
C15   C23   S    
C96   C108  A    
C89   C116  A    
C1    N1    A    
C56   H60   S    
C100  H35   S    
C53   H58   S    
C37   C56   A    
N20   Ni6   S    
C3    C24   S    
C93   C103  A    
C52   H59   S    
C37   C117  S    
C5    H50   S    
C1    H1    S    
C85   N11   A    
C94   H29   S    
N7    N15   A    
C120  H47   S    
C75   N2    A    
C25   C106  S    
C15   C29   S    
C20   C29   S    
C75   H10   S    
C4    C26   S    
N27   Ni1   S    
N15   Ni8   S    
C11   C20   S    
C34   C50   A    
N18   Ni6   S    
C12   C27   S    
C33   C102  A    
C27   Cl13  S    
C7    H52   S    
C43   H64   S    
C24   C25   S    
C74   N32   A    
N13   Ni6   S    
C19   C101  S    
C88   C107  A    
C92   C104  A    
C18   C104  S    
C90   H25   S    
C93   H28   S    
C10   C24   S    
C68   C73   A    
C65   C71   A    
C41   C73   A    
C55   C104  A    
C45   C53   A    
N25   N29   A    
N21   Ni5   S    
N6    Ni3   S    
C85   H20   S    
C97   C107  A    
C4    H49   S    
C91   N17   A    
C60   Cl3   S    
C92   N18   A    
C3    C16   S    
C77   N29   A    
C32   C51   A    
C5    C9    S    
C19   C28   S    
C33   H12   S    
N24   N30   A    
C59   C68   A    
C4    C22   S    
C9    C18   S    
N1    Ni1   S    
C38   C54   A    
C80   C115  A    
C10   C19   S    
C13   Cl10  S    
C64   Cl7   S    
C50   H57   S    
C3    C19   S    
C86   C109  A    
N32   Ni2   S    
C31   C109  S    
C96   H31   S    
C5    C21   S    
C91   H26   S    
C44   N23   A    
C84   C112  A    
C90   N16   A    
C14   C26   S    
C26   Cl12  S    
C100  N26   A    
C9    H37   S    
C47   C56   A    
N17   Ni8   S    
C21   C107  S    
N13   N32   A    
C79   H14   S    
C12   C118  S    
C92   H27   S    
C29   Cl15  S    
C46   C54   A    
N22   N31   A    
C96   N22   A    
C31   C48   A    
C42   H8    S    
C34   C59   A    
C83   N9    A    
C78   C113  A    
C94   N20   A    
C32   C60   A    
C66   C105  A    
C30   C49   A    
C36   C61   A    
C97   H32   S    
C95   H30   S    
C1    C101  A    
C41   C50   A    
C20   C120  S    
C13   C120  S    
C51   H55   S    
C89   H24   S    
C38   C63   A    
N6    N16   A    
C59   Cl4   S    
N25   Ni8   S    
N8    Ni4   S    
N8    N14   A    
N26   Ni7   S    
N16   Ni7   S    
C11   H39   S    
C66   H45   S    
N5    Ni4   S    
C2    C8    S    
C18   C27   S    
C38   C116  S    
C57   C65   A    
C85   C111  A    
C6    C10   S    
C62   Cl5   S    
C99   N31   A    
C2    C119  S    
C82   H17   S    
C41   H7    S    
C9    C110  S    
C81   H16   S    
N12   N20   A    
C75   C111  A    
C8    C17   S    
C98   C106  A    
C91   C114  A    
C81   N7    A    
C30   C111  S    
C93   N19   A    
C67   C70   A    
C58   Cl16  S    
N30   Ni4   S    
C31   C57   A    
N29   Ni4   S    
C90   C115  A    
N14   Ni7   S    
C17   C103  S    
C86   N13   A    
C79   N5    A    
N2    Ni1   S    
C45   C65   A    
C11   C13   S    
C24   Cl11  S    
C14   C22   S    
C47   C68   A    
C7    C23   S    
C60   C69   A    
C99   H63   S    
N12   Ni2   S    
N19   Ni5   S    
C30   C58   A    
C81   C116  A    
N22   Ni8   S    
C45   H2    S    
C33   N12   A    
C87   N14   A    
C62   C71   A    
C35   C62   A    
C6    H51   S    
C86   H21   S    
C14   H41   S    
C17   C119  S    
N19   N23   A    
C12   C21   S    
N3    Ni1   S    
C95   C101  A    
C58   C67   A    
C78   N4    A    
C47   H4    S    
C49   H53   S    
C63   C72   A    
C94   C102  A    
C43   C67   A    
C14   C119  S    
C15   H42   S    
C66   N28   A    
C44   H23   S    
C39   C71   A    
C46   H3    S    
N31   Ni3   S    
N18   N27   A    
C69   C72   A    
C82   C117  A    
C37   C64   A    
C119  H46   S    
C87   H22   S    
C79   C114  A    
N26   N28   A    
C8    H36   S    
C78   H13   S    
C39   C48   A    
C118  H44   S    
