data_mof_unit_41949.cif
_audit_creation_date              2012-12-11T17:00:16-0500
_audit_creation_method            fapswitch 2.2
_symmetry_space_group_name_H-M    P1
_symmetry_Int_Tables_number       1
_space_group_crystal_system       triclinic
_cell_length_a                    6.975878
_cell_length_b                    13.554974
_cell_length_c                    20.269534
_cell_angle_alpha                 103.06022
_cell_angle_beta                  89.889899
_cell_angle_gamma                 90.651684
_cell_volume                      1866.94463546

loop_
_atom_site_label
_atom_site_type_symbol
_atom_type_description
_atom_site_fract_x
_atom_site_fract_y
_atom_site_fract_z
_atom_type_partial_charge
O1    O     O_R   0.506770 0.599700 0.449550 -0.536624
O2    O     O_R   0.179980 0.595740 0.587960 -0.544179
O3    O     O_R   0.004580 0.400300 0.550450 -0.539577
C1    C     C_R   0.348051 0.616520 0.615416 0.697399
O4    O     O_R   0.177380 0.611700 0.452380 -0.535974
O5    O     O_R   0.001970 0.416370 0.413900 -0.545936
C2    C     C_R   0.347009 0.638207 0.435666 0.706022
O6    O     O_R   0.509390 0.583630 0.586100 -0.539441
O7    O     O_3   0.337530 0.435890 0.487530 -0.374003
V1    V     V_3+5 0.064660 0.511890 0.502310 1.435833
O8    O     O_R   0.671950 0.404260 0.412040 -0.541015
C3    C     C_R   0.840318 0.382973 0.384753 0.693139
O9    O     O_R   0.674540 0.388300 0.547620 -0.541642
C4    C     C_R   0.842752 0.361974 0.564494 0.723229
V2    V     V_3+5 0.564030 0.488110 0.497690 1.430606
O10   O     O_3   0.841030 0.564110 0.512470 -0.367733
C5    C     C_R   0.891191 0.110456 0.610502 0.624493
H1    H     H_    0.881947 0.160730 0.517498 0.133430
H2    H     H_    0.924541 0.986029 0.694528 0.178953
C6    C     C_R   0.851174 0.284812 0.604333 -0.118997
C7    C     C_R   0.835714 0.316950 0.931023 -0.085372
C8    C     C_R   0.820485 0.393005 0.895549 -0.083351
C9    C     C_R   0.828759 0.369970 0.825013 -0.171660
C10   C     C_R   0.853655 0.268993 0.787797 0.114182
C11   C     C_R   0.871996 0.191656 0.824705 0.069449
C12   C     C_R   0.860140 0.242090 0.715381 0.010587
C13   C     C_R   0.884917 0.138767 0.681720 0.011659
C14   C     C_R   0.904392 0.064852 0.719355 -0.145848
C15   C     C_R   0.898912 0.090841 0.789535 -0.217401
C16   C     C_R   0.843343 0.314120 0.674980 -0.223800
C17   C     C_R   0.874841 0.183321 0.572246 -0.247243
C18   C     C_R   0.861769 0.216608 0.896374 -0.101361
H3    H     H_    0.826026 0.393773 0.696543 0.106050
H4    H     H_    0.826448 0.336306 0.985811 0.169673
H5    H     H_    0.814549 0.433098 0.801389 0.106784
H6    H     H_    0.800776 0.470600 0.922942 0.142787
H7    H     H_    0.916541 0.030923 0.816226 0.110574
C19   C     C_R   0.702952 0.187946 0.224837 0.032876
C20   C     C_R   0.865806 0.184059 0.184137 -0.070018
C21   C     C_R   0.022117 0.245975 0.211187 -0.138473
H8    H     H_    0.144478 0.249842 0.179809 0.187484
C22   C     C_R   0.015144 0.309325 0.276547 -0.161957
H9    H     H_    0.134387 0.360046 0.293898 0.135611
C23   C     C_R   0.850435 0.312628 0.317151 -0.078726
C24   C     C_R   0.696486 0.248725 0.290532 0.048395
C25   C     C_3   0.495137 0.278504 0.281835 -0.431262
C26   C     C_3   0.505363 0.216839 0.209526 0.119692
H10   H     H_    0.480555 0.361416 0.286467 0.198443
H11   H     H_    0.395287 0.245488 0.314071 0.144836
H12   H     H_    0.405703 0.150678 0.198636 0.086233
C27   C     C_R   0.505890 0.752002 0.705105 0.120268
C28   C     C_R   0.351363 0.686390 0.683236 -0.110152
C29   C     C_R   0.192447 0.692314 0.727090 -0.167220
H13   H     H_    0.070448 0.642456 0.712445 0.130202
C30   C     C_R   0.194830 0.757282 0.792094 -0.186279
H14   H     H_    0.075066 0.755832 0.825727 0.132559
C31   C     C_R   0.356689 0.817766 0.815335 -0.109436
C32   C     C_R   0.508956 0.815643 0.769721 0.123775
C33   C     C_3   0.715408 0.795238 0.778941 -0.418702
C34   C     C_3   0.711963 0.726827 0.708516 -0.410764
H15   H     H_    0.737827 0.753588 0.819631 0.170236
H16   H     H_    0.806786 0.863670 0.782408 0.169682
H17   H     H_    0.733108 0.645544 0.708258 0.161298
H18   H     H_    0.799823 0.756449 0.671281 0.190582
C35   C     C_R   0.437041 0.886317 0.388031 -0.136118
H19   H     H_    0.432608 0.836540 0.481229 0.132745
H20   H     H_    0.483322 0.009131 0.304291 0.121193
H21   H     H_    0.476423 0.963196 0.413166 0.128041
C36   C     C_R   0.360500 0.715264 0.395795 -0.049171
C37   C     C_R   0.301130 0.685590 0.070027 -0.215958
C38   C     C_R   0.273573 0.610379 0.105790 0.354101
C39   C     C_R   0.294985 0.632549 0.176032 -0.171781
C40   C     C_R   0.344937 0.731585 0.212475 0.020086
C41   C     C_R   0.375310 0.807909 0.175181 0.069444
C42   C     C_R   0.364264 0.757667 0.284587 0.095806
C43   C     C_R   0.414895 0.858867 0.317392 0.132197
C44   C     C_R   0.444520 0.931932 0.279611 -0.203883
C45   C     C_R   0.425109 0.907028 0.209715 -0.180257
C46   C     C_R   0.336227 0.686891 0.325544 -0.207255
C47   C     C_R   0.411417 0.814686 0.426910 -0.128715
C48   C     C_R   0.352305 0.783869 0.103901 -0.123656
H22   H     H_    0.299302 0.608682 0.304644 0.101429
H23   H     H_    0.280872 0.667590 0.015596 0.133068
H24   H     H_    0.270281 0.570635 0.200274 0.156575
H25   H     H_    0.449918 0.966486 0.182875 0.109047
O11   O     O_R   0.203450 0.916320 0.913910 -0.547237
O12   O     O_R   0.535520 0.888300 0.047620 -0.544188
O13   O     O_R   0.710860 0.083650 0.086100 -0.527799
C49   C     C_R   0.365899 0.861738 0.064295 0.694867
O14   O     O_R   0.532860 0.904250 0.912040 -0.546243
O15   O     O_R   0.708190 0.099710 0.949550 -0.530909
C50   C     C_R   0.364427 0.882895 0.884765 0.684769
O16   O     O_R   0.206120 0.900260 0.050460 -0.542595
O17   O     O_3   0.375280 0.064080 0.012470 -0.346888
V3    V     V_3+5 0.648180 0.988110 0.997690 1.462177
O18   O     O_R   0.038220 0.111740 0.952370 -0.531898
C51   C     C_R   0.869962 0.138629 0.935978 0.716665
O19   O     O_R   0.040880 0.095790 0.087940 -0.543379
C52   C     C_R   0.872556 0.117794 0.114989 0.730542
V4    V     V_3+5 0.148800 0.011950 0.002300 1.480664
O20   O     O_3   0.871820 0.935920 0.987530 -0.384054
Br1   Br    Br    0.504388 0.302466 0.143628 -0.508079
Br2   Br    Br    0.201376 0.476691 0.058376 -0.525973
F1    F     F_    0.914639 0.012194 0.577806 -0.700259

loop_
_geom_bond_atom_site_label_1
_geom_bond_atom_site_label_2
_ccdc_geom_bond_type
C30   H14   S    
C31   C50   S    
C40   C41   A    
H20   C44   S    
C1    O6    A    
O14   V3    S    
C6    C16   A    
C29   H13   S    
C23   C24   A    
C25   H11   S    
C12   C13   A    
C35   C43   A    
C1    C28   S    
C34   H17   S    
C14   C15   A    
C5    F1    S    
C10   C12   A    
O5    C3    A    
C19   C20   A    
V2    O10   S    
C18   C51   S    
C37   C48   A    
C19   C24   A    
O14   C50   A    
O12   V3    S    
C9    C10   A    
C37   C38   A    
O1    V2    S    
O11   V4    S    
O7    V1    S    
O8    V2    S    
C48   C49   S    
C11   C18   A    
C21   C22   A    
O13   V3    S    
C33   C34   S    
C26   Br1   S    
O9    C4    A    
C40   C42   A    
C22   C23   A    
C26   H12   S    
C29   C30   A    
C11   C15   A    
C7    C18   A    
C25   H10   S    
C33   H15   S    
C27   C28   A    
C5    C13   A    
C4    C6    S    
C10   C11   A    
C20   C21   A    
O4    C2    A    
C7    H4    S    
C32   C33   S    
C44   C45   A    
O15   C51   A    
O2    C1    A    
C42   C43   A    
C2    C36   S    
C37   H23   S    
C20   C52   S    
O9    V2    S    
O17   V4    S    
C35   H21   S    
O18   C51   A    
C27   C32   A    
C43   C44   A    
H2    C14   S    
O16   V4    S    
C19   C26   S    
C39   H24   S    
O3    C4    A    
C45   H25   S    
C21   H8    S    
C12   C16   A    
O6    V2    S    
O19   V4    S    
C30   C31   A    
C5    C17   A    
C36   C46   A    
C22   H9    S    
C41   C48   A    
O2    V1    S    
C8    H6    S    
C28   C29   A    
C38   Br2   S    
C25   C26   S    
C33   H16   S    
C16   H3    S    
O1    C2    A    
C39   C40   A    
O5    V1    S    
C46   H22   S    
O8    C3    A    
H1    C17   S    
H19   C47   S    
C9    H5    S    
C34   H18   S    
O12   C49   A    
O7    V2    S    
C38   C39   A    
C3    C23   S    
O3    V1    S    
O11   C50   A    
C31   C32   A    
O18   V4    S    
V4    O20   S    
C49   O16   A    
O17   V3    S    
O13   C52   A    
O15   V3    S    
C24   C25   S    
O4    V1    S    
O19   C52   A    
C41   C45   A    
C15   H7    S    
C13   C14   A    
C35   C47   A    
C8    C9    A    
C36   C47   A    
V1    O10   S    
C27   C34   S    
C7    C8    A    
C42   C46   A    
V3    O20   S    
C6    C17   A    
