data_mof_unit_51295.cif
_audit_creation_date              2012-12-11T19:44:47-0500
_audit_creation_method            fapswitch 2.2
_symmetry_space_group_name_H-M    P1
_symmetry_Int_Tables_number       1
_space_group_crystal_system       triclinic
_cell_length_a                    8.244107
_cell_length_b                    15.239833
_cell_length_c                    19.162713
_cell_angle_alpha                 102.704749
_cell_angle_beta                  91.615188
_cell_angle_gamma                 99.914884
_cell_volume                      2308.08403094

loop_
_atom_site_label
_atom_site_type_symbol
_atom_type_description
_atom_site_fract_x
_atom_site_fract_y
_atom_site_fract_z
_atom_type_partial_charge
Ba1   Ba    Ba6+2 0.853900 0.540470 0.466700 1.825175
Ba2   Ba    Ba6+2 0.335940 0.459610 0.533310 1.781034
C1    C     C_3   0.729493 0.890372 0.333482 -0.179562
C2    C     C_3   0.663578 0.793938 0.340993 0.349075
C3    C     C_3   0.567549 0.263925 0.296531 0.759958
C4    C     C_3   0.578966 0.197319 0.224044 -0.186202
C5    C     C_3   0.064955 0.275253 0.725865 0.340013
C6    C     C_3   0.096373 0.252953 0.798175 -0.308201
C7    C     C_3   0.527938 0.216173 0.675490 0.326924
C8    C     C_3   0.472201 0.122838 0.691770 -0.251843
C9    C     C_R   0.064294 0.553835 0.803807 -0.109924
C10   C     C_R   0.023400 0.537677 0.729292 0.011770
C11   C     C_R   0.855583 0.423440 0.808057 -0.172363
C12   C     C_3   0.202386 0.786281 0.286971 0.231889
C13   C     C_R   0.785315 0.429442 0.742472 0.000912
C14   C     C_R   0.331713 0.580985 0.190682 -0.180142
C15   C     C_R   0.397268 0.581926 0.258967 -0.025053
C16   C     C_R   0.128465 0.449406 0.197614 -0.114564
C17   C     C_R   0.161708 0.471097 0.273055 0.144911
C18   C     C_R   0.989416 0.491570 0.844867 -0.001093
C19   C     C_R   0.879377 0.477706 0.700198 -0.231506
C20   C     C_R   0.200017 0.510548 0.155079 -0.027758
C21   C     C_R   0.295873 0.539595 0.303078 -0.124904
C22   C     C_R   0.756736 0.447948 0.953247 -0.089713
C23   C     C_3   0.136103 0.774815 0.209479 0.347515
C24   C     C_R   0.647235 0.400343 0.991014 -0.082928
C25   C     C_R   0.694164 0.397640 0.059693 -0.055250
C26   C     C_R   0.849416 0.443175 0.090015 -0.057349
C27   C     C_R   0.976536 0.471786 0.046973 0.020542
C28   C     C_R   0.927467 0.471923 0.974071 0.044585
C29   C     C_R   0.145678 0.500887 0.074781 0.011753
C30   C     C_R   0.263141 0.524845 0.024851 0.061836
C31   C     C_R   0.213621 0.523804 0.951839 0.042129
C32   C     C_R   0.044390 0.497219 0.924555 0.005077
C33   C     C_R   0.434644 0.547507 0.044925 -0.070634
C34   C     C_3   0.132992 0.770410 0.695734 0.650926
C35   C     C_R   0.545407 0.590946 0.004697 0.003699
C36   C     C_R   0.498635 0.589121 0.934737 -0.018473
C37   C     C_R   0.340137 0.547040 0.907175 -0.061481
C38   C     C_R   0.855563 0.175841 0.550409 0.057740
C39   C     C_R   0.783885 0.084130 0.548208 -0.065655
C40   C     C_R   0.640001 0.897265 0.541315 -0.053471
C41   C     C_R   0.781357 0.942755 0.587532 0.401036
C42   C     C_R   0.857716 0.031068 0.585817 -0.074556
C43   C     C_R   0.573986 0.800970 0.529046 0.071845
C44   C     C_R   0.423560 0.766438 0.488267 -0.225169
C45   C     C_3   0.082260 0.784040 0.773778 0.478894
C46   C     C_R   0.614041 0.194167 0.481899 0.000828
C47   C     C_R   0.547305 0.100810 0.475677 0.005704
C48   C     C_R   0.629574 0.046110 0.510478 0.016439
C49   C     C_R   0.401804 0.060248 0.434172 0.037638
C50   C     C_R   0.328969 0.970875 0.431618 -0.065336
C51   C     C_R   0.406873 0.915075 0.465362 -0.027494
C52   C     C_R   0.559364 0.952389 0.505501 -0.028698
C53   C     C_R   0.337440 0.822625 0.458431 0.022170
C54   C     C_R   0.767452 0.230220 0.519265 -0.244718
C55   C     C_3   0.037398 0.244522 0.356607 0.319637
C56   C     C_3   0.972788 0.140202 0.333954 0.829744
C57   C     C_3   0.703240 0.653548 0.680283 0.433377
C58   C     C_3   0.679566 0.668235 0.760395 -0.301710
H1    H     H_    0.719101 0.784419 0.391610 0.035271
H2    H     H_    0.994402 0.832375 0.782214 0.067673
H3    H     H_    0.015828 0.718509 0.782276 -0.322025
H4    H     H_    0.999219 0.271387 0.411231 -0.044163
H5    H     H_    0.172559 0.256016 0.356027 0.113325
H6    H     H_    0.825232 0.636100 0.669294 -0.177538
H7    H     H_    0.609078 0.593942 0.653650 0.084873
H8    H     H_    0.864999 0.900160 0.329562 0.195050
H9    H     H_    0.735357 0.738831 0.789208 0.142078
H10   H     H_    0.736379 0.619196 0.783463 0.048266
H11   H     H_    0.546393 0.656504 0.769583 0.162091
H12   H     H_    0.527858 0.785327 0.342914 -0.143464
H13   H     H_    0.702491 0.940667 0.380611 0.102696
H14   H     H_    0.691882 0.293107 0.322080 -0.002618
H15   H     H_    0.488427 0.201819 0.181487 0.132195
H16   H     H_    0.704201 0.212418 0.204742 0.119235
H17   H     H_    0.551940 0.124944 0.228055 0.190645
H18   H     H_    0.670969 0.903031 0.284695 0.206496
H19   H     H_    0.129555 0.346158 0.727693 0.070101
H20   H     H_    0.930191 0.269575 0.715985 -0.067555
H21   H     H_    0.230432 0.257172 0.809814 0.159264
H22   H     H_    0.051350 0.302008 0.841590 0.054653
H23   H     H_    0.030947 0.182706 0.797713 0.152881
H24   H     H_    0.664314 0.228266 0.674823 -0.098608
H25   H     H_    0.472824 0.215383 0.621776 0.067705
H26   H     H_    0.514780 0.069233 0.651244 0.090489
H27   H     H_    0.335621 0.107043 0.690455 0.201940
H28   H     H_    0.264277 0.728317 0.289880 -0.059228
H29   H     H_    0.524521 0.122050 0.745621 0.125747
H30   H     H_    0.156058 0.613075 0.827955 0.132735
H31   H     H_    0.798463 0.367831 0.830767 0.080311
H32   H     H_    0.391310 0.632624 0.165026 0.158752
H33   H     H_    0.046020 0.386034 0.173500 0.094362
H34   H     H_    0.834812 0.472809 0.645577 0.053130
H35   H     H_    0.331816 0.552933 0.359678 0.070740
H36   H     H_    0.702343 0.467187 0.908657 0.077248
H37   H     H_    0.520491 0.374468 0.970061 0.084250
H38   H     H_    0.604512 0.366228 0.090625 0.116661
H39   H     H_    0.292728 0.851196 0.303266 0.057778
H40   H     H_    0.862851 0.455889 0.147101 0.130884
H41   H     H_    0.488300 0.529899 0.090646 0.062937
H42   H     H_    0.673110 0.615382 0.024637 0.097929
H43   H     H_    0.589618 0.612253 0.899968 0.076594
H44   H     H_    0.322123 0.531489 0.850421 0.108785
H45   H     H_    0.968843 0.060272 0.619911 0.156038
H46   H     H_    0.212214 0.945993 0.401064 0.142356
H47   H     H_    0.343767 0.097096 0.402290 0.178247
H48   H     H_    0.370620 0.694701 0.481003 0.046320
H49   H     H_    0.083042 0.701655 0.186378 0.001920
H50   H     H_    0.821888 0.300685 0.521363 0.043554
H51   H     H_    0.035966 0.814892 0.208200 0.123536
H52   H     H_    0.022202 0.747837 0.658277 -0.037846
O1    O     O_2   0.873950 0.434950 0.324050 -0.444591
O2    O     O_3   0.690796 0.734171 0.657549 -0.539813
O3    O     O_3   0.069602 0.788392 0.331126 -0.617786
O4    O     O_2   0.315750 0.565080 0.676000 -0.462662
O5    O     O_3   0.067310 0.556770 0.587020 -0.494744
O6    O     O_3   0.526830 0.394180 0.626670 -0.488081
O7    O     O_3   0.240404 0.707861 0.680408 -0.581598
O8    O     O_3   0.609740 0.386310 0.459940 -0.447166
O9    O     O_3   0.104690 0.343880 0.589170 -0.495177
O10   O     O_2   0.194848 0.185202 0.540387 -0.433108
O11   O     O_3   0.125647 0.212788 0.672836 -0.597835
O12   O     O_3   0.122400 0.443310 0.412980 -0.495221
O13   O     O_3   0.579970 0.613770 0.540070 -0.510037
O14   O     O_2   0.337870 0.272490 0.457870 -0.450721
O15   O     O_3   0.471300 0.218565 0.341320 -0.612444
O16   O     O_2   0.462464 0.458085 0.757362 -0.517390
O17   O     O_3   0.475190 0.283138 0.728131 -0.580864
O18   O     O_3   0.662890 0.605900 0.373340 -0.451246
O19   O     O_2   0.728146 0.562694 0.239475 -0.442866
O20   O     O_3   0.977753 0.288977 0.307403 -0.612171
O21   O     O_3   0.706763 0.732411 0.281966 -0.557837
O22   O     O_2   0.851830 0.727540 0.542170 -0.440467
O23   O     O_3   0.085020 0.656200 0.410840 -0.487545
O24   O     O_2   0.000949 0.815083 0.463585 -0.435861
P1    P     P_3+3 0.041310 0.408750 0.334260 1.079249
P2    P     P_3+3 0.676060 0.715830 0.563200 1.096316
P3    P     P_3+3 0.127824 0.772765 0.415611 0.998356
P4    P     P_3+3 0.148400 0.591330 0.665750 0.997841
P5    P     P_3+3 0.068369 0.227943 0.588284 0.990467
P6    P     P_3+3 0.620668 0.621498 0.287546 1.053878
P7    P     P_3+3 0.518262 0.268573 0.433656 1.013134
P8    P     P_3+3 0.564129 0.390552 0.715352 0.927975
S1    S     S_3+6 0.248777 0.826008 0.841829 -0.013273
O25   O     O_2   0.270808 0.928412 0.864929 -0.236260
O26   O     O_2   0.206870 0.785649 0.905350 -0.251054
O27   O     O_3   0.425718 0.797197 0.811586 -0.517079
H53   H     H_    0.509265 0.824280 0.852221 0.362462
Cl1   Cl    Cl    0.756745 0.112683 0.329229 -0.768544
Cl2   Cl    Cl    0.030285 0.085646 0.400264 -0.751631
S2    S     S_3+6 0.044507 0.089455 0.249710 0.028565
O28   O     O_2   0.225982 0.089657 0.258561 -0.263555
O29   O     O_2   0.954882 0.992379 0.224274 -0.230400
O30   O     O_3   0.009683 0.148607 0.188088 -0.481312
H54   H     H_    0.068474 0.123045 0.146178 0.373709
S3    S     S_3+6 0.468760 0.350211 0.278560 -0.130641
O31   O     O_2   0.296578 0.306830 0.248214 -0.375286
O32   O     O_2   0.466812 0.420001 0.346818 -0.339950
O33   O     O_3   0.569800 0.397352 0.217855 -0.566946
H55   H     H_    0.483762 0.417716 0.191497 0.328098
S4    S     S_3+6 0.292548 0.813735 0.154686 -0.056258
O34   O     O_2   0.459016 0.801165 0.180410 -0.333846
O35   O     O_2   0.252212 0.760350 0.078543 -0.249144
O36   O     O_3   0.296662 0.925310 0.158420 -0.430825
H56   H     H_    0.389837 0.943563 0.129978 0.381879
Cl3   Cl    Cl    0.842901 0.909585 0.664126 -0.615746
S5    S     S_3+6 0.237970 0.876356 0.678310 -0.021516
O37   O     O_2   0.192112 0.880314 0.602888 -0.290920
O38   O     O_2   0.191016 0.957098 0.728788 -0.283210
O39   O     O_3   0.443346 0.882088 0.687533 -0.471196
H57   H     H_    0.482805 0.931616 0.730482 0.380172

loop_
_geom_bond_atom_site_label_1
_geom_bond_atom_site_label_2
_ccdc_geom_bond_type
O39   H57   S    
C45   S1    S    
C25   H38   S    
S3    O31   D    
C6    H23   S    
C55   O20   S    
C1    H8    S    
C45   H2    S    
S1    O25   D    
Ba2   O6    S    
C37   H44   S    
O17   P8    S    
C42   H45   S    
C56   Cl2   S    
O23   P3    S    
C3    C4    S    
O21   P6    S    
O36   H56   S    
C6    H22   S    
O7    P4    S    
C26   C27   A    
C33   C35   A    
C35   C36   A    
C22   C24   A    
Ba1   Ba2   S    
O6    P8    S    
C22   H36   S    
C57   H6    S    
C45   H3    S    
C36   C37   A    
C19   H34   S    
C12   O3    S    
O14   P7    D    
C34   S5    S    
C53   P3    S    
C34   C45   S    
C16   C17   A    
C3    H14   S    
C34   O7    S    
C7    H25   S    
O15   P7    S    
Ba2   O4    S    
C31   C37   A    
S5    O39   S    
C8    H26   S    
C8    H29   S    
C14   C15   A    
C38   C54   A    
C44   H48   S    
C44   C53   A    
C34   H52   S    
C10   P4    S    
C27   C28   A    
C7    C8    S    
C23   H49   S    
C18   C32   S    
C26   H40   S    
S5    O38   D    
C50   H46   S    
C57   C58   S    
S3    O32   D    
C38   P5    S    
C11   H31   S    
C3    O15   S    
O8    P7    S    
Ba1   O1    S    
O24   P3    D    
O18   P6    S    
C54   H50   S    
S1    O26   D    
Ba2   O5    S    
C56   S2    S    
S4    O35   D    
C51   C53   A    
C9    C18   A    
C8    H27   S    
C20   C29   S    
C28   C32   A    
C49   C50   A    
C30   C33   A    
O9    P5    S    
O12   P1    S    
C12   H39   S    
O27   H53   S    
Ba1   O18   S    
C5    O11   S    
Ba2   O8    S    
C4    H17   S    
Ba1   O5    S    
C7    H24   S    
C58   H11   S    
C47   C49   A    
O20   P1    S    
C43   C44   A    
C2    H1    S    
C6    H21   S    
C46   P7    S    
C15   P6    S    
C40   C43   A    
C17   C21   A    
C41   C42   A    
C36   H43   S    
S4    O36   S    
C57   H7    S    
C29   C30   A    
C15   C21   A    
S2    O30   S    
C58   H10   S    
C23   S4    S    
C17   P1    S    
O11   P5    S    
C31   C32   A    
C24   C25   A    
C48   C52   A    
C4    H16   S    
O16   P8    D    
O19   P6    D    
Ba2   O14   S    
C38   C39   A    
O3    P3    S    
C14   H32   S    
S3    O33   S    
Ba2   O12   S    
C11   C13   A    
C39   C42   A    
O1    P1    D    
O5    P4    S    
C40   C41   A    
C1    C2    S    
C39   C48   A    
C2    H12   S    
S1    O27   S    
Ba1   P1    S    
C50   C51   A    
C55   H4    S    
C5    H19   S    
S4    O34   D    
S2    O29   D    
Ba2   O9    S    
C46   C54   A    
S5    O37   D    
C14   C20   A    
C11   C18   A    
C16   C20   A    
C55   H5    S    
C33   H41   S    
O22   P2    D    
C9    C10   A    
C51   C52   A    
C7    O17   S    
O13   P2    S    
C3    S3    S    
Ba1   O13   S    
Ba2   P4    S    
O33   H55   S    
Ba1   O12   S    
C12   H28   S    
C27   C29   A    
C40   C52   A    
C41   Cl3   S    
C9    H30   S    
C55   C56   S    
C35   H42   S    
C58   H9    S    
C57   O2    S    
C46   C47   A    
C10   C19   A    
C43   P2    S    
C21   H35   S    
O2    P2    S    
C12   C23   S    
C30   C31   A    
C1    H13   S    
C22   C28   A    
C5    C6    S    
C23   H51   S    
C24   H37   S    
C13   P8    S    
Ba2   O13   S    
C56   Cl1   S    
C13   C19   A    
S2    O28   D    
C49   H47   S    
C47   C48   A    
O30   H54   S    
C16   H33   S    
C5    H20   S    
O10   P5    D    
O4    P4    D    
Ba1   O23   S    
C1    H18   S    
Ba1   O8    S    
Ba1   P2    S    
Ba1   O22   S    
C2    O21   S    
C25   C26   A    
C4    H15   S    
