data_mof_unit_44077.cif
_audit_creation_date              2012-12-11T15:14:42-0500
_audit_creation_method            fapswitch 2.2
_symmetry_space_group_name_H-M    P1
_symmetry_Int_Tables_number       1
_space_group_crystal_system       triclinic
_cell_length_a                    22.334696
_cell_length_b                    7.230717
_cell_length_c                    19.298101
_cell_angle_alpha                 90.000013
_cell_angle_beta                  98.624541
_cell_angle_gamma                 90.001173
_cell_volume                      3081.32218481

loop_
_atom_site_label
_atom_site_type_symbol
_atom_type_description
_atom_site_fract_x
_atom_site_fract_y
_atom_site_fract_z
_atom_type_partial_charge
O1    O     O_R   0.448470 0.506130 0.415700 -0.533584
O2    O     O_R   0.551530 0.006130 0.584300 -0.533583
O3    O     O_R   0.436320 0.174490 0.555800 -0.535678
O4    O     O_R   0.563680 0.674490 0.444200 -0.535675
C1    C     C_R   0.421200 0.344127 0.575187 0.710419
C2    C     C_R   0.578799 0.844129 0.424813 0.710422
O5    O     O_R   0.441350 0.176340 0.414480 -0.534470
O6    O     O_R   0.558650 0.676340 0.585520 -0.534471
O7    O     O_R   0.556600 0.007100 0.441970 -0.533502
O8    O     O_R   0.443400 0.507100 0.558030 -0.533496
C3    C     C_R   0.427243 0.344685 0.389510 0.675561
C4    C     C_R   0.572756 0.844688 0.610489 0.675572
O9    O     O_3   0.537810 0.339550 0.509190 -0.373705
O10   O     O_3   0.462190 0.839550 0.490810 -0.373704
V1    V     V_3+5 0.492990 0.064280 0.498300 1.417266
V2    V     V_3+5 0.507010 0.564280 0.501700 1.417263
C5    C     C_R   0.861183 0.035313 0.702055 -0.168491
C6    C     C_R   0.138831 0.535481 0.297931 -0.168488
H1    H     H_    0.946504 0.072463 0.766692 0.129825
H2    H     H_    0.053515 0.572669 0.233292 0.129834
H3    H     H_    0.781156 0.036570 0.586616 0.118142
H4    H     H_    0.218860 0.536764 0.413365 0.118147
H5    H     H_    0.878293 0.089151 0.656388 0.122469
H6    H     H_    0.121729 0.589410 0.343591 0.122466
C7    C     C_R   0.881591 0.946794 0.824400 -0.111191
C8    C     C_R   0.118410 0.446812 0.175600 -0.111214
C9    C     C_R   0.587306 0.811001 0.738108 -0.155710
C10   C     C_R   0.412685 0.310907 0.261894 -0.155703
C11   C     C_R   0.621909 0.818471 0.803974 -0.153430
C12   C     C_R   0.378079 0.318318 0.196028 -0.153437
C13   C     C_R   0.683553 0.857425 0.811180 -0.106764
C14   C     C_R   0.316438 0.357289 0.188820 -0.106771
C15   C     C_R   0.713379 0.883774 0.752299 0.096609
C16   C     C_R   0.286618 0.383725 0.247700 0.096622
C17   C     C_R   0.676340 0.890324 0.684900 0.060200
C18   C     C_R   0.323660 0.390329 0.315096 0.060203
C19   C     C_R   0.777697 0.916505 0.758367 -0.011606
C20   C     C_R   0.222302 0.416496 0.241633 -0.011605
C21   C     C_R   0.800624 0.981309 0.697879 0.087773
C22   C     C_R   0.199384 0.481402 0.302112 0.087779
C23   C     C_R   0.763188 0.991119 0.632942 -0.173238
C24   C     C_R   0.236822 0.491245 0.367045 -0.173243
C25   C     C_R   0.702590 0.940904 0.626067 -0.190971
C26   C     C_R   0.297416 0.440981 0.373924 -0.190980
C27   C     C_R   0.820094 0.886583 0.821368 0.395057
C28   C     C_R   0.179900 0.386536 0.178638 0.395052
C29   C     C_R   0.900343 0.024211 0.764904 -0.228663
C30   C     C_R   0.099669 0.524348 0.235085 -0.228626
C31   C     C_R   0.613282 0.850320 0.678321 -0.075568
C32   C     C_R   0.386716 0.350300 0.321678 -0.075580
H7    H     H_    0.539412 0.779946 0.733849 0.106134
H8    H     H_    0.460577 0.279832 0.266155 0.106138
H9    H     H_    0.705668 0.876615 0.863706 0.153288
H10   H     H_    0.294319 0.376428 0.136292 0.153281
H11   H     H_    0.600561 0.796912 0.850130 0.118590
H12   H     H_    0.399423 0.296702 0.149874 0.118591
H13   H     H_    0.675902 0.948360 0.574439 0.111274
H14   H     H_    0.324107 0.448467 0.425549 0.111291
C33   C     C_3   0.771351 0.777346 0.302461 -0.179408
C34   C     C_3   0.228660 0.277295 0.697562 -0.179387
C35   C     C_3   0.803644 0.961197 0.288769 -0.149282
C36   C     C_3   0.196350 0.461129 0.711231 -0.149282
H15   H     H_    0.846622 0.012862 0.318932 0.105322
H16   H     H_    0.153365 0.512727 0.681065 0.105322
H17   H     H_    0.788842 0.676500 0.343839 0.117780
H18   H     H_    0.211172 0.176399 0.656201 0.117759
C37   C     C_1   0.876217 0.942684 0.122568 -0.189701
C38   C     C_1   0.123788 0.442690 0.877438 -0.189702
C39   C     C_1   0.624942 0.852260 0.379388 -0.183938
C40   C     C_1   0.375057 0.352255 0.620611 -0.183933
C41   C     C_3   0.760782 0.736489 0.222619 -0.128978
C42   C     C_3   0.239240 0.236517 0.777409 -0.128986
C43   C     C_3   0.792331 0.919838 0.209432 0.155083
C44   C     C_3   0.207674 0.419849 0.790574 0.155083
C45   C     C_3   0.699134 0.839206 0.215055 -0.155772
C46   C     C_3   0.300878 0.339299 0.784952 -0.155771
C47   C     C_3   0.710065 0.879486 0.294340 0.154347
C48   C     C_3   0.289936 0.379499 0.705661 0.154353
C49   C     C_3   0.731209 0.023257 0.201281 -0.180862
C50   C     C_3   0.268786 0.523335 0.798703 -0.180857
C51   C     C_3   0.741877 0.061492 0.281044 0.126413
C52   C     C_3   0.258107 0.561490 0.718935 0.126394
C53   C     C_1   0.838315 0.934435 0.161592 -0.059415
C54   C     C_1   0.161690 0.434444 0.838414 -0.059419
C55   C     C_1   0.663313 0.861659 0.341072 -0.074766
C56   C     C_1   0.336687 0.361659 0.658928 -0.074736
H19   H     H_    0.715037 0.125856 0.159890 0.108344
H20   H     H_    0.284951 0.625985 0.840079 0.108343
H21   H     H_    0.656103 0.787896 0.184909 0.112597
H22   H     H_    0.343916 0.288055 0.815102 0.112595
H23   H     H_    0.768790 0.601706 0.198022 0.107380
H24   H     H_    0.231250 0.101742 0.802024 0.107383
O11   O     O_R   0.056650 0.288730 0.942060 -0.538612
O12   O     O_R   0.943350 0.788730 0.057940 -0.538597
O13   O     O_R   0.058660 0.616870 0.085540 -0.540121
O14   O     O_R   0.941340 0.116870 0.914460 -0.540127
C57   C     C_R   0.073583 0.448790 0.110317 0.702323
C58   C     C_R   0.926418 0.948787 0.889683 0.702341
O15   O     O_R   0.063700 0.618520 0.944220 -0.534323
O16   O     O_R   0.936300 0.118520 0.055780 -0.534325
O17   O     O_R   0.948460 0.787610 0.915680 -0.525092
O18   O     O_R   0.051540 0.287610 0.084320 -0.525097
C59   C     C_R   0.078096 0.450549 0.923596 0.690987
C60   C     C_R   0.921907 0.950548 0.076408 0.690981
O19   O     O_3   0.962230 0.453430 0.990860 -0.370863
O20   O     O_3   0.037770 0.953430 0.009140 -0.370872
V3    V     V_3+5 0.007010 0.728750 0.001700 1.439179
V4    V     V_3+5 0.992990 0.228750 0.998300 1.439149
C61   C     C_3   0.728873 0.245773 0.314863 -0.369328
C62   C     C_3   0.749920 0.243695 0.394499 -0.315125
C63   C     C_3   0.717158 0.389653 0.431983 -0.738957
H25   H     H_    0.724431 0.529528 0.411363 0.226417
H26   H     H_    0.667789 0.360135 0.424875 0.237800
H27   H     H_    0.734775 0.387404 0.488934 0.211510
H28   H     H_    0.741304 0.106777 0.417137 0.200780
H29   H     H_    0.799504 0.269515 0.405166 0.182481
H30   H     H_    0.752481 0.358355 0.290735 0.163725
H31   H     H_    0.679335 0.271852 0.303198 0.184062
C64   C     C_3   0.271086 0.745761 0.685088 -0.369333
C65   C     C_3   0.250046 0.743575 0.605452 -0.315106
C66   C     C_3   0.282767 0.889598 0.567949 -0.739017
H32   H     H_    0.275436 0.029482 0.588526 0.226378
H33   H     H_    0.332143 0.860250 0.575081 0.237815
H34   H     H_    0.265164 0.887218 0.510997 0.211512
H35   H     H_    0.258706 0.606662 0.582836 0.200776
H36   H     H_    0.200454 0.769253 0.594774 0.182491
H37   H     H_    0.247455 0.858333 0.709193 0.163735
H38   H     H_    0.320619 0.771923 0.696754 0.184065
O21   O     O_3   0.803961 0.768637 0.872301 -0.555632
C67   C     C_3   0.810209 0.853785 0.938878 -0.284074
H39   H     H_    0.813946 0.007595 0.937876 0.107922
H40   H     H_    0.849373 0.791973 0.972199 0.176801
H41   H     H_    0.770298 0.818853 0.964296 0.146959
O22   O     O_3   0.196021 0.268502 0.127725 -0.555619
C68   C     C_3   0.189785 0.353563 0.061131 -0.284066
H42   H     H_    0.186065 0.507379 0.062108 0.107882
H43   H     H_    0.150612 0.291753 0.027821 0.176853
H44   H     H_    0.229697 0.318552 0.035721 0.146943

loop_
_geom_bond_atom_site_label_1
_geom_bond_atom_site_label_2
_ccdc_geom_bond_type
O17   V3    S    
C68   H44   S    
O15   C59   A    
C27   O21   S    
C62   H29   S    
C9    C11   A    
C63   H25   S    
O1    C3    A    
C38   C59   S    
C42   C46   S    
O2    C4    A    
C33   C47   S    
C2    O7    A    
C49   H19   S    
C4    C31   S    
C61   H30   S    
C68   H42   S    
C21   C23   A    
C37   C53   T    
C34   C48   S    
C5    H5    S    
C6    H6    S    
C20   C22   A    
C46   C48   S    
O11   V4    S    
C42   H24   S    
H1    C29   S    
O20   V3    S    
C34   C42   S    
O16   C60   A    
C34   C36   S    
C5    C21   A    
C35   H15   S    
C6    C22   A    
C62   C63   S    
C66   H34   S    
C36   H16   S    
C10   C32   A    
C26   H14   S    
O14   C58   A    
C17   C31   A    
C13   C15   A    
O18   V4    S    
C12   C14   A    
C17   C25   A    
C7    C29   A    
C2    C39   S    
C16   C18   A    
C57   O18   A    
C8    C30   A    
C64   H38   S    
C48   C56   S    
C22   C24   A    
C36   C52   S    
O12   C60   A    
O6    V2    S    
C44   C50   S    
C11   C13   A    
C23   C25   A    
O11   C59   A    
C24   C26   A    
C52   C64   S    
C14   H10   S    
C9    H7    S    
C37   C60   S    
O5    C3    A    
O19   V4    S    
O12   V3    S    
O16   V4    S    
C33   C35   S    
C38   C54   T    
C46   C50   S    
C42   C44   S    
C49   C51   S    
C8    C28   A    
C65   H35   S    
C11   H11   S    
C35   C43   S    
C12   H12   S    
C15   C19   A    
C14   C16   A    
O4    V2    S    
C67   H40   S    
C1    C40   S    
C39   C55   T    
C28   O22   S    
C48   C52   S    
C47   C51   S    
O6    C4    A    
C43   C49   S    
C63   H26   S    
O1    V2    S    
C13   H9    S    
O2    V1    S    
C45   C47   S    
C66   H32   S    
H2    C30   S    
O13   V3    S    
C34   H18   S    
H3    C23   S    
O4    C2    A    
C51   C61   S    
C18   C26   A    
C67   H41   S    
C19   C27   A    
C40   C56   T    
C7    C27   A    
C66   H33   S    
C18   C32   A    
C65   C66   S    
C41   C43   S    
O21   C67   S    
C68   H43   S    
C16   C20   A    
C5    C29   A    
C44   C54   S    
O3    C1    A    
C6    C30   A    
C64   C65   S    
O13   C57   A    
O22   C68   S    
C61   H31   S    
C58   O17   A    
O15   V3    S    
C10   C12   A    
C67   H39   S    
O7    V1    S    
C1    O8    A    
C50   H20   S    
C3    C32   S    
O8    V2    S    
C61   C62   S    
C33   H17   S    
C41   C45   S    
C10   H8    S    
H4    C24   S    
O5    V1    S    
C15   C17   A    
C50   C52   S    
C63   H27   S    
C65   H36   S    
C45   H21   S    
O14   V4    S    
C20   C28   A    
C25   H13   S    
C8    C57   S    
C47   C55   S    
C7    C58   S    
C41   H23   S    
C19   C21   A    
O9    V2    S    
C46   H22   S    
O10   V1    S    
C36   C44   S    
O3    V1    S    
C35   C51   S    
C45   C49   S    
C62   H28   S    
C43   C53   S    
C9    C31   A    
C33   C41   S    
C64   H37   S    
