data_mof_unit_24984.cif
_audit_creation_date              2012-12-10T18:09:50-0500
_audit_creation_method            fapswitch 2.2
_symmetry_space_group_name_H-M    P1
_symmetry_Int_Tables_number       1
_space_group_crystal_system       triclinic
_cell_length_a                    10.663436
_cell_length_b                    12.710005
_cell_length_c                    12.978434
_cell_angle_alpha                 82.415399
_cell_angle_beta                  92.154229
_cell_angle_gamma                 101.733439
_cell_volume                      1707.06934208

loop_
_atom_site_label
_atom_site_type_symbol
_atom_type_description
_atom_site_fract_x
_atom_site_fract_y
_atom_site_fract_z
_atom_type_partial_charge
C1    C     C_R   0.476017 0.439937 0.691494 0.894338
C2    C     C_R   0.412470 0.455398 0.972604 0.056413
C3    C     C_R   0.410513 0.479478 0.863991 -0.064382
C4    C     C_R   0.741208 0.500336 0.498153 0.935049
C5    C     C_R   0.419944 0.541367 0.032929 -0.073607
C6    C     C_R   0.446378 0.649946 0.985097 -0.048943
C7    C     C_R   0.415426 0.670096 0.879157 0.532986
C8    C     C_R   0.386916 0.582082 0.821754 -0.255585
C9    C     C_R   0.412275 0.523041 0.140042 0.264853
C10   C     C_R   0.536445 0.703978 0.150032 0.214547
C11   C     C_R   0.440213 0.404031 0.801540 -0.185289
C12   C     C_3   0.120947 0.500501 0.499005 -0.030858
C13   C     C_R   0.297557 0.090144 0.359281 0.395217
C14   C     C_R   0.656084 0.799511 0.629566 -0.127771
C15   C     C_R   0.687051 0.903201 0.660238 0.456422
C16   C     C_R   0.508384 0.560623 0.308214 1.041947
C17   C     C_R   0.624954 0.983328 0.611918 -0.130806
C18   C     C_R   0.531562 0.961389 0.533227 -0.120994
C19   C     C_R   0.501400 0.854440 0.505866 0.190738
C20   C     C_R   0.467253 0.041824 0.480747 -0.017743
C21   C     C_R   0.364438 0.012522 0.410328 -0.005243
C22   C     C_R   0.330116 0.906826 0.391522 -0.317314
C23   C     C_3   0.089736 0.587979 0.412016 -0.438478
C24   C     C_R   0.404061 0.831948 0.428558 0.529810
C25   C     C_R   0.500694 0.151346 0.494546 0.025292
C26   C     C_R   0.332067 0.194629 0.381742 0.023209
C27   C     C_R   0.258138 0.499816 0.500024 0.885973
C28   C     C_3   0.901255 0.388308 0.468040 0.241655
C29   C     C_3   0.044286 0.388318 0.475130 -0.478904
C30   C     C_3   0.947954 0.596421 0.419860 0.315849
C31   C     C_3   0.932030 0.510619 0.607432 -0.584600
C32   C     C_3   0.877197 0.498991 0.496131 -0.065128
C33   C     C_3   0.078707 0.523366 0.606837 0.230137
C34   C     C_R   0.503073 0.733152 0.044749 0.419422
C35   C     C_R   0.487673 0.597452 0.198304 -0.282294
C36   C     C_R   0.449364 0.298358 0.847624 0.325800
C37   C     C_R   0.431758 0.270042 0.956051 0.376106
C38   C     C_R   0.422054 0.349915 0.017289 -0.125894
Cl1   Cl    Cl    0.838131 0.354258 0.343343 -0.540361
Cl2   Cl    Cl    0.149640 0.657061 0.637171 -0.654021
Cl3   Cl    Cl    0.641515 0.799044 0.217584 -0.508716
Cl4   Cl    Cl    0.279913 0.427502 0.196188 -0.619517
H1    H     H_    0.946628 0.671963 0.454304 0.195261
H2    H     H_    0.650188 0.061510 0.639192 0.168162
H3    H     H_    0.061811 0.323940 0.537831 0.174392
H4    H     H_    0.077576 0.368190 0.401157 0.270930
H5    H     H_    0.112104 0.567419 0.334956 0.204052
H6    H     H_    0.904341 0.580589 0.637675 0.244840
H7    H     H_    0.890229 0.437610 0.661813 0.170475
H8    H     H_    0.108059 0.464338 0.669581 0.119257
H9    H     H_    0.393520 0.773413 0.758074 0.347817
H10   H     H_    0.553068 0.888894 0.049690 0.382671
H11   H     H_    0.528222 0.176502 0.830109 0.355932
H12   H     H_    0.149613 0.668528 0.420478 0.223907
H13   H     H_    0.398128 0.114283 0.955949 0.362690
H14   H     H_    0.226547 0.022212 0.239907 0.354635
H15   H     H_    0.810904 0.863104 0.763779 0.348488
H16   H     H_    0.333449 0.746051 0.317623 0.312067
H17   H     H_    0.917066 0.563188 0.275529 0.391468
H18   H     H_    0.426260 0.328336 0.100504 0.225265
H19   H     H_    0.852431 0.321342 0.526025 0.132210
H20   H     H_    0.354392 0.596418 0.742649 0.212350
H21   H     H_    0.279675 0.255162 0.348098 0.210015
H22   H     H_    0.248315 0.881340 0.342355 0.167944
H23   H     H_    0.578727 0.183089 0.544044 0.144866
H24   H     H_    0.702594 0.735769 0.666027 0.146740
N1    N     N_R   0.433240 0.222190 0.444680 -0.151509
N2    N     N_R   0.566070 0.776970 0.554790 -0.126371
O1    O     O_R   0.468120 0.366740 0.627160 -0.552116
O2    O     O_3   0.534889 0.838577 0.996594 -0.650929
O3    O     O_3   0.482618 0.227192 0.786654 -0.746741
O4    O     O_3   0.429615 0.166772 0.005696 -0.729787
O5    O     O_3   0.199734 0.067594 0.288047 -0.704904
O6    O     O_3   0.776577 0.928583 0.737256 -0.709489
O7    O     O_3   0.382039 0.738932 0.384176 -0.718777
O8    O     O_3   0.885599 0.607350 0.322356 -0.707697
O9    O     O_R   0.510770 0.544830 0.662520 -0.650536
O10   O     O_R   0.663880 0.410950 0.482330 -0.598043
O11   O     O_R   0.706530 0.589040 0.517700 -0.619066
O12   O     O_R   0.489230 0.455170 0.337480 -0.578350
O13   O     O_R   0.531880 0.633260 0.372840 -0.500174
O14   O     O_R   0.293470 0.410960 0.482300 -0.638581
O15   O     O_R   0.336120 0.589050 0.517670 -0.538727
O16   O     O_3   0.413528 0.774273 0.833245 -0.671420
Zn1   Zn    Zn3+2 0.471520 0.381090 0.476390 1.022209
Zn2   Zn    Zn3+2 0.528480 0.618910 0.523610 1.025260

loop_
_geom_bond_atom_site_label_1
_geom_bond_atom_site_label_2
_ccdc_geom_bond_type
C12   C29   S    
N2    Zn2   S    
C25   N1    A    
C7    C8    A    
C4    O10   A    
C12   C23   S    
C9    Cl4   S    
C37   C38   A    
C26   N1    A    
C36   C37   A    
C16   C35   S    
C5    C6    A    
C20   C25   A    
C1    O9    A    
C18   C19   A    
C1    C11   S    
C31   C33   S    
C10   C35   A    
C34   O2    S    
H13   O4    S    
C36   O3    S    
C28   H19   S    
C7    O16   S    
C21   C22   A    
C10   Cl3   S    
C31   H7    S    
H16   O7    S    
N1    Zn1   S    
C33   Cl2   S    
C23   H5    S    
C12   C27   S    
C23   C30   S    
C28   C32   S    
C3    C11   A    
C4    O11   A    
C3    C8    A    
C28   Cl1   S    
C33   H8    S    
C1    O1    A    
C6    C34   A    
C29   H3    S    
C16   O12   A    
C11   C36   A    
H15   O6    S    
C26   H21   S    
C5    C9    A    
O12   Zn1   S    
C30   O8    S    
C2    C38   A    
C31   C32   S    
O15   Zn2   S    
C17   C18   A    
C14   H24   S    
C13   C21   A    
C19   N2    A    
C10   C34   A    
C4    C32   S    
C38   H18   S    
O10   Zn1   S    
C13   O5    S    
O9    Zn2   S    
C31   H6    S    
C22   C24   A    
C13   C26   A    
C2    C5    A    
H11   O3    S    
O1    Zn1   S    
C23   H12   S    
C15   C17   A    
C28   C29   S    
H14   O5    S    
C27   O14   A    
O13   Zn2   S    
C24   O7    S    
C6    C7    A    
O14   Zn1   S    
C29   H4    S    
C27   O15   A    
C2    C3    A    
C17   H2    S    
C30   C32   S    
H17   O8    S    
C16   O13   A    
C19   C24   A    
C18   C20   A    
C30   H1    S    
H10   O2    S    
C22   H22   S    
C15   O6    S    
C20   C21   A    
C37   O4    S    
C9    C35   A    
C25   H23   S    
C14   N2    A    
C14   C15   A    
C12   C33   S    
H9    O16   S    
O11   Zn2   S    
C8    H20   S    
