data_mof_unit_21599.cif
_audit_creation_date              2013-03-05T15:48:55-0500
_audit_creation_method            fapswitch 2.2
_symmetry_space_group_name_H-M    P1
_symmetry_Int_Tables_number       1
_space_group_crystal_system       triclinic
_cell_length_a                    6.943611
_cell_length_b                    13.449882
_cell_length_c                    20.14043
_cell_angle_alpha                 104.106916
_cell_angle_beta                  90.242732
_cell_angle_gamma                 90.326274
_cell_volume                      1824.14563167

loop_
_atom_site_label
_atom_site_type_symbol
_atom_site_description
_atom_site_fract_x
_atom_site_fract_y
_atom_site_fract_z
_atom_type_partial_charge
O1    O     O_R   0.506780 0.600060 0.449950 -0.595825
O2    O     O_R   0.179840 0.597110 0.589410 -0.602554
O3    O     O_R   0.004570 0.399940 0.550050 -0.586118
C1    C     C_R   0.348676 0.619400 0.616756 0.910770
O4    O     O_R   0.177380 0.612160 0.452890 -0.597798
O5    O     O_R   0.002100 0.415100 0.412560 -0.593612
C2    C     C_R   0.346165 0.639334 0.436448 0.953094
O6    O     O_R   0.509250 0.584900 0.587440 -0.597999
O7    O     O_3   0.337570 0.435330 0.486930 -0.259306
V1    V     V_3+5 0.064650 0.512000 0.502430 1.175260
O8    O     O_R   0.672090 0.402890 0.410590 -0.596317
C3    C     C_R   0.840268 0.381290 0.383067 0.936568
O9    O     O_R   0.674540 0.387840 0.547110 -0.585125
C4    C     C_R   0.843315 0.360718 0.563474 0.946740
V2    V     V_3+5 0.564040 0.488000 0.497570 1.184831
O10   O     O_3   0.840990 0.564670 0.513070 -0.281158
C5    C     C_R   0.869440 0.105814 0.607758 -0.110352
H1    H     H_    0.863344 0.155350 0.514237 0.145340
H2    H     H_    0.882770 0.979649 0.690294 0.128451
H3    H     H_    0.877142 0.025591 0.580994 0.131124
C6    C     C_R   0.851787 0.283028 0.602920 -0.128222
C7    C     C_R   0.850811 0.319743 0.932498 -0.170134
C8    C     C_R   0.842570 0.396575 0.897396 0.014379
C9    C     C_R   0.844449 0.372128 0.826082 -0.178852
C10   C     C_R   0.854628 0.268832 0.787672 0.085133
C11   C     C_R   0.862720 0.190330 0.824112 0.106904
C12   C     C_R   0.856999 0.240833 0.714487 0.098028
C13   C     C_R   0.867171 0.135388 0.679624 0.158572
C14   C     C_R   0.874989 0.060113 0.716551 -0.234406
C15   C     C_R   0.872861 0.086926 0.787578 -0.223521
C16   C     C_R   0.849605 0.313717 0.674414 -0.241948
C17   C     C_R   0.861664 0.179295 0.569645 -0.060142
C18   C     C_R   0.860675 0.216994 0.896655 -0.173696
H4    H     H_    0.841937 0.394945 0.696839 0.103193
H5    H     H_    0.849446 0.340482 0.987947 0.106904
H6    H     H_    0.837721 0.436110 0.802836 0.116411
H7    H     H_    0.834702 0.475980 0.925705 0.153897
H8    H     H_    0.879229 0.025475 0.813648 0.124324
C19   C     C_3   0.686570 0.199375 0.235636 -0.127183
C20   C     C_3   0.821478 0.193820 0.296325 -0.091269
H9    H     H_    0.793146 0.148529 0.334595 0.134085
H10   H     H_    0.547371 0.157726 0.223526 0.119795
C21   C     C_3   0.848426 0.311215 0.312571 -0.121449
C22   C     C_3   0.712252 0.317739 0.252899 -0.166933
C23   C     C_3   0.888731 0.303667 0.205809 0.228343
C24   C     C_3   0.025847 0.299481 0.265148 -0.130440
C25   C     C_3   0.998189 0.181142 0.247944 -0.117109
C26   C     C_3   0.863349 0.187342 0.187945 -0.190095
H11   H     H_    0.595580 0.374471 0.254811 0.111448
H12   H     H_    0.164930 0.341436 0.276728 0.115657
H13   H     H_    0.115047 0.124452 0.245710 0.124903
C27   C     C_3   0.538766 0.729819 0.728826 -0.144390
C28   C     C_3   0.449713 0.838347 0.749169 -0.147145
H14   H     H_    0.526344 0.911052 0.749235 0.120355
H15   H     H_    0.689127 0.712370 0.711484 0.120352
C29   C     C_3   0.357238 0.811717 0.812118 -0.096338
C30   C     C_3   0.446509 0.704001 0.792519 -0.069941
C31   C     C_3   0.263431 0.663432 0.750112 -0.117568
C32   C     C_3   0.174327 0.771965 0.770388 -0.103112
C33   C     C_3   0.266731 0.797680 0.706615 -0.125171
C34   C     C_3   0.355929 0.689927 0.687195 -0.092844
H16   H     H_    0.522278 0.664690 0.827344 0.168103
H17   H     H_    0.186801 0.590750 0.750131 0.116677
H18   H     H_    0.023995 0.789568 0.787717 0.115592
H19   H     H_    0.192999 0.836008 0.670701 0.108601
C35   C     C_R   0.354989 0.896270 0.393249 0.374007
H20   H     H_    0.348817 0.843542 0.486050 0.147062
H21   H     H_    0.385961 0.021067 0.306538 0.169786
C36   C     C_R   0.354699 0.717519 0.397194 -0.133035
C37   C     C_R   0.349962 0.676425 0.066710 0.366671
C38   C     C_R   0.344630 0.601390 0.103813 -0.206497
C39   C     C_R   0.350443 0.627561 0.174921 -0.265411
C40   C     C_R   0.357471 0.731134 0.212493 0.149180
C41   C     C_R   0.363193 0.808435 0.175161 0.083856
C42   C     C_R   0.358128 0.760273 0.285824 0.080125
C43   C     C_R   0.360741 0.866339 0.320556 -0.000159
C44   C     C_R   0.373537 0.940217 0.282181 -0.172252
C45   C     C_R   0.373686 0.912033 0.211203 -0.220262
C46   C     C_R   0.355872 0.687298 0.325897 -0.241807
C47   C     C_R   0.354159 0.821130 0.430615 -0.292386
C48   C     C_R   0.359951 0.780830 0.102343 -0.362632
H22   H     H_    0.354557 0.605928 0.303674 0.099825
H23   H     H_    0.348773 0.564004 0.198563 0.139158
H24   H     H_    0.338904 0.521003 0.077292 0.169913
H25   H     H_    0.382197 0.973036 0.184804 0.110647
O11   O     O_R   0.203580 0.914920 0.912610 -0.600693
O12   O     O_R   0.535710 0.887810 0.047120 -0.573617
O13   O     O_R   0.710730 0.084950 0.087430 -0.603339
C49   C     C_R   0.367169 0.860648 0.063692 1.049508
O14   O     O_R   0.533010 0.902850 0.910600 -0.588215
O15   O     O_R   0.708010 0.100090 0.949930 -0.597927
C50   C     C_R   0.364295 0.881363 0.882938 0.982833
O16   O     O_R   0.206300 0.899780 0.050100 -0.599063
O17   O     O_3   0.375170 0.064580 0.013100 -0.286518
V3    V     V_3+5 0.648200 0.988020 0.997570 1.193807
O18   O     O_R   0.038030 0.112330 0.952840 -0.593525
C51   C     C_R   0.869255 0.138947 0.936159 0.924408
O19   O     O_R   0.040730 0.097300 0.089360 -0.599945
C52   C     C_R   0.872454 0.118151 0.117117 0.920198
V4    V     V_3+5 0.148780 0.012220 0.002360 1.179522
O20   O     O_3   0.871930 0.935430 0.986900 -0.263357
N1    N     N_2   0.923921 0.361984 0.155425 -0.117228
H26   H     H_    0.836107 0.339768 0.112932 0.147384
C53   C     C_3   0.929619 0.471875 0.182382 -0.918793
H27   H     H_    0.973435 0.509178 0.141300 0.265775
H28   H     H_    0.035408 0.493050 0.225095 0.246077
H29   H     H_    0.784907 0.500492 0.200951 0.247490
N2    N     N_R   0.344530 0.002084 0.430005 0.222705
O21   O     O_R   0.211210 0.060582 0.414757 -0.441713
O22   O     O_R   0.442315 0.034367 0.486504 -0.421718
N3    N     N_R   0.345942 0.644964 0.993072 0.218467
O23   O     O_R   0.255375 0.561375 0.962175 -0.430410
O24   O     O_R   0.452358 0.691510 0.956913 -0.463657

loop_
_geom_bond_atom_site_label_1
_geom_bond_atom_site_label_2
_geom_bond_distance
_ccdc_geom_bond_type
C22   H11   1.110399 S    
C20   C25   1.554235 S    
C40   C41   1.424319 A    
N3    O23   1.301640 A    
C1    O6    1.298072 A    
C53   H28   1.110660 S    
O14   V3    2.004918 S    
C44   C45   1.386758 A    
C29   C30   1.540294 S    
C7    H5    1.083206 S    
C6    C16   1.398023 A    
C32   H18   1.110458 S    
C9    H6    1.076374 S    
C4    C6    1.459946 S    
C13   C14   1.395884 A    
C3    C21   1.502134 S    
C27   C34   1.538369 S    
O5    C3    1.295827 A    
C28   C29   1.540648 S    
V2    O10   2.162010 S    
H21   C44   1.081264 S    
C5    H3    1.083991 S    
N2    O21   1.301528 A    
C15   H8    1.082836 S    
C26   C52   1.503086 S    
C37   C48   1.413839 A    
O8    V2    1.996376 S    
C20   C21   1.542549 S    
O12   V3    2.018142 S    
C8    C9    1.393277 A    
C37   C38   1.394880 A    
O1    V2    2.014398 S    
O11   V4    1.995800 S    
O7    V1    2.149976 S    
C27   H15   1.110415 S    
C48   C49   1.472435 S    
C31   C34   1.539368 S    
O13   V3    2.000083 S    
C32   C33   1.549834 S    
O9    C4    1.294321 A    
C40   C42   1.432710 A    
O17   V3    2.150007 S    
C53   H27   1.109805 S    
C28   C33   1.549946 S    
C19   H10   1.110284 S    
C6    C17   1.395026 A    
C12   C16   1.414528 A    
O13   C52   1.294746 A    
C30   H16   1.108646 S    
C9    C10   1.418207 A    
C27   C30   1.548582 S    
C19   C20   1.553295 S    
O4    C2    1.293905 A    
C25   H13   1.110148 S    
C10   C11   1.426422 A    
C8    H7    1.082938 S    
C1    C34   1.502615 S    
O15   C51   1.292382 A    
C33   C34   1.540424 S    
O2    C1    1.295228 A    
C42   C43   1.427552 A    
C2    C36   1.462634 S    
C14   C15   1.387585 A    
C11   C18   1.417138 A    
O14   C50   1.295537 A    
C25   C26   1.544083 S    
O17   V4    1.709990 S    
C35   C43   1.421459 A    
O18   C51   1.294011 A    
C16   H4    1.077374 S    
N3    O24   1.299914 A    
C27   C28   1.549780 S    
C43   C44   1.402324 A    
N1    C53   1.445290 S    
O16   V4    2.020771 S    
O3    C4    1.292466 A    
C45   H25   1.082474 S    
C20   H9    1.110246 S    
C33   H19   1.110268 S    
C11   C15   1.408304 A    
O6    V2    1.995253 S    
O19   V4    1.996527 S    
O12   C49   1.293177 A    
C21   C22   1.545588 S    
C36   C46   1.393864 A    
H1    C17   1.083592 S    
C41   C48   1.422473 A    
O2    V1    2.004779 S    
C22   C23   1.536839 S    
C38   H24   1.083370 S    
C23   C26   1.526526 S    
C31   H17   1.110404 S    
C7    C18   1.396716 A    
C24   C25   1.554787 S    
O1    C2    1.292639 A    
C5    C13   1.404658 A    
H20   C47   1.084070 S    
C35   N2    1.437642 S    
C39   C40   1.414436 A    
O5    V1    2.000090 S    
C46   H22   1.076671 S    
O8    C3    1.298532 A    
C28   H14   1.110321 S    
C19   C22   1.553549 S    
C10   C12   1.429819 A    
C35   C47   1.399438 A    
C24   H12   1.110496 S    
C37   N3    1.439805 S    
C29   C32   1.539305 S    
O9    V2    2.014821 S    
O7    V2    1.712027 S    
O4    V1    2.018124 S    
O3    V1    2.016530 S    
O11   C50   1.298488 A    
C30   C31   1.548857 S    
O18   V4    2.014690 S    
V4    O20   2.162082 S    
N2    O22   1.301400 A    
C18   C51   1.464898 S    
C49   O16   1.293839 A    
N1    H26   1.030707 S    
C21   C24   1.547104 S    
C31   C32   1.549928 S    
C39   H23   1.075156 S    
C23   N1    1.446567 S    
O15   V3    2.016527 S    
C23   C24   1.536777 S    
C38   C39   1.389321 A    
O19   C52   1.299723 A    
C41   C45   1.406801 A    
C12   C13   1.423202 A    
C5    C17   1.392466 A    
C7    C8    1.388327 A    
C36   C47   1.392097 A    
V1    O10   1.703215 S    
C29   C50   1.503972 S    
C42   C46   1.414604 A    
C53   H29   1.111351 S    
V3    O20   1.703258 S    
C19   C26   1.546601 S    
H2    C14   1.084310 S    
