data_mof_unit_13798.cif
_audit_creation_date              2012-12-10T16:50:59-0500
_audit_creation_method            fapswitch 2.2
_symmetry_space_group_name_H-M    P1
_symmetry_Int_Tables_number       1
_space_group_crystal_system       triclinic
_cell_length_a                    7.824454
_cell_length_b                    8.574662
_cell_length_c                    10.509821
_cell_angle_alpha                 90.416163
_cell_angle_beta                  87.82164
_cell_angle_gamma                 93.033519
_cell_volume                      703.618765263

loop_
_atom_site_label
_atom_site_type_symbol
_atom_type_description
_atom_site_fract_x
_atom_site_fract_y
_atom_site_fract_z
_atom_type_partial_charge
C1    C     C_R   0.545144 0.794303 0.496668 0.950992
C2    C     C_R   0.987719 0.593264 0.086651 0.422260
C3    C     C_R   0.090830 0.731879 0.066531 -0.307072
C4    C     C_R   0.002726 0.567285 0.954348 -0.251849
C5    C     C_R   0.248751 0.733046 0.128799 0.459657
C6    C     C_R   0.849798 0.522445 0.888729 0.420816
C7    C     C_R   0.382995 0.654981 0.069240 0.083962
C8    C     C_R   0.686736 0.565099 0.940110 0.082493
C9    C     C_R   0.388280 0.640347 0.936254 -0.098233
C10   C     C_R   0.678812 0.603948 0.069814 -0.082460
C11   C     C_R   0.519636 0.604455 0.135230 -0.149129
C12   C     C_R   0.454873 0.205768 0.501493 0.964761
C13   C     C_R   0.529279 0.568696 0.873669 -0.155772
C14   C     C_3   0.052045 0.976992 0.872090 0.081915
C15   C     C_3   0.048131 0.046227 0.739609 -0.788609
C16   C     C_3   0.976718 0.329224 0.153469 0.102396
C17   C     C_3   0.108394 0.207904 0.171937 -0.883385
C18   C     C_2   0.569191 0.957643 0.495656 -0.348253
C19   C     C_2   0.431286 0.042417 0.497638 -0.359162
C20   C     C_R   0.508563 0.515348 0.741141 0.909490
C21   C     C_R   0.503673 0.536987 0.264654 0.943589
C22   C     C_R   0.253535 0.704435 0.871158 -0.254527
C23   C     C_R   0.828165 0.630665 0.136282 -0.189695
C24   C     C_R   0.089122 0.716486 0.930887 0.421110
H1    H     H_    0.088992 0.472910 0.934887 0.145274
H2    H     H_    0.967371 0.043390 0.937310 0.172911
H3    H     H_    0.913614 0.058245 0.712545 0.266804
H4    H     H_    0.117268 0.162591 0.737357 0.219536
H5    H     H_    0.111360 0.968442 0.669815 0.239050
H6    H     H_    0.915730 0.303877 0.061394 0.142870
H7    H     H_    0.875184 0.314369 0.229272 0.184167
H8    H     H_    0.176229 0.230436 0.261567 0.277061
H9    H     H_    0.043112 0.090218 0.177243 0.196359
H10   H     H_    0.203713 0.211603 0.090825 0.248665
H11   H     H_    0.155950 0.833414 0.281398 0.322942
H12   H     H_    0.031439 0.838465 0.097929 0.102138
H13   H     H_    0.971449 0.397153 0.763926 0.330226
H14   H     H_    0.273757 0.747055 0.774759 0.201666
H15   H     H_    0.824475 0.684757 0.230097 0.173645
H16   H     H_    0.699934 0.007633 0.495556 0.170948
H17   H     H_    0.301031 0.992258 0.495434 0.178571
H18   H     H_    0.011411 0.373577 0.415072 0.209800
H19   H     H_    0.989029 0.623452 0.589179 0.208239
H20   H     H_    0.185015 0.993303 0.906314 0.131519
N1    N     N_2   0.950330 0.457950 0.466250 -0.163814
N2    N     N_2   0.049670 0.542050 0.533750 -0.177883
O1    O     O_R   0.389250 0.738570 0.508280 -0.603526
O2    O     O_3   0.059038 0.480709 0.162340 -0.594033
O3    O     O_3   0.267616 0.796757 0.248996 -0.767544
O4    O     O_3   0.855712 0.397309 0.805658 -0.775917
O5    O     O_R   0.610750 0.261430 0.491720 -0.606044
O6    O     O_R   0.678390 0.711630 0.486650 -0.657382
O7    O     O_R   0.321610 0.288370 0.513350 -0.642465
O8    O     O_R   0.355430 0.513480 0.694040 -0.648848
O9    O     O_R   0.644570 0.486520 0.305960 -0.658443
O10   O     O_R   0.644570 0.486540 0.672410 -0.547254
O11   O     O_R   0.355430 0.513460 0.327590 -0.538752
O12   O     O_3   0.987897 0.818986 0.867734 -0.618624
Zn1   Zn    Zn3+2 0.306940 0.517990 0.514440 0.952351
Zn2   Zn    Zn3+2 0.693060 0.482010 0.485560 0.950493

loop_
_geom_bond_atom_site_label_1
_geom_bond_atom_site_label_2
_ccdc_geom_bond_type
H11   O3    S    
C2    C4    A    
N1    Zn2   S    
C21   O11   A    
C8    C13   A    
C15   H5    S    
N2    Zn1   S    
C15   H3    S    
C12   O7    A    
C20   O10   A    
C16   O2    S    
C4    H1    S    
C3    C24   A    
C19   H17   S    
N1    N2    D    
C6    O4    S    
C16   H7    S    
C7    C11   A    
H13   O4    S    
C5    O3    S    
C15   H4    S    
C17   H9    S    
C3    H12   S    
C23   H15   S    
C6    C8    A    
C12   C19   S    
C20   O8    A    
C1    O6    A    
C2    C3    A    
C5    C7    A    
O8    Zn1   S    
O7    Zn1   S    
C4    C24   A    
H19   N2    S    
C22   C24   A    
C9    C22   A    
O11   Zn1   S    
C4    C6    A    
C10   C11   A    
O1    Zn1   S    
C22   H14   S    
C24   O12   S    
C7    C9    A    
C12   O5    A    
C18   H16   S    
C14   H20   S    
C18   C19   D    
C17   H10   S    
C2    C23   A    
C21   O9    A    
C17   H8    S    
C1    C18   S    
C14   C15   S    
C1    O1    A    
C10   C23   A    
C9    C13   A    
O5    Zn2   S    
O6    Zn2   S    
C13   C20   S    
C2    O2    S    
O9    Zn2   S    
C16   H6    S    
C11   C21   S    
C8    C10   A    
C14   H2    S    
O10   Zn2   S    
C14   O12   S    
C16   C17   S    
C3    C5    A    
H18   N1    S    
