data_mof_unit_7707.cif
_audit_creation_date              2012-12-10T18:19:13-0500
_audit_creation_method            fapswitch 2.2
_symmetry_space_group_name_H-M    P1
_symmetry_Int_Tables_number       1
_space_group_crystal_system       triclinic
_cell_length_a                    14.897534
_cell_length_b                    14.158799
_cell_length_c                    11.492713
_cell_angle_alpha                 91.500802
_cell_angle_beta                  88.473275
_cell_angle_gamma                 90.284641
_cell_volume                      2422.45764531

loop_
_atom_site_label
_atom_site_type_symbol
_atom_type_description
_atom_site_fract_x
_atom_site_fract_y
_atom_site_fract_z
_atom_type_partial_charge
C1    C     C_R   0.327331 0.499619 0.498032 0.903727
C2    C     C_R   0.443377 0.203702 0.575897 0.497897
C3    C     C_R   0.431027 0.799172 0.555770 0.480335
C4    C     C_R   0.555680 0.198784 0.424575 0.541471
C5    C     C_R   0.434747 0.900392 0.567053 -0.223800
C6    C     C_R   0.564952 0.099521 0.435305 -0.180257
C7    C     C_R   0.565171 0.898739 0.435890 -0.220455
C8    C     C_R   0.436077 0.102665 0.568843 -0.229792
C9    C     C_R   0.499431 0.949896 0.500513 -0.110096
C10   C     C_R   0.500181 0.050615 0.501596 -0.128335
C11   C     C_R   0.374996 0.953712 0.640604 0.393710
C12   C     C_R   0.672639 0.500165 0.499055 0.894249
C13   C     C_R   0.634644 0.048815 0.375987 0.409719
C14   C     C_R   0.629099 0.948680 0.366634 0.366778
C15   C     C_R   0.368143 0.052174 0.628820 0.366403
C16   C     C_R   0.500730 0.499105 0.282019 0.891865
C17   C     C_R   0.500980 0.501117 0.717912 0.896977
C18   C     C_1   0.503425 0.498096 0.161421 -0.212814
C19   C     C_1   0.504379 0.503353 0.838274 -0.206365
C20   C     C_1   0.505525 0.499985 0.059128 -0.017479
C21   C     C_1   0.506127 0.502790 0.940520 -0.012686
C22   C     C_R   0.815136 0.519064 0.395283 0.030333
C23   C     C_R   0.908595 0.531887 0.397201 0.076430
C24   C     C_R   0.184888 0.486739 0.604134 -0.009058
C25   C     C_R   0.768165 0.501745 0.499227 -0.090618
C26   C     C_R   0.231574 0.499740 0.498851 -0.082280
C27   C     C_R   0.809714 0.494868 0.605483 0.014651
C28   C     C_R   0.189602 0.522320 0.396882 0.006673
C29   C     C_R   0.902949 0.509149 0.610236 -0.075735
C30   C     C_R   0.096740 0.538963 0.400493 -0.044174
C31   C     C_R   0.952803 0.522273 0.504597 -0.085295
C32   C     C_R   0.047119 0.521618 0.505394 -0.062939
C33   C     C_3   0.883501 0.614716 0.848071 0.057793
C34   C     C_R   0.091428 0.499719 0.609786 0.041619
C35   C     C_3   0.965683 0.671426 0.888402 -0.348867
C36   C     C_3   0.940779 0.773656 0.918833 -0.992058
C37   C     C_3   0.125776 0.702737 0.236613 0.059194
C38   C     C_3   0.049713 0.775299 0.235268 -0.376992
C39   C     C_3   0.083641 0.874372 0.266482 -0.976553
C40   C     C_3   0.714490 0.773848 0.505013 0.175113
C41   C     C_3   0.808240 0.773561 0.447438 -0.317450
C42   C     C_3   0.881034 0.778682 0.537864 -1.030368
C43   C     C_3   0.412859 0.241374 0.770396 0.187395
C44   C     C_3   0.328996 0.252700 0.851245 -0.307422
C45   C     C_R   0.948326 0.509017 0.716571 0.479387
C46   C     C_3   0.331790 0.341444 0.929393 -0.955038
C47   C     C_3   0.279680 0.764428 0.552760 0.181351
C48   C     C_3   0.201870 0.742224 0.637676 -0.294605
C49   C     C_3   0.111587 0.766933 0.587976 -1.018406
C50   C     C_3   0.534449 0.242090 0.236743 0.124860
C51   C     C_3   0.540331 0.153015 0.157910 -0.436594
C52   C     C_3   0.476268 0.158105 0.057311 -0.991361
C53   C     C_3   0.348805 0.926685 0.834815 0.116791
C54   C     C_3   0.398367 0.839681 0.875929 -0.310309
C55   C     C_3   0.423186 0.850816 0.003589 -1.025001
C56   C     C_R   0.051428 0.570461 0.302145 0.418868
C57   C     C_3   0.750437 0.089130 0.242524 0.180779
C58   C     C_3   0.847241 0.053421 0.242057 -0.328797
C59   C     C_3   0.890467 0.055638 0.120180 -0.992617
C60   C     C_3   0.643593 0.864544 0.194926 0.103891
C61   C     C_3   0.711543 0.816121 0.111597 -0.325402
C62   C     C_3   0.666512 0.775056 0.003648 -0.978096
C63   C     C_3   0.223716 0.090365 0.595919 0.123502
C64   C     C_3   0.145361 0.152799 0.637938 -0.335769
C65   C     C_3   0.065843 0.142560 0.557425 -0.950379
C66   C     C_R   0.040615 0.495324 0.716062 0.011784
C67   C     C_R   0.958735 0.557395 0.296437 0.015729
C68   C     C_R   0.570300 0.798913 0.450050 0.474784
H1    H     H_    0.732404 0.458958 0.275875 0.195177
H2    H     H_    0.852747 0.649036 0.772789 0.118562
H3    H     H_    0.994329 0.638390 0.965595 0.246487
H4    H     H_    0.018141 0.671640 0.818335 0.214800
H5    H     H_    0.909741 0.807149 0.843444 0.273910
H6    H     H_    0.002148 0.814240 0.941352 0.271640
H7    H     H_    0.893063 0.776482 0.994644 0.262711
H8    H     H_    0.177458 0.722786 0.170162 0.166119
H9    H     H_    0.159576 0.706586 0.321644 0.123858
H10   H     H_    0.020981 0.775720 0.147307 0.233346
H11   H     H_    0.995819 0.756226 0.298877 0.216756
H12   H     H_    0.721180 0.578006 0.294075 0.209501
H13   H     H_    0.114646 0.875591 0.353303 0.260985
H14   H     H_    0.026533 0.924473 0.269421 0.271904
H15   H     H_    0.134019 0.897822 0.200211 0.262510
H16   H     H_    0.126550 0.533759 0.845049 0.201268
H17   H     H_    0.107768 0.413315 0.828426 0.214481
H18   H     H_    0.923954 0.641807 0.164363 0.189923
H19   H     H_    0.947010 0.528046 0.123678 0.231967
H20   H     H_    0.711379 0.720340 0.573940 0.149412
H21   H     H_    0.705211 0.844285 0.549670 0.102450
H22   H     H_    0.817582 0.709267 0.391709 0.230790
H23   H     H_    0.266528 0.397572 0.685960 0.243129
H24   H     H_    0.816562 0.835387 0.391056 0.254786
H25   H     H_    0.869920 0.839841 0.598964 0.273869
H26   H     H_    0.946924 0.787774 0.492866 0.283924
H27   H     H_    0.881984 0.712623 0.587373 0.270920
H28   H     H_    0.466302 0.291581 0.796981 0.153958
H29   H     H_    0.441213 0.169951 0.784031 0.072270
H30   H     H_    0.267338 0.255076 0.799466 0.252374
H31   H     H_    0.322136 0.190209 0.907370 0.196737
H32   H     H_    0.388176 0.338090 0.990106 0.266136
H33   H     H_    0.268155 0.347477 0.981535 0.261847
H34   H     H_    0.281363 0.513799 0.722713 0.177268
H35   H     H_    0.339622 0.405220 0.876301 0.277902
H36   H     H_    0.274924 0.717884 0.474009 0.124363
H37   H     H_    0.271676 0.838005 0.522902 0.108666
H38   H     H_    0.202874 0.666551 0.658452 0.212193
H39   H     H_    0.209207 0.782233 0.721068 0.260366
H40   H     H_    0.109149 0.843248 0.568343 0.269209
H41   H     H_    0.057180 0.751546 0.652325 0.279021
H42   H     H_    0.099653 0.724263 0.507817 0.267842
H43   H     H_    0.552629 0.302643 0.181283 0.179078
H44   H     H_    0.463384 0.252989 0.267487 0.137939
H45   H     H_    0.786573 0.408908 0.743893 0.234340
H46   H     H_    0.608999 0.146716 0.119816 0.215921
H47   H     H_    0.522867 0.089187 0.207569 0.205744
H48   H     H_    0.406192 0.167932 0.090672 0.272893
H49   H     H_    0.479805 0.091544 0.004200 0.257993
H50   H     H_    0.496026 0.217443 0.000790 0.265162
H51   H     H_    0.288546 0.938700 0.892233 0.160535
H52   H     H_    0.392159 0.990798 0.845311 0.111649
H53   H     H_    0.354846 0.776201 0.865209 0.243633
H54   H     H_    0.460590 0.828799 0.821824 0.222905
H55   H     H_    0.469485 0.911765 0.015752 0.262581
H56   H     H_    0.745211 0.522007 0.762542 0.196042
H57   H     H_    0.457150 0.785849 0.031311 0.277956
H58   H     H_    0.361950 0.861870 0.059469 0.264216
H59   H     H_    0.751146 0.161502 0.207397 0.164304
H60   H     H_    0.710349 0.044321 0.182746 0.113410
H61   H     H_    0.887354 0.098571 0.302040 0.231589
H62   H     H_    0.848423 0.979938 0.273350 0.241800
H63   H     H_    0.851830 0.010977 0.058266 0.265251
H64   H     H_    0.960075 0.028264 0.122172 0.271707
H65   H     H_    0.893025 0.129212 0.088960 0.271932
H66   H     H_    0.610401 0.922558 0.148717 0.099960
H67   H     H_    0.207544 0.477239 0.226818 0.228454
H68   H     H_    0.591485 0.811730 0.219763 0.172551
H69   H     H_    0.763267 0.868306 0.084292 0.215300
H70   H     H_    0.745401 0.758354 0.157067 0.234525
H71   H     H_    0.617368 0.719375 0.028502 0.276389
H72   H     H_    0.718023 0.743117 0.943444 0.257029
H73   H     H_    0.631614 0.831482 0.957273 0.269923
H74   H     H_    0.199885 0.015746 0.588888 0.148323
H75   H     H_    0.246436 0.114164 0.508029 0.127110
H76   H     H_    0.123696 0.132901 0.727339 0.224849
H77   H     H_    0.167418 0.227925 0.640428 0.228948
H78   H     H_    0.257292 0.584213 0.260622 0.199911
H79   H     H_    0.085715 0.163494 0.467845 0.265090
H80   H     H_    0.010367 0.189108 0.589954 0.274311
H81   H     H_    0.041227 0.068344 0.554991 0.263840
H82   H     H_    0.832080 0.616900 0.919846 0.174135
N1    N     N_R   0.500000 0.750030 0.500000 -0.185612
N2    N     N_R   0.500000 0.249970 0.500000 -0.200779
N3    N     N_3   0.767295 0.522554 0.288290 -0.435648
N4    N     N_3   0.233689 0.461365 0.704518 -0.501514
N5    N     N_3   0.755898 0.465416 0.704046 -0.451005
N6    N     N_3   0.241862 0.516807 0.289685 -0.464096
N7    N     N_3   0.079521 0.480680 0.827125 -0.413757
N8    N     N_3   0.916079 0.571506 0.187701 -0.418993
O1    O     O_R   0.367850 0.580280 0.500030 -0.602046
O2    O     O_3   0.095944 0.609877 0.207303 -0.666219
O3    O     O_3   0.649027 0.751716 0.420319 -0.598504
O4    O     O_3   0.389645 0.257046 0.653019 -0.591086
O5    O     O_3   0.362049 0.748722 0.608746 -0.593884
O6    O     O_3   0.595922 0.241913 0.329727 -0.608786
O7    O     O_3   0.318637 0.910016 0.720199 -0.637437
O8    O     O_3   0.716107 0.095793 0.358300 -0.609560
O9    O     O_3   0.689148 0.900283 0.293506 -0.649684
O10   O     O_3   0.293676 0.098113 0.676389 -0.631623
O11   O     O_R   0.632150 0.419720 0.499970 -0.578689
O12   O     O_R   0.632150 0.580280 0.499970 -0.606277
O13   O     O_R   0.367850 0.419720 0.500030 -0.591266
O14   O     O_R   0.500010 0.580270 0.334450 -0.604804
O15   O     O_R   0.499990 0.419730 0.665550 -0.601974
O16   O     O_R   0.499990 0.580270 0.665550 -0.596073
O17   O     O_R   0.500010 0.419730 0.334450 -0.625026
O18   O     O_3   0.903900 0.518256 0.823853 -0.640369
Zn1   Zn    Zn3+2 0.500000 0.607200 0.500000 0.983226
Zn2   Zn    Zn3+2 0.500000 0.392800 0.500000 0.997119

loop_
_geom_bond_atom_site_label_1
_geom_bond_atom_site_label_2
_ccdc_geom_bond_type
O14   Zn1   S    
C40   C41   S    
C64   H77   S    
C27   C29   A    
C42   H25   S    
C41   C42   S    
C35   C36   S    
C34   C66   A    
C57   H60   S    
C13   O8    S    
C53   H52   S    
H12   N3    S    
C53   C54   S    
C59   H63   S    
C37   O2    S    
C19   C21   T    
O1    Zn1   S    
C5    C11   A    
C33   H82   S    
C38   C39   S    
C8    C10   A    
C44   H31   S    
C61   H70   S    
N1    Zn1   S    
C48   H39   S    
C38   H11   S    
C58   H61   S    
C23   C67   A    
C33   O18   S    
C17   C19   S    
C7    C68   A    
C44   H30   S    
C7    C14   A    
C48   H38   S    
C55   H57   S    
C17   O15   A    
C47   H37   S    
C22   C25   A    
C24   C34   A    
C4    O6    S    
O13   Zn2   S    
C62   H71   S    
C65   H79   S    
C9    C10   A    
C60   H68   S    
C3    O5    S    
C47   O5    S    
C52   H49   S    
C41   H22   S    
C54   H54   S    
C35   H3    S    
C13   C14   A    
C27   N5    S    
C2    O4    S    
H17   N7    S    
H45   N5    S    
C44   C46   S    
C50   C51   S    
C49   H40   S    
C52   H48   S    
C2    N2    A    
C4    N2    A    
C46   H33   S    
C55   H55   S    
C59   H64   S    
C60   O9    S    
O12   Zn1   S    
C50   O6    S    
C51   C52   S    
C51   H46   S    
C1    O1    A    
C39   H13   S    
H23   N4    S    
C4    C6    A    
C36   H5    S    
C45   O18   S    
O17   Zn2   S    
C12   O12   A    
C57   O8    S    
C38   H10   S    
C58   C59   S    
C68   O3    S    
C30   C56   A    
C59   H65   S    
H1    N3    S    
H67   N6    S    
C42   H27   S    
C29   C45   A    
C60   C61   S    
C32   C34   A    
C43   C44   S    
C5    C9    A    
C37   C38   S    
C36   H7    S    
C16   O14   A    
C47   C48   S    
C55   H58   S    
C50   H44   S    
C43   H28   S    
C65   H80   S    
H18   N8    S    
O16   Zn1   S    
C36   H6    S    
C33   H2    S    
C16   O17   A    
C53   O7    S    
C48   C49   S    
C54   H53   S    
C35   H4    S    
C8    C15   A    
C11   C15   A    
C1    C26   S    
C40   H21   S    
C15   O10   S    
C62   H73   S    
C60   H66   S    
O11   Zn2   S    
C17   O16   A    
C49   H41   S    
C7    C9    A    
C46   H32   S    
C54   C55   S    
C63   O10   S    
C47   H36   S    
C42   H26   S    
C26   C28   A    
C37   H8    S    
C31   C32   A    
C2    C8    A    
C43   H29   S    
C39   H14   S    
C24   C26   A    
C3    C5    A    
C57   H59   S    
H16   N7    S    
C53   H51   S    
C24   N4    S    
C12   O11   A    
C25   C27   A    
C56   C67   A    
C64   H76   S    
C46   H35   S    
C3    N1    A    
H19   N8    S    
C12   C25   S    
C56   O2    S    
C64   C65   S    
C40   H20   S    
C28   C30   A    
C39   H15   S    
C40   O3    S    
C29   C31   A    
C68   N1    A    
H34   N4    S    
C6    C13   A    
C30   C32   A    
C61   H69   S    
C57   C58   S    
C37   H9    S    
O15   Zn2   S    
C58   H62   S    
C50   H43   S    
C33   C35   S    
C63   H74   S    
C1    O13   A    
C67   N8    S    
C18   C20   T    
N2    Zn2   S    
C61   C62   S    
C51   H47   S    
C6    C10   A    
C63   C64   S    
C43   O4    S    
C41   H24   S    
H78   N6    S    
C20   C21   S    
C16   C18   S    
H56   N5    S    
C45   C66   A    
C28   N6    S    
C65   H81   S    
C63   H75   S    
C22   C23   A    
C11   O7    S    
C62   H72   S    
C14   O9    S    
C66   N7    S    
C23   C31   A    
C49   H42   S    
C22   N3    S    
C52   H50   S    
