data_mof_unit_68465.cif
_audit_creation_date              2012-12-10T16:48:11-0500
_audit_creation_method            fapswitch 2.2
_symmetry_space_group_name_H-M    P1
_symmetry_Int_Tables_number       1
_space_group_crystal_system       triclinic
_cell_length_a                    15.822306
_cell_length_b                    8.82947
_cell_length_c                    7.558632
_cell_angle_alpha                 101.58924
_cell_angle_beta                  97.734066
_cell_angle_gamma                 94.415513
_cell_volume                      1019.11988722

loop_
_atom_site_label
_atom_site_type_symbol
_atom_type_description
_atom_site_fract_x
_atom_site_fract_y
_atom_site_fract_z
_atom_type_partial_charge
C1    C     C_R   0.495225 0.201120 0.456335 0.843292
C2    C     C_R   0.503894 0.798898 0.544310 0.821982
C3    C     C_R   0.339575 0.493343 0.495403 0.789261
C4    C     C_R   0.660492 0.506749 0.504423 0.803264
C5    C     C_2   0.475712 0.036195 0.441352 -0.098336
C6    C     C_2   0.519628 0.964661 0.563584 -0.110379
C7    C     C_3   0.962927 0.374873 0.548539 0.198996
C8    C     C_3   0.036013 0.615138 0.441115 0.206818
C9    C     C_3   0.998637 0.363741 0.367975 0.196707
C10   C     C_3   0.001000 0.626482 0.623910 0.182028
C11   C     C_1   0.248553 0.476461 0.481766 -0.208134
C12   C     C_1   0.751561 0.519880 0.516181 -0.189456
C13   C     C_3   0.043898 0.480177 0.655377 0.188761
C14   C     C_3   0.955470 0.508740 0.336947 0.203375
C15   C     C_3   0.080250 0.469632 0.473336 -0.103003
C16   C     C_3   0.919666 0.520300 0.518842 -0.108548
C17   C     C_1   0.171939 0.465819 0.470801 -0.005633
C18   C     C_1   0.828065 0.527018 0.524053 -0.018384
Cu1   Cu    Cu3+1 0.509330 0.517380 0.684380 0.962083
Cu2   Cu    Cu3+1 0.490670 0.482620 0.315620 0.959850
N1    N     N_2   0.476600 0.456420 0.038510 0.028386
N2    N     N_2   0.523400 0.543580 0.961490 0.031920
O1    O     O_R   0.506070 0.286130 0.619780 -0.566944
O2    O     O_R   0.493930 0.713870 0.380220 -0.579451
O3    O     O_R   0.490300 0.256770 0.308360 -0.608959
O4    O     O_R   0.509700 0.743230 0.691640 -0.607349
O5    O     O_R   0.386960 0.514660 0.655680 -0.560200
O6    O     O_R   0.613040 0.485340 0.344320 -0.558780
O7    O     O_R   0.371190 0.485310 0.344260 -0.594678
O8    O     O_R   0.628810 0.514690 0.655740 -0.585753
N3    N     N_2   0.002153 0.223447 0.233169 -0.428367
H1    H     H_    0.038240 0.241789 0.134166 0.254879
C19   C     C_3   0.921099 0.129492 0.162320 -0.740634
H2    H     H_    0.926507 0.046371 0.034027 0.228857
H3    H     H_    0.869557 0.203428 0.134726 0.253330
H4    H     H_    0.903229 0.061125 0.261775 0.243306
N4    N     N_2   0.997923 0.770265 0.753421 -0.421489
H5    H     H_    0.963948 0.759098 0.857547 0.245056
C20   C     C_3   0.075878 0.876423 0.805790 -0.733450
H6    H     H_    0.072360 0.961206 0.933929 0.229604
H7    H     H_    0.084662 0.941128 0.698282 0.245067
H8    H     H_    0.133430 0.815231 0.823588 0.237359
N5    N     N_2   0.914766 0.251120 0.603620 -0.434217
H9    H     H_    0.858673 0.208173 0.515553 0.255865
C21   C     C_3   0.963259 0.132890 0.658409 -0.722130
H10   H     H_    0.920140 0.024556 0.645318 0.244857
H11   H     H_    0.993241 0.171071 0.802977 0.242488
H12   H     H_    0.014205 0.110697 0.572890 0.244530
N6    N     N_2   0.080732 0.737543 0.376586 -0.424243
H13   H     H_    0.138278 0.784301 0.457168 0.254286
C22   C     C_3   0.028729 0.849837 0.315743 -0.711097
H14   H     H_    0.068190 0.962830 0.334990 0.241344
H15   H     H_    0.973578 0.865034 0.391464 0.241555
H16   H     H_    0.003999 0.810965 0.168769 0.240778
N7    N     N_2   0.897488 0.530195 0.180642 -0.435521
H17   H     H_    0.871284 0.634456 0.203052 0.250306
C23   C     C_3   0.925780 0.492403 0.006381 -0.657254
H18   H     H_    0.877345 0.519451 0.900110 0.225122
H19   H     H_    0.933436 0.367706 0.970601 0.276420
H20   H     H_    0.987135 0.560990 0.011099 0.264412
N8    N     N_2   0.091262 0.439891 0.815243 -0.427169
H21   H     H_    0.114762 0.333647 0.784067 0.256280
C24   C     C_3   0.154427 0.555469 0.934025 -0.718294
H22   H     H_    0.188280 0.503226 0.041689 0.233273
H23   H     H_    0.122800 0.651896 0.005376 0.263893
H24   H     H_    0.202370 0.598395 0.856129 0.228764
C25   C     C_3   0.397217 0.959919 0.300812 -0.419192
C26   C     C_3   0.317678 0.045829 0.331733 -0.356926
C27   C     C_3   0.241322 0.975581 0.185522 -0.890012
H25   H     H_    0.258015 0.975128 0.047279 0.254309
H26   H     H_    0.221502 0.854976 0.196363 0.272604
H27   H     H_    0.187065 0.046532 0.204914 0.250380
H28   H     H_    0.300706 0.039567 0.468345 0.209777
H29   H     H_    0.330358 0.169951 0.326991 0.226208
H30   H     H_    0.412436 0.961651 0.161789 0.204091
H31   H     H_    0.377950 0.837852 0.304607 0.231165
C28   C     C_3   0.590157 0.046227 0.720926 -0.396667
C29   C     C_3   0.671392 0.110034 0.658497 -0.350187
C30   C     C_3   0.730005 0.212328 0.822542 -0.810070
H32   H     H_    0.697736 0.313310 0.883097 0.271630
H33   H     H_    0.746813 0.143528 0.927369 0.239854
H34   H     H_    0.789295 0.257139 0.780082 0.265998
H35   H     H_    0.705498 0.011653 0.597517 0.202299
H36   H     H_    0.656681 0.179848 0.554028 0.213764
H37   H     H_    0.564872 0.137546 0.815459 0.225209
H38   H     H_    0.611214 0.965100 0.808819 0.191548
N9    N     N_2   0.433750 0.323954 0.924402 -0.273966
H39   H     H_    0.457748 0.225451 0.954284 0.234729
C31   C     C_3   0.342164 0.312939 0.923087 -0.582758
H40   H     H_    0.310264 0.221604 0.804628 0.175835
H41   H     H_    0.317440 0.425026 0.910614 0.233075
H42   H     H_    0.325997 0.280805 0.049946 0.216476
N10   N     N_2   0.563372 0.678383 0.075651 -0.266174
H43   H     H_    0.531358 0.773293 0.059710 0.240519
C32   C     C_3   0.653455 0.705250 0.064436 -0.591314
H44   H     H_    0.683950 0.802018 0.178304 0.174083
H45   H     H_    0.662225 0.738183 0.933475 0.213479
H46   H     H_    0.685774 0.599623 0.076545 0.229728

loop_
_geom_bond_atom_site_label_1
_geom_bond_atom_site_label_2
_ccdc_geom_bond_type
N7    H17   S    
N1    N9    S    
N10   H43   S    
C32   H44   S    
C5    C25   S    
C24   H23   S    
C32   H46   S    
C20   H7    S    
C21   H10   S    
C10   N4    S    
C1    C5    S    
C27   H25   S    
C5    C6    D    
C23   H19   S    
Cu2   O3    S    
C26   H29   S    
C19   H4    S    
C7    C9    S    
N8    C24   S    
Cu1   O4    S    
C29   H35   S    
Cu1   Cu2   S    
C26   C27   S    
N6    C22   S    
N3    C19   S    
C7    N5    S    
C31   H41   S    
Cu1   O5    S    
C14   N7    S    
C24   H24   S    
C28   H37   S    
N10   C32   S    
N1    N2    D    
C1    O3    A    
C2    C6    S    
C4    O6    A    
C20   H8    S    
Cu2   O7    S    
C21   H11   S    
C27   H26   S    
C22   H14   S    
Cu2   O2    S    
Cu1   N2    S    
C30   H32   S    
C20   H6    S    
C30   H33   S    
C29   C30   S    
C23   H20   S    
Cu2   O6    S    
C26   H28   S    
C28   C29   S    
C25   C26   S    
C22   H15   S    
C27   H27   S    
Cu1   O1    S    
C9    C14   S    
N4    H5    S    
N3    H1    S    
C19   H2    S    
C13   N8    S    
C2    O4    A    
C31   H42   S    
N5    C21   S    
C8    C10   S    
C7    C16   S    
C28   H38   S    
C1    O1    A    
C8    C15   S    
C13   C15   S    
N5    H9    S    
C2    O2    A    
N2    N10   S    
C14   C16   S    
C4    C12   S    
C21   H12   S    
C15   C17   S    
C11   C17   T    
C8    C14   S    
C6    C28   S    
C10   C13   S    
C30   H34   S    
C32   H45   S    
C22   H16   S    
N7    C23   S    
C9    C15   S    
N4    C20   S    
C10   C16   S    
C3    O7    A    
C23   H18   S    
C3    O5    A    
C19   H3    S    
N8    H21   S    
C3    C11   S    
C9    N3    S    
C24   H22   S    
C29   H36   S    
C7    C13   S    
C25   H30   S    
Cu2   N1    S    
N9    H39   S    
C16   C18   S    
N6    H13   S    
C12   C18   T    
N9    C31   S    
C25   H31   S    
C31   H40   S    
Cu1   O8    S    
C8    N6    S    
C4    O8    A    
