data_mof_unit_59147.cif
_audit_creation_date              2012-12-10T21:00:36-0500
_audit_creation_method            fapswitch 2.2
_symmetry_space_group_name_H-M    P1
_symmetry_Int_Tables_number       1
_space_group_crystal_system       triclinic
_cell_length_a                    18.093204
_cell_length_b                    18.163705
_cell_length_c                    18.347342
_cell_angle_alpha                 119.942998
_cell_angle_beta                  90.034261
_cell_angle_gamma                 119.820744
_cell_volume                      4277.52855714

loop_
_atom_site_label
_atom_site_type_symbol
_atom_type_description
_atom_site_fract_x
_atom_site_fract_y
_atom_site_fract_z
_atom_type_partial_charge
C1    C     C_R   0.111392 0.220068 0.609840 0.777149
C2    C     C_3   0.450539 0.897552 0.947519 0.056179
C3    C     C_3   0.445694 0.032165 0.021754 -0.142523
C4    C     C_3   0.554306 0.967835 0.978246 -0.142521
C5    C     C_3   0.451492 0.406654 0.486366 -0.193401
C6    C     C_3   0.548507 0.593344 0.513633 -0.193404
C7    C     C_3   0.555799 0.479267 0.519575 -0.185692
C8    C     C_3   0.444200 0.520730 0.480424 -0.185707
C9    C     C_3   0.549977 0.499322 0.448617 0.075805
C10   C     C_3   0.450022 0.500676 0.551382 0.075806
C11   C     C_3   0.446465 0.426593 0.414435 -0.128527
C12   C     C_R   0.888609 0.779931 0.390160 0.777161
C13   C     C_3   0.553535 0.573405 0.585564 -0.128513
C14   C     C_R   0.184653 0.183958 0.822321 -0.103982
C15   C     C_R   0.815359 0.816036 0.177674 -0.103991
C16   C     C_R   0.392927 0.781252 0.888349 0.759828
C17   C     C_R   0.607073 0.218748 0.111650 0.759830
C18   C     C_R   0.152187 0.132952 0.730135 -0.116281
C19   C     C_R   0.847819 0.867036 0.269860 -0.116239
C20   C     C_R   0.065480 0.098777 0.689392 0.145458
C21   C     C_R   0.934529 0.901224 0.310608 0.145468
C22   C     C_R   0.011061 0.114355 0.741498 -0.128244
C23   C     C_3   0.973161 0.420564 0.416539 0.250908
C24   C     C_R   0.988958 0.885667 0.258509 -0.128278
C25   C     C_R   0.043692 0.165163 0.833621 -0.135538
C26   C     C_R   0.956334 0.834866 0.166386 -0.135554
C27   C     C_R   0.130519 0.200250 0.874030 -0.116499
C28   C     C_R   0.869503 0.799765 0.125972 -0.116494
C29   C     C_R   0.977490 0.943613 0.536864 -0.258250
C30   C     C_R   0.022515 0.056387 0.463136 -0.258253
C31   C     C_R   0.944550 0.892324 0.444729 -0.050669
C32   C     C_R   0.055454 0.107677 0.555271 -0.050669
C33   C     C_R   0.967046 0.949416 0.407219 -0.015622
C34   C     C_3   0.026839 0.579437 0.583460 0.250907
C35   C     C_R   0.032960 0.050584 0.592781 -0.015620
C36   C     C_R   0.564428 0.465500 0.714384 -0.228584
C37   C     C_R   0.435496 0.534395 0.285565 -0.228561
C38   C     C_R   0.523497 0.451014 0.775973 0.577000
C39   C     C_R   0.476445 0.548924 0.224001 0.576993
C40   C     C_R   0.111536 0.501545 0.890373 0.789120
C41   C     C_R   0.888464 0.498455 0.109627 0.789124
C42   C     C_R   0.568818 0.531008 0.867969 0.047942
C43   C     C_R   0.431162 0.468941 0.132000 0.047931
C44   C     C_R   0.651180 0.624433 0.896346 -0.227238
C45   C     C_3   0.444078 0.966117 0.925716 -0.164659
C46   C     C_R   0.348827 0.375479 0.103594 -0.227208
C47   C     C_R   0.689654 0.638167 0.834536 -0.142871
C48   C     C_R   0.310338 0.361698 0.165381 -0.142868
C49   C     C_R   0.646823 0.558546 0.743875 -0.191675
C50   C     C_R   0.353127 0.441311 0.256046 -0.191697
C51   C     C_R   0.583930 0.519535 0.994459 -0.280383
C52   C     C_R   0.416068 0.480461 0.005538 -0.280372
C53   C     C_R   0.551359 0.501959 0.057163 -0.004618
C54   C     C_R   0.448640 0.498040 0.942835 -0.004603
C55   C     C_R   0.467111 0.483107 0.063935 0.048146
C56   C     C_3   0.555921 0.033883 0.074283 -0.164658
C57   C     C_R   0.532885 0.516883 0.936058 0.048133
C58   C     C_R   0.187283 0.824807 0.999204 -0.117773
C59   C     C_R   0.812718 0.175194 0.000794 -0.117770
C60   C     C_R   0.157024 0.746368 0.012394 -0.110482
C61   C     C_R   0.842979 0.253632 0.987604 -0.110491
C62   C     C_R   0.066637 0.659675 0.969110 0.145930
C63   C     C_R   0.933365 0.340328 0.030893 0.145928
C64   C     C_R   0.392567 0.500225 0.607916 0.754065
C65   C     C_R   0.607432 0.499774 0.392083 0.754066
C66   C     C_R   0.006654 0.653640 0.914308 -0.152996
C67   C     C_3   0.548511 0.037822 0.957158 -0.184552
C68   C     C_R   0.993346 0.346366 0.085700 -0.152991
C69   C     C_R   0.037125 0.732383 0.901594 -0.125497
C70   C     C_R   0.962873 0.267624 0.098414 -0.125490
C71   C     C_R   0.127468 0.817684 0.943662 -0.114097
C72   C     C_R   0.872532 0.182320 0.056342 -0.114093
C73   C     C_R   0.977386 0.571078 0.034265 -0.263092
C74   C     C_R   0.022616 0.428925 0.965737 -0.263092
C75   C     C_R   0.943915 0.496086 0.052134 -0.052041
C76   C     C_R   0.056087 0.503916 0.947868 -0.052039
C77   C     C_R   0.966392 0.423388 0.016849 -0.008637
C78   C     C_3   0.451489 0.962177 0.042841 -0.184554
C79   C     C_R   0.033611 0.576615 0.983154 -0.008638
C80   C     C_R   0.393706 0.498942 0.887733 0.836656
C81   C     C_R   0.606294 0.501059 0.112268 0.836585
C82   C     C_R   0.109637 0.500919 0.608196 0.805972
C83   C     C_R   0.890363 0.499081 0.391803 0.805970
C84   C     C_3   0.073301 0.510614 0.473413 -0.290298
C85   C     C_3   0.926699 0.489386 0.526587 -0.290298
C86   C     C_3   0.046335 0.587604 0.505674 0.199414
C87   C     C_3   0.953665 0.412396 0.494326 0.199415
C88   C     C_3   0.947249 0.497867 0.447686 -0.154761
C89   C     C_3   0.549461 0.102448 0.052480 0.056178
C90   C     C_3   0.052752 0.502133 0.552314 -0.154762
C91   C     C_3   0.189523 0.751539 0.557672 -0.814374
C92   C     C_3   0.810477 0.248460 0.442327 -0.814372
C93   C     C_3   0.377340 0.320758 0.677913 -0.323053
C94   C     C_3   0.622590 0.679182 0.322071 -0.323030
C95   C     C_3   0.978700 0.274328 0.310083 -0.773517
C96   C     C_3   0.021300 0.725673 0.689915 -0.773512
H1    H     H_    0.155790 0.240081 0.945386 0.116494
H2    H     H_    0.998116 0.822096 0.126239 0.129257
H3    H     H_    0.960862 0.900443 0.566049 0.176836
H4    H     H_    0.039144 0.099557 0.433952 0.176838
H5    H     H_    0.678199 0.568725 0.696470 0.142683
H6    H     H_    0.321738 0.431096 0.303433 0.142687
H7    H     H_    0.533983 0.404279 0.643821 0.131509
H8    H     H_    0.465909 0.595608 0.356130 0.131519
H9    H     H_    0.685886 0.686461 0.966676 0.139789
H10   H     H_    0.314153 0.313456 0.033260 0.139789
H11   H     H_    0.133037 0.519447 0.452415 0.155241
H12   H     H_    0.844237 0.759939 0.054616 0.116478
H13   H     H_    0.866963 0.480553 0.547585 0.155239
H14   H     H_    0.753466 0.710141 0.857077 0.135665
H15   H     H_    0.246549 0.289693 0.142817 0.135665
H16   H     H_    0.648406 0.532275 0.989099 0.163864
H17   H     H_    0.351590 0.467716 0.010897 0.163858
H18   H     H_    0.151018 0.878489 0.933584 0.117371
H19   H     H_    0.848981 0.121515 0.066421 0.117373
H20   H     H_    0.256969 0.891283 0.032231 0.118976
H21   H     H_    0.743033 0.108716 0.967765 0.118975
H22   H     H_    0.203835 0.752688 0.055694 0.102900
H23   H     H_    0.251937 0.211377 0.853728 0.131946
H24   H     H_    0.796169 0.247309 0.944300 0.102902
H25   H     H_    0.936517 0.587873 0.881341 0.127272
H26   H     H_    0.063482 0.412135 0.118670 0.127271
H27   H     H_    0.990560 0.727265 0.859281 0.134487
H28   H     H_    0.009437 0.272744 0.140731 0.134496
H29   H     H_    0.960991 0.627434 0.061436 0.172043
H30   H     H_    0.039012 0.372569 0.938566 0.172036
H31   H     H_    0.588569 0.069944 0.922159 0.120386
H32   H     H_    0.411430 0.930056 0.077840 0.120385
H33   H     H_    0.397574 0.937248 0.864001 0.127287
H34   H     H_    0.748072 0.788607 0.146262 0.131944
H35   H     H_    0.602426 0.062752 0.135999 0.127287
H36   H     H_    0.401160 0.059206 0.039997 0.136247
H37   H     H_    0.598840 0.940794 0.960003 0.136248
H38   H     H_    0.602353 0.461584 0.533683 0.123493
H39   H     H_    0.397645 0.538411 0.466312 0.123505
H40   H     H_    0.410842 0.330304 0.476543 0.123187
H41   H     H_    0.589158 0.669695 0.523456 0.123189
H42   H     H_    0.403512 0.365799 0.343365 0.148866
H43   H     H_    0.596488 0.634196 0.656634 0.148870
H44   H     H_    0.078874 0.668521 0.448045 0.219484
H45   H     H_    0.194843 0.121455 0.690719 0.115165
H46   H     H_    0.217804 0.824180 0.562020 0.242793
H47   H     H_    0.224146 0.715088 0.522456 0.232221
H48   H     H_    0.202784 0.772072 0.626406 0.242828
H49   H     H_    0.921126 0.331480 0.551955 0.219484
H50   H     H_    0.782196 0.175820 0.437981 0.242793
H51   H     H_    0.797217 0.227926 0.373592 0.242828
H52   H     H_    0.775854 0.284911 0.477541 0.232220
H53   H     H_    0.387264 0.280047 0.613601 0.151757
H54   H     H_    0.373727 0.383910 0.686477 0.152651
H55   H     H_    0.310958 0.263496 0.675015 0.181481
H56   H     H_    0.805155 0.878519 0.309273 0.115147
H57   H     H_    0.626242 0.616028 0.313446 0.152683
H58   H     H_    0.612638 0.719812 0.386388 0.151730
H59   H     H_    0.688963 0.736506 0.325012 0.181460
H60   H     H_    0.874103 0.289217 0.293695 0.233432
H61   H     H_    0.953628 0.212344 0.237856 0.218986
H62   H     H_    0.956581 0.237264 0.346267 0.263829
H63   H     H_    0.053597 0.324735 0.332568 0.244204
H64   H     H_    0.125897 0.710784 0.706305 0.233431
H65   H     H_    0.046372 0.787657 0.762143 0.218987
H66   H     H_    0.946403 0.675265 0.667432 0.244202
H67   H     H_    0.944184 0.088709 0.710963 0.117210
H68   H     H_    0.043418 0.762736 0.653731 0.263827
H69   H     H_    0.055839 0.911324 0.289049 0.117216
H70   H     H_    0.001918 0.177949 0.873773 0.129247
N1    N     N_2   0.093681 0.682028 0.509536 -0.295053
N2    N     N_2   0.906319 0.317972 0.490464 -0.295052
N3    N     N_2   0.942760 0.334233 0.324887 -0.280810
N4    N     N_2   0.057240 0.665767 0.675112 -0.280808
O1    O     O_3   0.251620 0.500000 0.748430 -0.482483
O2    O     O_R   0.570330 0.268390 0.136490 -0.640960
O3    O     O_R   0.134680 0.268390 0.572240 -0.649595
O4    O     O_R   0.865320 0.731610 0.427760 -0.649596
O5    O     O_R   0.306670 0.731630 0.863510 -0.639177
O6    O     O_R   0.693330 0.268370 0.136490 -0.639176
O7    O     O_R   0.135450 0.439270 0.865360 -0.645313
O8    O     O_R   0.864550 0.560730 0.134640 -0.645308
O9    O     O_R   0.429670 0.560710 0.692610 -0.647928
O10   O     O_R   0.570330 0.439290 0.307390 -0.647932
O11   O     O_R   0.308540 0.439240 0.865360 -0.643594
O12   O     O_3   0.748380 0.500000 0.251570 -0.482484
O13   O     O_R   0.691460 0.560760 0.134640 -0.643605
O14   O     O_R   0.133580 0.439310 0.571150 -0.631964
O15   O     O_R   0.866420 0.560690 0.428850 -0.631965
O16   O     O_R   0.430770 0.560690 0.864590 -0.653891
O17   O     O_R   0.569230 0.439310 0.135410 -0.653889
O18   O     O_R   0.133580 0.560760 0.692610 -0.642856
O19   O     O_R   0.866420 0.439240 0.307390 -0.642856
O20   O     O_3   0.444916 0.356956 0.749691 -0.636348
O21   O     O_3   0.555008 0.643011 0.250315 -0.636335
O22   O     O_R   0.134680 0.560740 0.864590 -0.632017
O23   O     O_R   0.865320 0.439260 0.135410 -0.632015
O24   O     O_R   0.306670 0.439270 0.571150 -0.646346
O25   O     O_R   0.693330 0.560730 0.428850 -0.646343
O26   O     O_R   0.135450 0.268370 0.694460 -0.633444
O27   O     O_R   0.864550 0.731630 0.305540 -0.633444
O28   O     O_R   0.429670 0.731610 0.863510 -0.640964
Zn1   Zn    Zn3+2 0.207400 0.586780 0.791530 0.970944
Zn2   Zn    Zn3+2 0.792600 0.413220 0.208470 0.970946
Zn3   Zn    Zn3+2 0.208510 0.413230 0.792630 0.964602
Zn4   Zn    Zn3+2 0.791490 0.586770 0.207370 0.964592
Zn5   Zn    Zn3+2 0.383150 0.586740 0.791530 0.957008
Zn6   Zn    Zn3+2 0.616850 0.413260 0.208470 0.956999
Zn7   Zn    Zn3+2 0.207400 0.413250 0.618010 0.948259
Zn8   Zn    Zn3+2 0.792600 0.586750 0.381990 0.948256

loop_
_geom_bond_atom_site_label_1
_geom_bond_atom_site_label_2
_ccdc_geom_bond_type
C5    H40   S    
O3    Zn7   S    
C45   H33   S    
C51   H16   S    
C22   H67   S    
C30   H4    S    
C92   H52   S    
C95   H62   S    
C14   C18   A    
C93   H53   S    
C84   C90   S    
C76   C79   A    
C78   H32   S    
C6    C9    S    
C17   O2    A    
C47   C49   A    
C93   O20   S    
C15   C19   A    
O25   Zn8   S    
C72   H19   S    
C1    O3    A    
C74   C76   A    
C36   H7    S    
O12   Zn6   S    
C13   H43   S    
C91   N1    S    
C19   C21   A    
C11   H42   S    
C84   C86   S    
C5    C11   S    
C85   H13   S    
C20   C22   A    
C49   H5    S    
C86   C88   S    
C58   C71   A    
C66   C69   A    
C21   C33   S    
C69   H27   S    
C58   C60   A    
C82   O14   A    
H60   N3    S    
C67   C89   S    
C84   H11   S    
C56   C78   S    
C96   H65   S    
C18   C20   A    
C53   C81   S    
C34   C86   S    
O22   Zn1   S    
C61   C63   A    
C94   O21   S    
C41   O23   A    
O12   Zn4   S    
C20   C35   S    
C96   H66   S    
C94   H59   S    
C38   O20   S    
C74   C77   A    
C64   O24   A    
C45   C67   S    
O1    Zn1   S    
C12   O27   A    
C31   C33   A    
C60   H22   S    
C51   C57   A    
C94   H57   S    
C14   C27   A    
O1    Zn7   S    
C44   C47   A    
C2    C16   S    
C91   H47   S    
C34   N4    S    
C17   O6    A    
C59   C72   A    
C91   H46   S    
C37   H8    S    
H44   N1    S    
C48   C50   A    
C83   C88   S    
C65   O25   A    
C59   H21   S    
C23   C87   S    
C4    C56   S    
C61   H24   S    
C58   H20   S    
C73   C75   A    
C93   H54   S    
C42   C44   A    
O6    Zn2   S    
C8    H39   S    
C42   C57   S    
C52   C54   A    
C54   C80   S    
C53   C55   A    
C2    C45   S    
C37   C39   A    
C46   C48   A    
C59   C61   A    
C69   C71   A    
C23   C84   S    
C62   C66   A    
C85   C87   S    
C92   H50   S    
C3    H36   S    
C32   C35   A    
C41   O8    A    
C1    O26   A    
O12   Zn2   S    
C7    H38   S    
C68   H26   S    
C5    C7    S    
C64   O9    A    
C29   H3    S    
C39   C43   A    
O18   Zn1   S    
C52   H17   S    
O17   Zn6   S    
C22   C25   A    
C1    C32   S    
O14   Zn7   S    
C96   H68   S    
C71   H18   S    
C82   O18   A    
C51   C53   A    
C34   C85   S    
O1    Zn3   S    
C2    C4    S    
C34   C90   S    
C2    C78   S    
C67   H31   S    
C41   C75   S    
C39   O21   S    
C92   N2    S    
C87   N2    S    
C40   O22   A    
C94   H58   S    
C70   H28   S    
C19   H56   S    
C73   C79   A    
C66   H25   S    
C17   C89   S    
O27   Zn4   S    
C80   O11   A    
C75   C77   A    
O5    Zn1   S    
C26   H2    S    
O19   Zn2   S    
C43   C55   S    
C56   C89   S    
O9    Zn5   S    
C50   H6    S    
C23   C88   S    
C9    C11   S    
C12   C31   S    
C60   C62   A    
C95   H63   S    
C21   C24   A    
C93   H55   S    
C81   O13   A    
C47   H14   S    
C16   O28   A    
C16   O5    A    
C44   H9    S    
C12   O4    A    
C91   H48   S    
C63   C77   S    
C85   C88   S    
C7    C9    S    
O24   Zn7   S    
C63   C68   A    
C27   H1    S    
C80   O16   A    
C30   C33   A    
C95   H61   S    
O13   Zn4   S    
O15   Zn8   S    
C83   O19   A    
C18   H45   S    
C10   C64   S    
C86   N1    S    
C24   C26   A    
O10   Zn6   S    
C10   C13   S    
C4    C67   S    
C6    C8    S    
C52   C55   A    
C38   C42   A    
C65   O10   A    
C25   H70   S    
C25   C27   A    
O23   Zn2   S    
C29   C35   A    
C26   C28   A    
C82   C90   S    
C3    C89   S    
C6    H41   S    
O8    Zn4   S    
C24   H69   S    
C5    C10   S    
C29   C31   A    
C54   C57   A    
C6    C13   S    
C30   C32   A    
C37   C50   A    
C15   C28   A    
C74   H30   S    
C15   H34   S    
O2    Zn6   S    
C28   H12   S    
C8    C11   S    
C73   H29   S    
C46   H10   S    
C36   C38   A    
C3    C45   S    
O16   Zn5   S    
O7    Zn3   S    
O1    Zn5   S    
C23   N3    S    
C43   C46   A    
C9    C65   S    
C62   C79   S    
C56   H35   S    
O11   Zn3   S    
C40   O7    A    
C40   C76   S    
C7    C13   S    
C48   H15   S    
C70   C72   A    
C8    C10   S    
C14   H23   S    
C87   C90   S    
O28   Zn5   S    
O4    Zn8   S    
C68   C70   A    
H64   N4    S    
C83   O15   A    
C96   N4    S    
O12   Zn8   S    
O26   Zn3   S    
C3    C78   S    
C81   O17   A    
C95   N3    S    
C36   C49   A    
C4    H37   S    
C92   H51   S    
H49   N2    S    
