data_mof_unit_57077.cif
_audit_creation_date              2012-12-10T17:35:42-0500
_audit_creation_method            fapswitch 2.2
_symmetry_space_group_name_H-M    P1
_symmetry_Int_Tables_number       1
_space_group_crystal_system       triclinic
_cell_length_a                    10.588616
_cell_length_b                    12.066558
_cell_length_c                    12.913984
_cell_angle_alpha                 94.066757
_cell_angle_beta                  90.371921
_cell_angle_gamma                 87.846549
_cell_volume                      1644.6668516

loop_
_atom_site_label
_atom_site_type_symbol
_atom_type_description
_atom_site_fract_x
_atom_site_fract_y
_atom_site_fract_z
_atom_type_partial_charge
C1    C     C_R   0.493487 0.522458 0.700304 0.923793
C2    C     C_R   0.601037 0.166355 0.591918 -0.086518
C3    C     C_R   0.550590 0.860177 0.544377 0.589386
C4    C     C_R   0.461387 0.138682 0.448531 0.553063
C5    C     C_R   0.542755 0.977847 0.536618 -0.065442
C6    C     C_R   0.463037 0.022215 0.460651 -0.036655
C7    C     C_R   0.741748 0.502351 0.503294 0.968303
C8    C     C_R   0.257515 0.498410 0.503390 0.921676
C9    C     C_3   0.954919 0.429537 0.576341 -0.458504
C10   C     C_3   0.041592 0.572696 0.441265 -0.490287
C11   C     C_3   0.040305 0.528146 0.603771 0.427225
C12   C     C_R   0.506132 0.477195 0.299591 0.949275
C13   C     C_3   0.957569 0.473278 0.413458 0.413060
C14   C     C_3   0.122376 0.494596 0.507918 -0.231664
C15   C     C_3   0.875507 0.506347 0.508140 -0.236395
C16   C     C_3   0.036356 0.396672 0.479772 0.440982
C17   C     C_3   0.959752 0.604263 0.537807 0.454390
C18   C     C_R   0.511623 0.461737 0.187466 -0.202098
C19   C     C_R   0.481946 0.535228 0.812065 -0.227685
C20   C     C_R   0.425054 0.637408 0.973631 0.387503
C21   C     C_R   0.573957 0.360576 0.025795 0.363232
C22   C     C_R   0.427500 0.631169 0.864935 0.342605
C23   C     C_R   0.524569 0.444957 0.865984 -0.288335
C24   C     C_R   0.573877 0.368133 0.135422 0.368158
C25   C     C_3   0.995489 0.569487 0.778628 0.089725
C26   C     C_3   0.016956 0.485630 0.860140 -0.855416
C27   C     C_3   0.009366 0.443966 0.241349 0.151796
C28   C     C_3   0.970457 0.383957 0.140140 -0.844353
C29   C     C_3   0.965524 0.218739 0.450913 0.150331
C30   C     C_3   0.992318 0.105983 0.394024 -0.928596
C31   C     C_3   0.011623 0.781975 0.597597 0.139200
C32   C     C_3   0.990266 0.892493 0.550319 -0.838712
C33   C     C_3   0.628400 0.187553 0.176548 0.175637
C34   C     C_R   0.456918 0.547073 0.133079 -0.318642
C35   C     C_3   0.696357 0.125099 0.259937 -0.781560
C36   C     C_3   0.263047 0.746907 0.814827 0.176341
C37   C     C_3   0.238318 0.872157 0.819725 -0.874409
C38   C     C_3   0.492756 0.804200 0.038588 0.116393
C39   C     C_3   0.454865 0.911623 0.100622 -0.841631
C40   C     C_3   0.750469 0.276275 0.949739 0.065379
C41   C     C_3   0.795926 0.180738 0.874452 -0.868442
C42   C     C_3   0.302448 0.200108 0.340146 0.167477
C43   C     C_3   0.265663 0.180732 0.226230 -0.936938
C44   C     C_3   0.625919 0.830173 0.710195 0.143098
C45   C     C_R   0.519509 0.448790 0.972740 -0.036910
C46   C     C_3   0.750627 0.842779 0.768772 -0.900067
C47   C     C_R   0.465720 0.544365 0.026680 -0.059920
C48   C     C_R   0.392155 0.948829 0.396002 -0.325502
C49   C     C_R   0.616547 0.051881 0.598519 -0.314159
C50   C     C_R   0.398050 0.834806 0.408854 -0.089551
H1    H     H_    0.916042 0.374586 0.632772 0.166168
H2    H     H_    0.001521 0.654211 0.817323 0.132236
H3    H     H_    0.112559 0.494241 0.895082 0.261523
H4    H     H_    0.945151 0.500544 0.922331 0.200394
H5    H     H_    0.008664 0.399847 0.824166 0.255075
H6    H     H_    0.097759 0.401690 0.268406 0.138625
H7    H     H_    0.029062 0.531178 0.225953 0.137409
H8    H     H_    0.885080 0.426807 0.109240 0.253463
H9    H     H_    0.048027 0.384300 0.082710 0.205616
H10   H     H_    0.950212 0.296554 0.153843 0.262456
H11   H     H_    0.880992 0.256951 0.413634 0.199331
H12   H     H_    0.078630 0.631878 0.387887 0.176416
H13   H     H_    0.942974 0.204372 0.532763 0.146068
H14   H     H_    0.073032 0.062483 0.430594 0.255689
H15   H     H_    0.908001 0.054559 0.398190 0.234251
H16   H     H_    0.013544 0.115596 0.311355 0.260059
H17   H     H_    0.107654 0.748776 0.573588 0.143818
H18   H     H_    0.011686 0.796411 0.683286 0.136940
H19   H     H_    0.895424 0.929351 0.571108 0.278235
H20   H     H_    0.063453 0.950639 0.579363 0.204790
H21   H     H_    0.996996 0.879178 0.464561 0.255326
H22   H     H_    0.665366 0.149822 0.101845 0.165862
H23   H     H_    0.409813 0.618112 0.174532 0.222652
H24   H     H_    0.525780 0.173858 0.179300 0.190147
H25   H     H_    0.660451 0.039968 0.261478 0.211996
H26   H     H_    0.798813 0.118859 0.242394 0.224909
H27   H     H_    0.682847 0.169714 0.337362 0.287345
H28   H     H_    0.213804 0.713110 0.881190 0.158397
H29   H     H_    0.222446 0.711575 0.741267 0.185649
H30   H     H_    0.278228 0.906859 0.750069 0.246732
H31   H     H_    0.135057 0.891705 0.822512 0.201600
H32   H     H_    0.282856 0.911627 0.890309 0.279484
H33   H     H_    0.527264 0.825741 0.961502 0.165163
H34   H     H_    0.565930 0.371697 0.824058 0.230261
H35   H     H_    0.571344 0.762565 0.080790 0.139444
H36   H     H_    0.422805 0.892939 0.178770 0.259901
H37   H     H_    0.537148 0.965757 0.108720 0.202947
H38   H     H_    0.377291 0.956068 0.060535 0.252514
H39   H     H_    0.805142 0.269850 0.022223 0.181182
H40   H     H_    0.769873 0.356065 0.915460 0.139356
H41   H     H_    0.741827 0.182271 0.800906 0.249549
H42   H     H_    0.897824 0.188504 0.857687 0.214263
H43   H     H_    0.782459 0.100069 0.908576 0.256689
H44   H     H_    0.282083 0.288907 0.360740 0.220495
H45   H     H_    0.655115 0.222725 0.641751 0.145121
H46   H     H_    0.243810 0.149409 0.387613 0.169100
H47   H     H_    0.288243 0.093523 0.197712 0.256345
H48   H     H_    0.163023 0.198330 0.216257 0.238476
H49   H     H_    0.316509 0.237780 0.178700 0.249152
H50   H     H_    0.587159 0.755457 0.738233 0.228775
H51   H     H_    0.559826 0.901597 0.733295 0.126122
H52   H     H_    0.806235 0.910396 0.740759 0.255265
H53   H     H_    0.731626 0.861607 0.852771 0.200406
H54   H     H_    0.807525 0.763733 0.759502 0.259854
H55   H     H_    0.341984 0.779513 0.359342 0.156139
H56   H     H_    0.330617 0.978164 0.336240 0.177796
H57   H     H_    0.685483 0.023751 0.652893 0.182284
H58   H     H_    0.897129 0.562679 0.747831 0.135624
N1    N     N_R   0.523490 0.207800 0.519350 -0.135232
N2    N     N_R   0.476510 0.792200 0.480650 -0.135757
O1    O     O_R   0.506270 0.421700 0.658830 -0.639317
O2    O     O_3   0.910117 0.442360 0.313777 -0.582227
O3    O     O_3   0.072208 0.285909 0.447371 -0.644203
O4    O     O_3   0.911657 0.712032 0.567512 -0.557582
O5    O     O_3   0.654980 0.301478 0.191809 -0.587664
O6    O     O_3   0.394548 0.724055 0.812244 -0.646633
O7    O     O_3   0.387186 0.735992 0.027794 -0.616135
O8    O     O_3   0.620699 0.265877 0.969629 -0.635715
O9    O     O_3   0.432554 0.176889 0.352205 -0.634117
O10   O     O_3   0.647063 0.812032 0.601828 -0.564531
O11   O     O_R   0.493730 0.578300 0.341170 -0.645319
O12   O     O_R   0.491200 0.609310 0.646410 -0.595422
O13   O     O_R   0.508800 0.390690 0.353590 -0.553720
O14   O     O_R   0.693580 0.406210 0.506230 -0.649993
O15   O     O_R   0.306420 0.593790 0.493770 -0.643122
O16   O     O_R   0.678510 0.593830 0.493810 -0.545513
O17   O     O_R   0.321490 0.406170 0.506190 -0.623849
O18   O     O_3   0.091865 0.554382 0.702891 -0.646248
Zn1   Zn    Zn3+2 0.510060 0.374730 0.508290 0.976226
Zn2   Zn    Zn3+2 0.489940 0.625270 0.491710 0.995556

loop_
_geom_bond_atom_site_label_1
_geom_bond_atom_site_label_2
_ccdc_geom_bond_type
C40   O8    S    
C4    N1    A    
C29   H13   S    
C2    N1    A    
C23   C45   A    
C30   H14   S    
C38   H33   S    
C9    H1    S    
C43   H48   S    
C39   H37   S    
O11   Zn2   S    
C5    C49   A    
C16   O3    S    
C49   H57   S    
C31   H17   S    
C46   H52   S    
C35   H25   S    
C29   C30   S    
C6    C48   A    
C42   H46   S    
C36   C37   S    
C9    C16   S    
C43   H49   S    
C13   O2    S    
C38   C39   S    
C11   C14   S    
C42   O9    S    
C44   O10   S    
C3    N2    A    
C50   N2    A    
C1    O12   A    
C33   H22   S    
C38   O7    S    
O15   Zn2   S    
O1    Zn1   S    
C41   H43   S    
C12   O11   A    
C50   H55   S    
C4    O9    S    
C40   H39   S    
C7    O14   A    
C31   O4    S    
C22   O6    S    
C26   H5    S    
C37   H31   S    
C10   H12   S    
C39   H38   S    
C26   H4    S    
C20   O7    S    
C44   C46   S    
C17   O4    S    
C32   H21   S    
C21   C45   A    
C45   C47   A    
C31   H18   S    
C37   H30   S    
C29   H11   S    
C35   H26   S    
C33   O5    S    
C1    C19   S    
C23   H34   S    
C38   H35   S    
C30   H15   S    
C19   C22   A    
C4    C6    A    
C27   H7    S    
C27   H6    S    
C32   H20   S    
C25   C26   S    
C46   H54   S    
C35   H27   S    
C19   C23   A    
O17   Zn1   S    
C21   O8    S    
C2    C49   A    
C9    C11   S    
C33   H24   S    
C8    O17   A    
C31   C32   S    
C48   C50   A    
C18   C34   A    
C30   H16   S    
C28   H10   S    
C36   H29   S    
C40   C41   S    
C41   H41   S    
C20   C22   A    
C27   O2    S    
C13   C15   S    
N1    Zn1   S    
C18   C24   A    
C37   H32   S    
C21   C24   A    
C42   C43   S    
C36   O6    S    
C26   H3    S    
C28   H9    S    
C15   C17   S    
C29   O3    S    
C11   C17   S    
C8    C14   S    
C42   H44   S    
C25   O18   S    
C43   H47   S    
C3    C5    A    
C10   C13   S    
C2    H45   S    
C44   H51   S    
C32   H19   S    
C28   H8    S    
C46   H53   S    
C48   H56   S    
C11   O18   S    
C9    C15   S    
C25   H2    S    
C36   H28   S    
C1    O1    A    
C44   H50   S    
C5    C6    A    
C12   O13   A    
C7    C15   S    
C33   C35   S    
O14   Zn1   S    
N2    Zn2   S    
C14   C16   S    
C7    O16   A    
C20   C47   A    
C3    O10   S    
C34   H23   S    
C8    O15   A    
C41   H42   S    
C24   O5    S    
C13   C16   S    
C12   C18   S    
C27   C28   S    
O16   Zn2   S    
C34   C47   A    
C10   C17   S    
C39   H36   S    
C40   H40   S    
O12   Zn2   S    
O13   Zn1   S    
C25   H58   S    
C10   C14   S    
