data_mof_unit_6429.cif
_audit_creation_date              2012-12-11T14:42:03-0500
_audit_creation_method            fapswitch 2.2
_symmetry_space_group_name_H-M    P1
_symmetry_Int_Tables_number       1
_space_group_crystal_system       triclinic
_cell_length_a                    19.078832
_cell_length_b                    10.910027
_cell_length_c                    18.710637
_cell_angle_alpha                 90.078999
_cell_angle_beta                  90.946083
_cell_angle_gamma                 89.817966
_cell_volume                      3894.07578645

loop_
_atom_site_label
_atom_site_type_symbol
_atom_type_description
_atom_site_fract_x
_atom_site_fract_y
_atom_site_fract_z
_atom_type_partial_charge
C1    C     C_R   0.727913 0.953309 0.852912 0.537416
C2    C     C_R   0.272020 0.953001 0.147151 0.539431
C3    C     C_R   0.227913 0.453309 0.852912 0.537346
C4    C     C_R   0.772020 0.453001 0.147151 0.539421
C5    C     C_R   0.689492 0.442599 0.042475 -0.146562
C6    C     C_R   0.310145 0.442947 0.957806 -0.140623
C7    C     C_R   0.189492 0.942600 0.042474 -0.146560
C8    C     C_R   0.810145 0.942949 0.957806 -0.140614
C9    C     C_R   0.747880 0.396259 0.080284 0.029963
C10   C     C_R   0.251892 0.396917 0.919894 0.032341
C11   C     C_R   0.247880 0.896259 0.080284 0.029963
C12   C     C_R   0.751892 0.896918 0.919894 0.032362
C13   C     C_R   0.790417 0.307135 0.048457 -0.123905
C14   C     C_R   0.209324 0.308340 0.951653 -0.128783
C15   C     C_R   0.290416 0.807132 0.048457 -0.123925
C16   C     C_R   0.709325 0.808339 0.951652 -0.128757
C17   C     C_R   0.780477 0.277097 0.977254 -0.128160
C18   C     C_R   0.219265 0.278229 0.022793 -0.130905
C19   C     C_R   0.280475 0.777094 0.977254 -0.128176
C20   C     C_R   0.719266 0.778227 0.022792 -0.130891
C21   C     C_R   0.727386 0.334121 0.936824 0.023475
C22   C     C_R   0.272332 0.334779 0.063289 0.027911
C23   C     C_R   0.227385 0.834119 0.936824 0.023470
C24   C     C_R   0.772333 0.834779 0.063289 0.027888
C25   C     C_R   0.554836 0.276985 0.521771 -0.128269
C26   C     C_R   0.535995 0.274982 0.450990 -0.143443
C27   C     C_R   0.054951 0.776954 0.521771 -0.128434
C28   C     C_R   0.035995 0.774991 0.451017 -0.143130
C29   C     C_R   0.506648 0.168450 0.421824 0.018139
C30   C     C_R   0.546408 0.172412 0.563094 0.019898
C31   C     C_R   0.006585 0.668487 0.421885 0.016700
C32   C     C_R   0.046611 0.672356 0.563086 0.020221
C33   C     C_R   0.501678 0.061303 0.461847 -0.082053
C34   C     C_R   0.521113 0.063585 0.532729 -0.137115
C35   C     C_R   0.001702 0.561312 0.461896 -0.082920
C36   C     C_R   0.021359 0.563503 0.532721 -0.136305
C37   C     C_R   0.819851 0.413513 0.549107 0.249362
C38   C     C_R   0.191347 0.433961 0.452332 0.233151
C39   C     C_R   0.319857 0.913625 0.549132 0.249117
C40   C     C_R   0.691754 0.935013 0.452342 0.232719
C41   C     C_R   0.822944 0.412621 0.475256 -0.151151
C42   C     C_R   0.182846 0.434375 0.525438 -0.168084
C43   C     C_R   0.322963 0.912734 0.475279 -0.151338
C44   C     C_R   0.683114 0.935870 0.525419 -0.168122
C45   C     C_R   0.556953 0.181570 0.858944 0.547420
C46   C     C_R   0.472229 0.177381 0.150980 0.545043
C47   C     C_R   0.056953 0.681570 0.858945 0.547499
C48   C     C_R   0.972229 0.677381 0.150980 0.544967
C49   C     C_R   0.764375 0.445642 0.432817 -0.008092
C50   C     C_R   0.240647 0.428776 0.572647 0.000605
C51   C     C_R   0.264383 0.945656 0.432826 -0.007686
C52   C     C_R   0.740733 0.928602 0.572749 0.000709
C53   C     C_R   0.702480 0.486906 0.465844 0.245522
C54   C     C_R   0.308740 0.419600 0.546320 0.242516
C55   C     C_R   0.202459 0.986823 0.465833 0.245828
C56   C     C_R   0.808792 0.917568 0.546582 0.242166
C57   C     C_R   0.698299 0.477678 0.540620 -0.183944
C58   C     C_R   0.316368 0.401301 0.472817 -0.172345
C59   C     C_R   0.198288 0.977665 0.540618 -0.184046
C60   C     C_R   0.816430 0.899027 0.473104 -0.171939
C61   C     C_R   0.754168 0.429029 0.580750 -0.021320
C62   C     C_R   0.257352 0.405471 0.426624 -0.020116
C63   C     C_R   0.254163 0.929065 0.580758 -0.021339
C64   C     C_R   0.757553 0.904812 0.426779 -0.019983
C65   C     C_R   0.724130 0.311554 0.859789 0.548796
C66   C     C_R   0.275838 0.311760 0.140218 0.562867
C67   C     C_R   0.224129 0.811552 0.859789 0.548772
C68   C     C_R   0.775839 0.811760 0.140218 0.562946
C69   C     C_R   0.727187 0.955724 0.647101 0.580174
C70   C     C_R   0.275473 0.963150 0.356139 0.567801
C71   C     C_R   0.227122 0.455869 0.647027 0.580006
C72   C     C_R   0.775467 0.463141 0.356135 0.567505
C73   C     C_R   0.563195 0.180354 0.637702 0.562974
C74   C     C_R   0.470939 0.176402 0.354582 0.529724
C75   C     C_R   0.063270 0.680355 0.637722 0.563398
C76   C     C_R   0.970872 0.676418 0.354636 0.529004
C77   C     C_R   0.739962 0.366422 0.647884 0.548692
C78   C     C_R   0.263326 0.357088 0.355432 0.563689
C79   C     C_R   0.239959 0.866423 0.647883 0.548613
C80   C     C_R   0.763350 0.856984 0.355457 0.564515
C81   C     C_2   0.531810 0.174024 0.931960 -0.108957
C82   C     C_2   0.514933 0.169202 0.087197 -0.110272
C83   C     C_2   0.031809 0.674023 0.931960 -0.108928
C84   C     C_2   0.014934 0.669202 0.087197 -0.110362
C85   C     C_2   0.516190 0.068387 0.046174 -0.151355
C86   C     C_2   0.541487 0.073303 0.972285 -0.160302
C87   C     C_2   0.016193 0.568387 0.046175 -0.151425
C88   C     C_2   0.041490 0.573305 0.972286 -0.160296
C89   C     C_R   0.679205 0.411604 0.970741 -0.143639
C90   C     C_R   0.320374 0.412053 0.029518 -0.136383
C91   C     C_R   0.179204 0.911604 0.970740 -0.143643
C92   C     C_R   0.820374 0.912055 0.029518 -0.136371
Cr1   Cr    Cr6+3 0.769270 0.163730 0.750710 1.030749
Cr2   Cr    Cr6+3 0.230730 0.163730 0.249290 1.046825
Cr3   Cr    Cr6+3 0.269270 0.663730 0.750710 1.031498
Cr4   Cr    Cr6+3 0.730730 0.663730 0.249290 1.046842
Cr5   Cr    Cr6+3 0.612620 0.009790 0.748780 0.995741
Cr6   Cr    Cr6+3 0.387380 0.009790 0.251220 1.010419
Cr7   Cr    Cr6+3 0.112620 0.509790 0.748780 0.995632
Cr8   Cr    Cr6+3 0.887380 0.509790 0.251220 1.009932
Cr9   Cr    Cr6+3 0.614160 0.322500 0.747710 1.002906
Cr10  Cr    Cr6+3 0.385840 0.322500 0.252290 1.009422
Cr11  Cr    Cr6+3 0.114160 0.822500 0.747710 1.002303
Cr12  Cr    Cr6+3 0.885840 0.822500 0.252290 1.009534
H1    H     H_    0.494508 0.982565 0.064975 0.153772
H2    H     H_    0.564355 0.990940 0.949613 0.154179
H3    H     H_    0.994514 0.482563 0.064977 0.153750
H4    H     H_    0.064362 0.490944 0.949615 0.154166
H5    H     H_    0.872371 0.389119 0.451301 0.147982
H6    H     H_    0.131005 0.442099 0.545797 0.147728
H7    H     H_    0.372403 0.889296 0.451331 0.147747
H8    H     H_    0.631367 0.945306 0.545701 0.147729
H9    H     H_    0.650376 0.501049 0.567336 0.119613
H10   H     H_    0.367391 0.377074 0.452432 0.150449
H11   H     H_    0.150372 0.001037 0.567345 0.119388
H12   H     H_    0.867312 0.873586 0.452830 0.150471
H13   H     H_    0.539400 0.253273 0.069212 0.108646
H14   H     H_    0.506226 0.254764 0.953576 0.112909
H15   H     H_    0.039398 0.753275 0.069211 0.108675
H16   H     H_    0.006221 0.754760 0.953574 0.112912
H17   H     H_    0.635896 0.452821 0.941256 0.129569
H18   H     H_    0.363619 0.453010 0.059064 0.132819
H19   H     H_    0.135896 0.952822 0.941256 0.129563
H20   H     H_    0.863618 0.953014 0.059064 0.132809
H21   H     H_    0.654387 0.507847 0.066920 0.116957
H22   H     H_    0.345280 0.507668 0.933399 0.119767
H23   H     H_    0.154388 0.007850 0.066919 0.116959
H24   H     H_    0.845280 0.007671 0.933399 0.119743
H25   H     H_    0.834629 0.266717 0.076950 0.133777
H26   H     H_    0.165164 0.268200 0.923114 0.134413
H27   H     H_    0.334627 0.766713 0.076951 0.133782
H28   H     H_    0.665165 0.768197 0.923113 0.134427
H29   H     H_    0.816783 0.213995 0.952861 0.124967
H30   H     H_    0.183085 0.215211 0.047039 0.124941
H31   H     H_    0.316780 0.713990 0.952862 0.124968
H32   H     H_    0.683087 0.715207 0.047038 0.124936
H33   H     H_    0.572245 0.361757 0.545202 0.128302
H34   H     H_    0.540184 0.358771 0.420422 0.176243
H35   H     H_    0.072319 0.861737 0.545208 0.127898
H36   H     H_    0.040119 0.858800 0.420461 0.176476
H37   H     H_    0.480761 0.977587 0.439190 0.146592
H38   H     H_    0.515631 0.980536 0.563539 0.145820
H39   H     H_    0.980713 0.477626 0.439269 0.147050
H40   H     H_    0.015847 0.480477 0.563543 0.145555
O1    O     O_R   0.784320 0.290430 0.830510 -0.512090
O2    O     O_R   0.215680 0.290430 0.169490 -0.518317
O3    O     O_R   0.284320 0.790430 0.830510 -0.512104
O4    O     O_R   0.715680 0.790430 0.169490 -0.517980
O5    O     O_R   0.554640 0.080370 0.673500 -0.524128
O6    O     O_R   0.445360 0.080370 0.326500 -0.508532
O7    O     O_R   0.054640 0.580370 0.673500 -0.524064
O8    O     O_R   0.945360 0.580370 0.326500 -0.509069
O9    O     O_R   0.543920 0.282180 0.666790 -0.498112
O10   O     O_R   0.456080 0.282180 0.333210 -0.527074
O11   O     O_R   0.043920 0.782180 0.666790 -0.498957
O12   O     O_R   0.956080 0.782180 0.333210 -0.526831
O13   O     O_R   0.679040 0.374160 0.674430 -0.531321
O14   O     O_R   0.320960 0.374160 0.325570 -0.517236
O15   O     O_R   0.179040 0.874160 0.674430 -0.531466
O16   O     O_R   0.820960 0.874160 0.325570 -0.517241
O17   O     O_3   0.665350 0.165340 0.749070 -0.309106
O18   O     O_3   0.334650 0.165340 0.250930 -0.278649
O19   O     O_3   0.165350 0.665340 0.749070 -0.309254
O20   O     O_3   0.834650 0.665340 0.250930 -0.278637
O21   O     O_R   0.762640 0.040960 0.825200 -0.519142
O22   O     O_R   0.237360 0.040960 0.174800 -0.523554
O23   O     O_R   0.262640 0.540960 0.825200 -0.519120
O24   O     O_R   0.737360 0.540960 0.174800 -0.523585
O25   O     O_R   0.667400 0.923970 0.829950 -0.530044
O26   O     O_R   0.332600 0.923970 0.170050 -0.520026
O27   O     O_R   0.167400 0.423970 0.829950 -0.530075
O28   O     O_R   0.832600 0.423970 0.170050 -0.519999
O29   O     O_R   0.553960 0.081340 0.821780 -0.481490
O30   O     O_R   0.446040 0.081340 0.178220 -0.494811
O31   O     O_R   0.053960 0.581340 0.821780 -0.481434
O32   O     O_R   0.946040 0.581340 0.178220 -0.494959
O33   O     O_R   0.543180 0.283240 0.826740 -0.508263
O34   O     O_R   0.456820 0.283240 0.173260 -0.524601
O35   O     O_R   0.043180 0.783240 0.826740 -0.508315
O36   O     O_R   0.956820 0.783240 0.173260 -0.524514
O37   O     O_R   0.678360 0.375140 0.822710 -0.512035
O38   O     O_R   0.321640 0.375140 0.177290 -0.503656
O39   O     O_R   0.178360 0.875140 0.822710 -0.512072
O40   O     O_R   0.821640 0.875140 0.177290 -0.503589
O41   O     O_R   0.785050 0.289380 0.670560 -0.466131
O42   O     O_R   0.214950 0.289380 0.329440 -0.461655
O43   O     O_R   0.285050 0.789380 0.670560 -0.465919
O44   O     O_R   0.714950 0.789380 0.329440 -0.461896
O45   O     O_R   0.763320 0.039990 0.676930 -0.463744
O46   O     O_R   0.236680 0.039990 0.323070 -0.442714
O47   O     O_R   0.263320 0.539990 0.676930 -0.462418
O48   O     O_R   0.736680 0.539990 0.323070 -0.442875
O49   O     O_R   0.668130 0.922920 0.670000 -0.542326
O50   O     O_R   0.331870 0.922920 0.330000 -0.539940
O51   O     O_R   0.168130 0.422920 0.670000 -0.542739
O52   O     O_R   0.831870 0.422920 0.330000 -0.539884
O53   O     O_3   0.645467 0.522863 0.423266 -0.562667
C93   C     C_3   0.608750 0.622773 0.452998 -0.091713
H41   H     H_    0.644316 0.690476 0.479235 0.139485
H42   H     H_    0.569012 0.589609 0.491060 0.081214
H43   H     H_    0.580251 0.671330 0.409270 0.172838
O54   O     O_3   0.365432 0.412656 0.593491 -0.547577
C94   C     C_3   0.414587 0.504513 0.577210 -0.085435
H44   H     H_    0.389381 0.596460 0.572071 0.153594
H45   H     H_    0.443719 0.481454 0.528055 0.098354
H46   H     H_    0.453580 0.509955 0.621726 0.153428
O55   O     O_3   0.145431 0.022596 0.423214 -0.562542
C95   C     C_3   0.108400 0.122075 0.453019 -0.091551
H47   H     H_    0.143741 0.189915 0.479441 0.139832
H48   H     H_    0.068666 0.088421 0.490941 0.081012
H49   H     H_    0.079871 0.170618 0.409306 0.173410
O56   O     O_3   0.865346 0.909199 0.593821 -0.548304
C96   C     C_3   0.914660 0.001170 0.578268 -0.085924
H50   H     H_    0.889679 0.093480 0.574530 0.153612
H51   H     H_    0.943289 0.979773 0.528546 0.098462
H52   H     H_    0.954046 0.004614 0.622495 0.154193
O57   O     O_3   0.879861 0.384630 0.588399 -0.578666
C97   C     C_3   0.894274 0.479613 0.638050 -0.085778
H53   H     H_    0.853502 0.489185 0.679242 0.136883
H54   H     H_    0.900969 0.569208 0.610706 0.141679
H55   H     H_    0.943398 0.456399 0.667322 0.165076
O58   O     O_3   0.133592 0.447729 0.407193 -0.566646
C98   C     C_3   0.143471 0.551453 0.363059 -0.089260
H56   H     H_    0.188432 0.541916 0.326735 0.121319
H57   H     H_    0.150113 0.636200 0.395580 0.122075
H58   H     H_    0.096853 0.562166 0.327616 0.145243
O59   O     O_3   0.379868 0.884821 0.588444 -0.578934
C99   C     C_3   0.394198 0.979770 0.638145 -0.085889
H59   H     H_    0.353401 0.989231 0.679317 0.136751
H60   H     H_    0.400858 0.069411 0.610843 0.141144
H61   H     H_    0.443316 0.956606 0.667441 0.165199
O60   O     O_3   0.634285 0.950570 0.407042 -0.566207
C100  C     C_3   0.645021 0.054945 0.363674 -0.089446
H62   H     H_    0.690438 0.045552 0.327901 0.120748
H63   H     H_    0.651518 0.139034 0.396804 0.122494
H64   H     H_    0.598836 0.066807 0.327750 0.144859

loop_
_geom_bond_atom_site_label_1
_geom_bond_atom_site_label_2
_ccdc_geom_bond_type
Cr2   O2    S    
C94   H44   S    
C49   C53   A    
C58   C62   A    
C55   C59   A    
Cr8   O28   S    
C77   O41   A    
C14   C18   A    
C5    C89   A    
C25   H33   S    
C35   C36   A    
C28   H36   S    
C84   C87   D    
C37   O57   S    
C87   C88   S    
C3    O27   A    
Cr2   O22   S    
C32   C75   S    
C99   H60   S    
Cr4   O20   S    
C97   H53   S    
C98   H58   S    
Cr3   O43   S    
C63   C79   S    
C96   H50   S    
Cr8   O8    S    
C15   C19   A    
C94   H45   S    
C74   O10   A    
C50   C54   A    
C79   O43   A    
C46   O34   A    
Cr11  O39   S    
C32   C36   A    
C16   C20   A    
C56   O56   S    
Cr3   O19   S    
C92   H20   S    
C79   O15   A    
Cr6   O30   S    
C69   O45   A    
C80   O16   A    
Cr7   O27   S    
C76   O8    A    
C19   H31   S    
C20   H32   S    
Cr7   O51   S    
C38   O58   S    
Cr5   O25   S    
O56   C96   S    
Cr6   O50   S    
Cr5   O49   S    
C59   H11   S    
C9    C13   A    
C22   C66   S    
C47   O35   A    
C52   C69   S    
C69   O49   A    
C46   C82   S    
C11   C15   A    
C78   O14   A    
C90   H18   S    
C12   C16   A    
C29   C33   A    
C61   C77   S    
C95   H47   S    
C49   C72   S    
Cr8   O32   S    
Cr4   O24   S    
Cr1   O1    S    
C93   H41   S    
C78   O42   A    
C51   C70   S    
C47   C83   S    
C40   O60   S    
C100  H62   S    
Cr10  O10   S    
C39   O59   S    
C81   C86   D    
C68   O4    A    
C45   O33   A    
C73   O5    A    
C70   O50   A    
C44   C52   A    
Cr8   O52   S    
C83   C88   D    
C66   O38   A    
Cr1   O21   S    
C91   H19   S    
C64   C80   S    
Cr10  O14   S    
C86   H2    S    
C1    C12   S    
C43   H7    S    
Cr12  O16   S    
C85   H1    S    
C2    C11   S    
C24   C92   A    
C41   C49   A    
C99   H59   S    
Cr6   O18   S    
C8    H24   S    
C7    C11   A    
Cr4   O44   S    
C96   H51   S    
C80   O44   A    
Cr4   O4    S    
C94   H46   S    
Cr5   O29   S    
O54   C94   S    
C30   C34   A    
C3    O23   A    
O55   C95   S    
Cr10  O38   S    
C20   C24   A    
Cr3   O3    S    
C6    H22   S    
C98   H56   S    
C10   C14   A    
C75   O7    A    
Cr7   O19   S    
C30   C73   S    
C53   C57   A    
C65   O37   A    
C29   C74   S    
C51   C55   A    
C33   H37   S    
C25   C26   A    
C6    C90   A    
Cr7   O7    S    
C81   H14   S    
C76   O12   A    
C27   H35   S    
C56   C60   A    
C38   C62   A    
Cr12  O20   S    
C83   H16   S    
C19   C23   A    
C50   C71   S    
Cr2   O46   S    
C6    C10   A    
C5    C9    A    
C45   O29   A    
C34   H38   S    
C71   O51   A    
O59   C99   S    
Cr9   O9    S    
C8    C12   A    
C7    C91   A    
C93   H43   S    
C46   O30   A    
C33   C34   A    
C22   C90   A    
Cr7   O31   S    
Cr8   O20   S    
Cr12  O12   S    
C100  H63   S    
C85   C86   S    
C67   O39   A    
C2    O26   A    
C8    C92   A    
C44   H8    S    
Cr11  O11   S    
Cr12  O40   S    
C42   C50   A    
Cr1   O17   S    
Cr5   O17   S    
C17   H29   S    
Cr10  O34   S    
C23   C91   A    
C60   H12   S    
C65   O1    A    
C48   O36   A    
Cr9   O37   S    
Cr10  O18   S    
C70   O46   A    
C97   H55   S    
C73   O9    A    
Cr6   O6    S    
C96   H52   S    
C25   C30   A    
C14   H26   S    
C2    O22   A    
C68   O40   A    
C13   H25   S    
Cr3   O47   S    
C4    O28   A    
C21   C65   S    
C27   C32   A    
C18   C22   A    
C4    O24   A    
C59   C63   A    
C62   C78   S    
C28   C31   A    
C45   C81   S    
C21   C89   A    
C93   H42   S    
C26   H34   S    
C87   H3    S    
Cr3   O23   S    
C71   O47   A    
C72   O52   A    
C57   H9    S    
C98   H57   S    
C75   O11   A    
C57   C61   A    
Cr1   O45   S    
C82   C85   D    
C39   C63   A    
C35   H39   S    
Cr11  O19   S    
C40   C64   A    
Cr2   O42   S    
C13   C17   A    
C97   H54   S    
C60   C64   A    
C53   O53   S    
Cr4   O48   S    
Cr9   O17   S    
C42   H6    S    
C55   O55   S    
C3    C10   S    
C54   O54   S    
C67   O3    A    
Cr11  O15   S    
C31   C76   S    
Cr12  O36   S    
C89   H17   S    
C43   C51   A    
C84   H15   S    
C88   H4    S    
C31   C35   A    
C1    O25   A    
O60   C100  S    
C5    H21   S    
C18   H30   S    
Cr11  O35   S    
C99   H61   S    
C37   C41   A    
O53   C93   S    
C16   H28   S    
C100  H64   S    
C17   C21   A    
C66   O2    A    
O57   C97   S    
C23   C67   S    
C24   C68   S    
Cr9   O13   S    
Cr6   O26   S    
C38   C42   A    
C48   C84   S    
C40   C44   A    
C37   C61   A    
C15   H27   S    
C1    O21   A    
C39   C43   A    
C26   C29   A    
C95   H48   S    
C95   H49   S    
C54   C58   A    
C27   C28   A    
C58   H10   S    
Cr5   O5    S    
C74   O6    A    
C41   H5    S    
C82   H13   S    
C7    H23   S    
C4    C9    S    
C36   H40   S    
O58   C98   S    
C72   O48   A    
Cr9   O33   S    
C47   O31   A    
Cr2   O18   S    
C52   C56   A    
C77   O13   A    
C48   O32   A    
Cr1   O41   S    
