data_mof_unit_32418.cif
_audit_creation_date              2012-12-10T20:41:04-0500
_audit_creation_method            fapswitch 2.2
_symmetry_space_group_name_H-M    P1
_symmetry_Int_Tables_number       1
_space_group_crystal_system       triclinic
_cell_length_a                    27.202123
_cell_length_b                    10.662723
_cell_length_c                    9.854798
_cell_angle_alpha                 89.770103
_cell_angle_beta                  89.000729
_cell_angle_gamma                 90.928552
_cell_volume                      2857.53499042

loop_
_atom_site_label
_atom_site_type_symbol
_atom_type_description
_atom_site_fract_x
_atom_site_fract_y
_atom_site_fract_z
_atom_type_partial_charge
C1    C     C_R   0.500371 0.260213 0.499959 0.904006
C2    C     C_R   0.970843 0.274707 0.422408 0.044704
C3    C     C_R   0.967315 0.359113 0.655219 0.044636
C4    C     C_R   0.405514 0.499297 0.501051 0.886510
C5    C     C_R   0.943367 0.313012 0.538411 0.078332
C6    C     C_R   0.944994 0.234867 0.306430 -0.211765
C7    C     C_R   0.893945 0.237010 0.303361 -0.129704
C8    C     C_R   0.866818 0.277284 0.416185 -0.042548
C9    C     C_R   0.891336 0.310657 0.535749 -0.051805
C10   C     C_R   0.863800 0.347181 0.650894 -0.033818
C11   C     C_R   0.812863 0.358671 0.641143 0.538373
C12   C     C_R   0.273281 0.505022 0.393497 -0.079875
C13   C     C_R   0.815774 0.291926 0.410357 0.568296
C14   C     C_R   0.702062 0.289925 0.531240 0.583735
C15   C     C_R   0.653835 0.334772 0.523649 -0.376636
C16   C     C_R   0.500353 0.739811 0.499563 0.919484
C17   C     C_R   0.684337 0.547430 0.474305 -0.052200
C18   C     C_R   0.732199 0.501394 0.476389 -0.243421
C19   C     C_R   0.740876 0.374956 0.505621 0.220570
C20   C     C_R   0.022941 0.283405 0.423864 0.043113
C21   C     C_R   0.046148 0.345513 0.533286 0.073622
C22   C     C_R   0.018493 0.384577 0.648568 0.044139
C23   C     C_R   0.249797 0.448732 0.506722 0.291630
C24   C     C_R   0.052792 0.236058 0.317543 -0.216165
C25   C     C_R   0.092340 0.483633 0.739165 -0.132133
C26   C     C_R   0.938771 0.382457 0.773386 -0.217969
C27   C     C_R   0.887812 0.376790 0.770940 -0.126816
C28   C     C_R   0.594114 0.498401 0.499076 0.988934
C29   C     C_R   0.042594 0.454210 0.750252 -0.216158
C30   C     C_R   0.530922 0.064860 0.591127 0.057499
C31   C     C_R   0.503200 0.128561 0.496517 -0.076453
C32   C     C_R   0.481872 0.064317 0.388094 -0.203464
C33   C     C_R   0.481772 0.935185 0.387988 -0.242236
C34   C     C_R   0.097379 0.371405 0.525968 -0.052044
C35   C     C_R   0.503225 0.871696 0.495926 -0.096014
C36   C     C_R   0.530910 0.936808 0.590815 0.149184
C37   C     C_3   0.531538 0.928674 0.742112 -0.485843
C38   C     C_3   0.531614 0.071127 0.742524 -0.460260
C39   C     C_R   0.475271 0.408688 0.073015 0.094124
C40   C     C_R   0.176513 0.354361 0.410954 0.510278
C41   C     C_R   0.528864 0.583857 0.071681 0.525660
C42   C     C_R   0.528559 0.582584 0.925422 -0.269906
C43   C     C_R   0.475586 0.407314 0.930554 0.134363
C44   C     C_3   0.421585 0.376571 0.929386 -0.242586
C45   C     C_R   0.125846 0.327765 0.415833 -0.021159
C46   C     C_3   0.421743 0.380153 0.084334 -0.502674
C47   C     C_R   0.170213 0.472581 0.615443 0.505992
C48   C     C_R   0.277540 0.413448 0.618483 -0.099864
C49   C     C_R   0.327910 0.435052 0.618115 -0.184660
C50   C     C_R   0.324212 0.523080 0.391418 -0.228188
C51   C     C_2   0.676738 0.683919 0.451348 0.902052
C52   C     C_3   0.572808 0.775165 0.077685 0.048056
C53   C     C_3   0.597341 0.864996 0.176012 -0.731078
C54   C     C_2   0.410578 0.249130 0.868839 0.927172
C55   C     C_3   0.677076 0.099539 0.633652 0.082941
C56   C     C_R   0.103331 0.257489 0.314159 -0.131878
C57   C     C_3   0.698911 0.981310 0.692759 -0.731942
C58   C     C_R   0.120071 0.442740 0.627791 -0.019591
C59   C     C_R   0.351812 0.487934 0.504024 -0.045220
C60   C     C_R   0.645139 0.461968 0.498414 -0.139684
H1    H     H_    0.341935 0.564703 0.302483 0.153960
H2    H     H_    0.497324 0.885853 0.786560 0.217948
H3    H     H_    0.252162 0.533880 0.306984 0.159702
H4    H     H_    0.566372 0.888804 0.779124 0.190156
H5    H     H_    0.497546 0.110524 0.787578 0.240009
H6    H     H_    0.566451 0.113249 0.779956 0.189057
H7    H     H_    0.550741 0.647396 0.865264 0.153900
H8    H     H_    0.399724 0.453109 0.884926 0.144177
H9    H     H_    0.400735 0.460045 0.126501 0.203400
H10   H     H_    0.414557 0.289679 0.137895 0.237333
H11   H     H_    0.124594 0.220275 0.229960 0.192433
H12   H     H_    0.259990 0.368691 0.705915 0.161163
H13   H     H_    0.622468 0.271938 0.537763 0.123652
H14   H     H_    0.875886 0.210250 0.210465 0.190849
H15   H     H_    0.963177 0.207739 0.213369 0.142465
H16   H     H_    0.038241 0.180501 0.235981 0.145967
H17   H     H_    0.348153 0.407012 0.705870 0.176749
H18   H     H_    0.632928 0.833873 0.474457 0.332988
H19   H     H_    0.540072 0.822077 0.035505 0.136406
H20   H     H_    0.600305 0.755561 0.996016 0.146326
H21   H     H_    0.631908 0.824051 0.212996 0.276585
H22   H     H_    0.606258 0.955245 0.123843 0.204152
H23   H     H_    0.108963 0.539039 0.818623 0.192279
H24   H     H_    0.572530 0.883255 0.263822 0.259205
H25   H     H_    0.404386 0.145969 0.698651 0.336908
H26   H     H_    0.646449 0.070773 0.566619 0.144756
H27   H     H_    0.662873 0.156694 0.719881 0.143505
H28   H     H_    0.728797 0.006544 0.763503 0.262065
H29   H     H_    0.669942 0.926777 0.749040 0.197873
H30   H     H_    0.714154 0.922244 0.610163 0.285952
H31   H     H_    0.954875 0.405820 0.869436 0.143627
H32   H     H_    0.867335 0.400197 0.862419 0.195293
H33   H     H_    0.763430 0.564429 0.460301 0.189144
H34   H     H_    0.023518 0.492548 0.837007 0.146865
H35   H     H_    0.462820 0.113170 0.308470 0.178312
H36   H     H_    0.462757 0.885474 0.308223 0.179629
N1    N     N_R   0.197618 0.426536 0.509507 -0.352671
N2    N     N_R   0.790475 0.336397 0.520470 -0.331674
N3    N     N_R   0.499670 0.499140 0.142800 -0.136330
N4    N     N_R   0.499670 0.499180 0.857150 -0.121788
O1    O     O_R   0.500010 0.316790 0.614690 -0.584983
O2    O     O_R   0.571250 0.500000 0.614690 -0.612545
O3    O     O_R   0.571240 0.499960 0.385340 -0.567164
O4    O     O_2   0.204512 0.307162 0.309569 -0.557821
O5    O     O_2   0.709355 0.748068 0.397601 -0.620033
O6    O     O_R   0.633003 0.740363 0.493408 -0.838115
O7    O     O_3   0.559048 0.663386 0.146962 -0.562628
O8    O     O_2   0.399018 0.159473 0.941084 -0.633087
O9    O     O_R   0.412557 0.234768 0.728145 -0.808209
O10   O     O_3   0.713794 0.165213 0.557426 -0.591254
O11   O     O_2   0.791817 0.265946 0.294794 -0.530452
O12   O     O_2   0.191458 0.547596 0.708457 -0.560240
O13   O     O_2   0.786021 0.396230 0.749658 -0.545533
O14   O     O_R   0.500000 0.316760 0.385350 -0.633523
O15   O     O_R   0.428760 0.500040 0.614660 -0.599453
O16   O     O_R   0.428750 0.500000 0.385310 -0.631757
O17   O     O_R   0.500000 0.683240 0.614650 -0.624309
O18   O     O_R   0.499990 0.683210 0.385310 -0.582015
Zn1   Zn    Zn3+2 0.500000 0.500020 0.653130 0.975293
Zn2   Zn    Zn3+2 0.500000 0.499980 0.346870 1.003851

loop_
_geom_bond_atom_site_label_1
_geom_bond_atom_site_label_2
_ccdc_geom_bond_type
C10   C27   A    
C8    C13   A    
C22   C29   A    
C15   C60   A    
C4    O15   A    
O3    Zn2   S    
C17   C51   S    
C37   H2    S    
C6    H15   S    
C12   C23   A    
C26   C27   A    
C57   H29   S    
C53   H24   S    
C50   C59   A    
C36   C37   S    
H25   O9    S    
O17   Zn1   S    
C16   C35   S    
C30   C31   A    
C47   O12   S    
C16   O18   A    
C1    C31   S    
C30   C38   S    
C53   H21   S    
C18   C19   A    
C41   C42   A    
C13   N2    A    
C46   H9    S    
N3    Zn2   S    
C20   C24   A    
C52   O7    S    
C8    C9    A    
C41   N3    A    
C52   H19   S    
C9    C10   A    
C21   C22   A    
C2    C6    A    
C48   H12   S    
C19   N2    S    
C44   C46   S    
C7    H14   S    
C28   C60   S    
C25   C29   A    
C40   C45   A    
C57   H30   S    
C2    C20   A    
O1    Zn1   S    
C38   H6    S    
C7    C8    A    
C43   N4    A    
C45   C56   A    
C28   O2    A    
C40   N1    A    
N4    Zn1   S    
C12   H3    S    
C24   H16   S    
C39   C43   A    
C21   C34   A    
C26   H31   S    
O16   Zn2   S    
C54   O9    S    
C53   H22   S    
C35   C36   A    
C43   C44   S    
C5    C9    A    
C37   C38   S    
C42   N4    A    
C40   O4    S    
C39   N3    A    
C31   C32   A    
C38   H5    S    
C51   O5    D    
C56   H11   S    
C17   C18   A    
C27   H32   S    
C34   C45   A    
C39   C46   S    
C48   C49   A    
C15   H13   S    
O15   Zn1   S    
C55   C57   S    
C55   O10   S    
C42   H7    S    
C44   H8    S    
C2    C5    A    
C1    O14   A    
C33   H36   S    
C1    O1    A    
C37   H4    S    
C11   N2    A    
C52   C53   S    
C34   C58   A    
C14   O10   S    
C23   C48   A    
C41   O7    S    
C23   N1    S    
C14   C19   A    
C4    O16   A    
C3    C26   A    
C3    C5    A    
C49   C59   A    
C12   C50   A    
C6    C7    A    
C54   O8    D    
C24   C56   A    
C47   N1    A    
C57   H28   S    
C30   C36   A    
H18   O6    S    
C32   C33   A    
C55   H26   S    
C13   O11   S    
C16   O17   A    
C47   C58   A    
C28   O3    A    
C29   H34   S    
C51   O6    S    
C4    C59   S    
C33   C35   A    
C49   H17   S    
C55   H27   S    
C11   O13   S    
O18   Zn2   S    
C46   H10   S    
C10   C11   A    
C17   C60   A    
C44   C54   S    
C50   H1    S    
C32   H35   S    
C20   C21   A    
C25   C58   A    
C25   H23   S    
C18   H33   S    
C14   C15   A    
C3    C22   A    
C52   H20   S    
O14   Zn2   S    
O2    Zn1   S    
