data_mof_unit_44751.cif
_audit_creation_date              2012-12-10T16:57:02-0500
_audit_creation_method            fapswitch 2.2
_symmetry_space_group_name_H-M    P1
_symmetry_Int_Tables_number       1
_space_group_crystal_system       triclinic
_cell_length_a                    7.891032
_cell_length_b                    8.623567
_cell_length_c                    16.855796
_cell_angle_alpha                 92.833896
_cell_angle_beta                  81.182088
_cell_angle_gamma                 92.706651
_cell_volume                      1131.16051032

loop_
_atom_site_label
_atom_site_type_symbol
_atom_type_description
_atom_site_fract_x
_atom_site_fract_y
_atom_site_fract_z
_atom_type_partial_charge
C1    C     C_R   0.543536 0.793326 0.497582 0.954336
C2    C     C_R   0.379389 0.443733 0.222055 0.098486
C3    C     C_R   0.619981 0.340322 0.831543 0.144852
C4    C     C_R   0.374888 0.359032 0.149319 0.153340
C5    C     C_R   0.560673 0.453176 0.891607 0.025203
C6    C     C_R   0.527874 0.325599 0.100878 0.065697
C7    C     C_R   0.453804 0.572723 0.876511 0.208665
C8    C     C_R   0.678317 0.321591 0.134235 0.204032
C9    C     C_R   0.418883 0.587014 0.797539 0.118725
C10   C     C_R   0.670411 0.354433 0.217618 0.129269
C11   C     C_2   0.598891 0.438222 0.972514 -0.208320
C12   C     C_R   0.455732 0.206240 0.501259 0.932382
C13   C     C_2   0.528253 0.318622 0.014422 -0.201458
C14   C     C_3   0.601599 0.208109 0.696185 -0.839840
C15   C     C_3   0.233373 0.547601 0.254590 -0.875550
C16   C     C_3   0.807976 0.295987 0.260328 -0.874956
C17   C     C_3   0.330324 0.726356 0.773971 -0.900353
C18   C     C_3   0.377704 0.684791 0.943564 -0.920354
C19   C     C_3   0.843424 0.282101 0.081397 -0.945490
C20   C     C_3   0.214666 0.274532 0.130793 -0.441694
C21   C     C_3   0.222303 0.100981 0.145396 -0.875243
C22   C     C_3   0.756843 0.227509 0.843493 -0.341535
C23   C     C_2   0.559736 0.951497 0.480272 0.007264
C24   C     C_3   0.681559 0.069288 0.872605 -0.892126
C25   C     C_3   0.689951 0.992080 0.407510 -0.934316
C26   C     C_3   0.289248 0.000743 0.582456 -0.912073
C27   C     C_2   0.435203 0.046560 0.516229 -0.017116
C28   C     C_R   0.478633 0.498728 0.653361 0.900230
C29   C     C_R   0.520645 0.486168 0.345884 0.895543
C30   C     C_R   0.474567 0.471475 0.738392 -0.137706
C31   C     C_R   0.526458 0.434528 0.260076 -0.159111
C32   C     C_R   0.562219 0.341711 0.757191 0.089682
H1    H     H_    0.448812 0.230696 0.987599 0.179368
H2    H     H_    0.284957 0.662162 0.275185 0.248136
H3    H     H_    0.900972 0.391975 0.270083 0.250346
H4    H     H_    0.752105 0.250593 0.318674 0.254222
H5    H     H_    0.871781 0.194005 0.229172 0.240023
H6    H     H_    0.418202 0.787902 0.726933 0.217556
H7    H     H_    0.210992 0.687198 0.750285 0.254870
H8    H     H_    0.294516 0.813012 0.823551 0.246885
H9    H     H_    0.396259 0.653042 0.004410 0.243145
H10   H     H_    0.436476 0.803005 0.933698 0.241260
H11   H     H_    0.236727 0.687242 0.944837 0.244382
H12   H     H_    0.663977 0.534539 0.001202 0.168590
H13   H     H_    0.830657 0.255314 0.018062 0.251217
H14   H     H_    0.933033 0.384654 0.082155 0.238928
H15   H     H_    0.893488 0.175300 0.100474 0.251136
H16   H     H_    0.330854 0.048484 0.104766 0.259937
H17   H     H_    0.238718 0.084671 0.208729 0.265185
H18   H     H_    0.102691 0.037305 0.133940 0.243876
H19   H     H_    0.104451 0.320754 0.170239 0.241945
H20   H     H_    0.197322 0.290887 0.067782 0.214928
H21   H     H_    0.683789 0.061298 0.937887 0.254995
H22   H     H_    0.547182 0.048685 0.861283 0.257315
H23   H     H_    0.021370 0.378994 0.439623 0.185083
H24   H     H_    0.760005 0.974772 0.841095 0.253533
H25   H     H_    0.846020 0.209445 0.786390 0.203754
H26   H     H_    0.841657 0.279552 0.885153 0.195801
H27   H     H_    0.754297 0.888058 0.377708 0.249469
H28   H     H_    0.620696 0.039634 0.362316 0.226902
H29   H     H_    0.793396 0.073182 0.424036 0.270316
H30   H     H_    0.231387 0.103543 0.616720 0.240660
H31   H     H_    0.184607 0.936080 0.556214 0.271389
H32   H     H_    0.337212 0.930017 0.626760 0.235051
H33   H     H_    0.978474 0.620605 0.560574 0.190997
H34   H     H_    0.585602 0.094497 0.724839 0.239882
H35   H     H_    0.509896 0.202016 0.653092 0.232321
H36   H     H_    0.734108 0.222487 0.663321 0.252020
H37   H     H_    0.155323 0.572062 0.207464 0.222395
H38   H     H_    0.149036 0.492880 0.305045 0.254302
N1    N     N_2   0.953500 0.457650 0.478520 -0.179724
N2    N     N_2   0.046500 0.542350 0.521480 -0.174234
O1    O     O_R   0.388470 0.738640 0.505270 -0.614537
O2    O     O_R   0.611530 0.261360 0.494730 -0.625208
O3    O     O_R   0.679650 0.711510 0.491500 -0.621692
O4    O     O_R   0.320350 0.288490 0.508500 -0.621981
O5    O     O_R   0.337210 0.515200 0.623500 -0.615726
O6    O     O_R   0.662790 0.484800 0.376500 -0.617087
O7    O     O_R   0.628380 0.488060 0.609730 -0.614509
O8    O     O_R   0.371620 0.511940 0.390270 -0.613366
Zn1   Zn    Zn3+2 0.305580 0.518120 0.509190 0.932403
Zn2   Zn    Zn3+2 0.694420 0.481880 0.490810 0.923082

loop_
_geom_bond_atom_site_label_1
_geom_bond_atom_site_label_2
_ccdc_geom_bond_type
C12   O2    A    
C22   H25   S    
C21   H17   S    
C19   H14   S    
C26   C27   S    
C5    C11   S    
C20   H19   S    
C18   H10   S    
C16   H3    S    
C19   H15   S    
C24   H22   S    
C17   H7    S    
C28   O7    A    
C26   H32   S    
C10   C31   A    
C29   O6    A    
C14   H35   S    
C25   H28   S    
C23   C27   D    
C15   H2    S    
N2    Zn1   S    
C16   H5    S    
N1    Zn2   S    
O2    Zn2   S    
O1    Zn1   S    
C21   H18   S    
C15   H37   S    
C8    C19   S    
C12   C27   S    
C1    O3    A    
C4    C6    A    
C18   H9    S    
C5    C7    A    
C6    C8    A    
C24   H21   S    
C2    C31   A    
C17   H8    S    
C2    C4    A    
C26   H31   S    
C13   H1    S    
C2    C15   S    
O6    Zn2   S    
O5    Zn1   S    
C7    C18   S    
C14   H34   S    
C11   H12   S    
C25   H29   S    
C28   O5    A    
C9    C30   A    
C9    C17   S    
C1    C23   S    
C12   O4    A    
C22   C24   S    
C7    C9    A    
C15   H38   S    
C8    C10   A    
C14   C32   S    
O8    Zn1   S    
C3    C5    A    
O4    Zn1   S    
C22   H26   S    
O7    Zn2   S    
C19   H13   S    
O3    Zn2   S    
C24   H24   S    
H33   N2    S    
C1    O1    A    
C21   H16   S    
C28   C30   S    
C26   H30   S    
N1    N2    D    
C20   H20   S    
C10   C16   S    
C18   H11   S    
C16   H4    S    
C6    C13   S    
C30   C32   A    
C11   C13   D    
C29   O8    A    
C17   H6    S    
C23   C25   S    
C3    C32   A    
C4    C20   S    
C20   C21   S    
C29   C31   S    
C14   H36   S    
C3    C22   S    
C25   H27   S    
H23   N1    S    
