data_mof_unit_65256.cif
_audit_creation_date              2012-10-26T20:15:16-0400
_audit_creation_method            fapswitch 2.2
_symmetry_space_group_name_H-M    P1
_symmetry_Int_Tables_number       1
_space_group_crystal_system       triclinic
_cell_length_a                    11.075608
_cell_length_b                    16.012608
_cell_length_c                    14.768547
_cell_angle_alpha                 89.952866
_cell_angle_beta                  102.611597
_cell_angle_gamma                 89.986808
_cell_volume                      2555.99706993

loop_
_atom_site_label
_atom_site_type_symbol
_atom_type_description
_atom_site_fract_x
_atom_site_fract_y
_atom_site_fract_z
_atom_type_partial_charge
C1    C     C_R   0.500039 0.340900 0.500037 0.554425
C2    C     C_1   0.500051 0.499980 0.197296 0.129937
C3    C     C_R   0.262277 0.500012 0.462814 0.557451
C4    C     C_R   0.737722 0.499987 0.537186 0.557451
C5    C     C_2   0.127763 0.500019 0.441450 -0.121848
C6    C     C_2   0.872237 0.499981 0.558550 -0.121848
C7    C     C_2   0.067147 0.499993 0.510226 -0.153286
C8    C     C_2   0.932853 0.500006 0.489774 -0.153286
C9    C     C_R   0.499588 0.954663 0.580780 -0.072329
C10   C     C_R   0.500412 0.045337 0.419220 -0.072329
C11   C     C_R   0.500007 0.912672 0.497793 -0.025773
C12   C     C_R   0.499961 0.659100 0.499963 0.554425
C13   C     C_R   0.499993 0.087327 0.502207 -0.025773
C14   C     C_R   0.500428 0.957812 0.415784 0.026297
C15   C     C_R   0.499572 0.042188 0.584216 0.026297
C16   C     C_1   0.499983 0.823042 0.498940 -0.073367
C17   C     C_1   0.500017 0.176958 0.501060 -0.073367
C18   C     C_1   0.500032 0.251912 0.500302 -0.018704
C19   C     C_1   0.499968 0.748087 0.499698 -0.018704
C20   C     C_2   0.499114 0.085388 0.673217 0.239565
C21   C     C_2   0.500886 0.914612 0.326783 0.239565
C22   C     C_R   0.580524 0.552139 0.965243 -0.101654
C23   C     C_R   0.419476 0.447861 0.034757 -0.101654
C24   C     C_R   0.499962 0.500017 0.902857 0.003393
C25   C     C_R   0.500038 0.499983 0.097143 0.003393
C26   C     C_R   0.419437 0.447878 0.938966 -0.103368
C27   C     C_R   0.580563 0.552122 0.061034 -0.103368
C28   C     C_1   0.499949 0.500020 0.802704 0.129937
Cu1   Cu    Cu3+1 0.500030 0.500000 0.589230 1.001595
Cu2   Cu    Cu3+1 0.499970 0.500000 0.410770 1.001595
H1    H     H_    0.883235 0.500038 0.417554 0.162516
H2    H     H_    0.356307 0.406961 0.060124 0.120534
H3    H     H_    0.499019 0.153034 0.676897 0.121444
H4    H     H_    0.500981 0.846966 0.323102 0.121444
H5    H     H_    0.116765 0.499962 0.582446 0.162516
H6    H     H_    0.921957 0.499955 0.630696 0.108907
H7    H     H_    0.078043 0.500045 0.369304 0.108907
H8    H     H_    0.499267 0.918673 0.642969 0.172775
H9    H     H_    0.500733 0.081327 0.357031 0.172775
H10   H     H_    0.643757 0.593010 0.107013 0.118346
H11   H     H_    0.356243 0.406990 0.892987 0.118346
H12   H     H_    0.643693 0.593039 0.939876 0.120534
N1    N     N_1   0.500040 0.499980 0.276720 -0.192186
N2    N     N_1   0.499960 0.500020 0.723280 -0.192186
O1    O     O_R   0.500060 0.380310 0.575330 -0.492676
O2    O     O_2   0.501167 0.954160 0.256080 -0.489686
O3    O     O_R   0.499940 0.619690 0.424670 -0.492676
O4    O     O_R   0.500000 0.380310 0.424640 -0.485718
O5    O     O_R   0.500000 0.619690 0.575360 -0.485719
O6    O     O_R   0.320710 0.500010 0.547660 -0.495983
O7    O     O_R   0.679290 0.499990 0.452340 -0.495983
O8    O     O_R   0.320650 0.500010 0.396960 -0.490605
O9    O     O_R   0.679350 0.499990 0.603040 -0.490605
O10   O     O_2   0.498833 0.045839 0.743920 -0.489686

loop_
_geom_bond_atom_site_label_1
_geom_bond_atom_site_label_2
_ccdc_geom_bond_type
C3    O8    A    
C1    O4    A    
Cu1   Cu2   S    
C5    H7    S    
C4    O9    A    
C25   C27   A    
C11   C16   S    
C2    N1    T    
C13   C17   S    
C27   H10   S    
Cu2   O7    S    
C23   H2    S    
C23   C25   A    
C12   O5    A    
C9    C15   A    
C7    C8    S    
Cu1   O5    S    
C9    C11   A    
C20   O10   D    
C1    O1    A    
C1    C18   S    
C22   H12   S    
Cu1   O9    S    
C12   O3    A    
C20   H3    S    
C14   C21   S    
Cu2   O4    S    
C9    H8    S    
C3    O6    A    
C24   C26   A    
C17   C18   T    
C2    C25   S    
Cu1   O6    S    
C13   C15   A    
Cu1   N2    S    
C16   C19   T    
C22   C27   A    
C11   C14   A    
C22   C24   A    
Cu2   N1    S    
C4    O7    A    
Cu2   O3    S    
C12   C19   S    
C4    C6    S    
C21   O2    D    
C10   C14   A    
C23   C26   A    
Cu1   O1    S    
C5    C7    D    
Cu2   O8    S    
C10   H9    S    
C6    C8    D    
C21   H4    S    
C8    H1    S    
C7    H5    S    
C28   N2    T    
C24   C28   S    
C26   H11   S    
C6    H6    S    
C15   C20   S    
C3    C5    S    
C10   C13   A    
