data_mof_unit_16736.cif
_audit_creation_date              2012-12-10T17:19:27-0500
_audit_creation_method            fapswitch 2.2
_symmetry_space_group_name_H-M    P1
_symmetry_Int_Tables_number       1
_space_group_crystal_system       triclinic
_cell_length_a                    15.07536
_cell_length_b                    10.849412
_cell_length_c                    9.631215
_cell_angle_alpha                 90.837642
_cell_angle_beta                  89.927998
_cell_angle_gamma                 94.563631
_cell_volume                      1570.10781421

loop_
_atom_site_label
_atom_site_type_symbol
_atom_type_description
_atom_site_fract_x
_atom_site_fract_y
_atom_site_fract_z
_atom_type_partial_charge
C1    C     C_R   0.507067 0.263803 0.499511 0.782008
C2    C     C_R   0.185097 0.493875 0.373548 -0.249071
C3    C     C_R   0.231625 0.497801 0.499933 -0.070850
C4    C     C_R   0.328733 0.499287 0.500036 0.804966
C5    C     C_R   0.185086 0.499408 0.626151 -0.242086
C6    C     C_R   0.580503 0.134034 0.738098 -0.129098
C7    C     C_R   0.582395 0.079568 0.868064 0.192452
C8    C     C_R   0.541717 0.960967 0.885340 -0.216035
C9    C     C_R   0.506852 0.893677 0.770759 -0.133931
C10   C     C_R   0.513028 0.943120 0.634867 0.099717
C11   C     C_R   0.537606 0.070633 0.623930 0.032552
C12   C     C_R   0.906433 0.491468 0.626869 0.108919
C13   C     C_R   0.516730 0.130974 0.500093 -0.098021
C14   C     C_R   0.493033 0.061720 0.380494 -0.206454
C15   C     C_R   0.486318 0.934200 0.383922 -0.223097
C16   C     C_R   0.496729 0.737680 0.502364 0.830504
C17   C     C_R   0.495546 0.872831 0.509455 -0.113754
C18   C     C_R   0.646859 0.626278 0.142667 0.228513
C19   C     C_R   0.727328 0.641972 0.071642 -0.329042
C20   C     C_R   0.726293 0.645675 0.929963 -0.345582
C21   C     C_R   0.644880 0.629826 0.860428 0.470990
C22   C     C_R   0.570071 0.564519 0.926099 0.063230
C23   C     C_R   0.953112 0.485849 0.246643 -0.215901
C24   C     C_R   0.570477 0.563770 0.075601 0.126740
C25   C     C_R   0.435671 0.436030 0.073253 -0.132143
C26   C     C_R   0.436020 0.434346 0.925409 0.251959
C27   C     C_R   0.671042 0.497087 0.499885 0.814849
C28   C     C_R   0.814016 0.490589 0.625814 -0.255562
C29   C     C_R   0.767689 0.491606 0.499718 -0.089740
C30   C     C_R   0.814000 0.487134 0.373570 -0.260980
C31   C     C_R   0.906428 0.487523 0.372553 0.109517
C32   C     C_R   0.952947 0.490605 0.499723 0.066642
C33   C     C_R   0.045718 0.487813 0.246655 -0.213138
C34   C     C_R   0.092533 0.491482 0.372571 0.109129
C35   C     C_R   0.046034 0.492719 0.499761 0.061469
C36   C     C_R   0.092525 0.496373 0.627003 0.106184
C37   C     C_R   0.045717 0.496913 0.752890 -0.212930
C38   C     C_R   0.953096 0.494199 0.752829 -0.215105
Cu1   Cu    Cu3+1 0.499990 0.499990 0.640660 0.990873
Cu2   Cu    Cu3+1 0.500010 0.500010 0.359340 0.960693
H1    H     H_    0.778353 0.489203 0.723316 0.164269
H2    H     H_    0.918050 0.483579 0.148334 0.144016
H3    H     H_    0.080715 0.486751 0.148333 0.135348
H4    H     H_    0.220732 0.492532 0.275736 0.151688
H5    H     H_    0.220692 0.503112 0.723939 0.155062
H6    H     H_    0.080724 0.499495 0.851244 0.134839
H7    H     H_    0.918014 0.494998 0.851112 0.143617
H8    H     H_    0.478635 0.106044 0.283928 0.156041
H9    H     H_    0.573929 0.156023 0.059233 0.215515
H10   H     H_    0.671564 0.095718 0.024362 0.219850
H11   H     H_    0.635106 0.797898 0.218113 0.192993
H12   H     H_    0.613536 0.225650 0.727535 0.165283
H13   H     H_    0.696462 0.712164 0.318941 0.202076
H14   H     H_    0.693640 0.739862 0.714850 0.302735
H15   H     H_    0.306931 0.384368 0.885420 0.176320
H16   H     H_    0.374098 0.267078 0.881483 0.198407
H17   H     H_    0.538008 0.920100 0.987378 0.131821
H18   H     H_    0.472030 0.805951 0.793879 0.178934
H19   H     H_    0.471446 0.883544 0.287875 0.162503
H20   H     H_    0.383218 0.382964 0.128088 0.134950
H21   H     H_    0.787216 0.678824 0.124804 0.170623
H22   H     H_    0.785978 0.682837 0.877511 0.158603
H23   H     H_    0.778318 0.483294 0.276044 0.169794
N1    N     N_R   0.500860 0.501210 0.147910 -0.186859
N2    N     N_R   0.500890 0.501290 0.852040 -0.182497
N3    N     N_3   0.622635 0.147638 0.983034 -0.599698
N4    N     N_3   0.639100 0.709119 0.257450 -0.507238
N5    N     N_3   0.369024 0.358732 0.852428 -0.523206
O1    O     O_R   0.499990 0.319640 0.618810 -0.568675
O2    O     O_R   0.500000 0.319660 0.381240 -0.585236
O3    O     O_R   0.370250 0.499960 0.618800 -0.560802
O4    O     O_R   0.370260 0.499980 0.381230 -0.594746
O5    O     O_R   0.500000 0.680340 0.618760 -0.539134
O6    O     O_R   0.500010 0.680360 0.381190 -0.555688
O7    O     O_R   0.629740 0.500020 0.618770 -0.556891
O8    O     O_R   0.629750 0.500040 0.381200 -0.570053
O9    O     O_3   0.635923 0.696479 0.742157 -0.693948

loop_
_geom_bond_atom_site_label_1
_geom_bond_atom_site_label_2
_ccdc_geom_bond_type
C27   C29   S    
C19   C20   A    
H15   N5    S    
C7    C8    A    
C29   C30   A    
C23   H2    S    
Cu2   O2    S    
C12   C28   A    
C16   O6    A    
C28   C29   A    
C34   C35   A    
C30   C31   A    
C10   C17   A    
C5    C36   A    
C28   H1    S    
C18   C19   A    
C35   C36   A    
C2    H4    S    
C8    C9    A    
C23   C33   A    
C18   C24   A    
C25   H20   S    
Cu1   O7    S    
C9    C10   A    
H14   O9    S    
C2    C34   A    
C24   N1    A    
C21   C22   A    
C12   C32   A    
C12   C38   A    
Cu1   N2    S    
C27   O7    A    
H9    N3    S    
C16   O5    A    
C33   H3    S    
C32   C35   A    
C6    C11   A    
C16   C17   S    
C14   H8    S    
C18   N4    S    
H16   N5    S    
C5    H5    S    
C1    O1    A    
Cu2   O8    S    
C25   N1    A    
C23   C31   A    
C22   N2    A    
C37   C38   A    
C8    H17   S    
C31   C32   A    
C33   C34   A    
Cu1   O1    S    
H11   N4    S    
H10   N3    S    
C38   H7    S    
C9    H18   S    
C22   C24   A    
C1    C13   S    
C27   O8    A    
C4    O4    A    
C15   C17   A    
C36   C37   A    
Cu2   O4    S    
C26   N2    A    
C15   H19   S    
C3    C5    A    
C6    C7    A    
C1    O2    A    
Cu2   N1    S    
C26   N5    S    
C2    C3    A    
C25   C26   A    
C7    N3    S    
C11   C13   A    
C19   H21   S    
C30   H23   S    
Cu2   O6    S    
Cu1   O5    S    
C20   H22   S    
H13   N4    S    
C10   C11   A    
Cu1   Cu2   S    
C20   C21   A    
C21   O9    S    
Cu1   O3    S    
C14   C15   A    
C6    H12   S    
C37   H6    S    
C13   C14   A    
C4    O3    A    
C3    C4    S    
