data_mof_unit_18051.cif
_audit_creation_date              2012-12-10T18:25:37-0500
_audit_creation_method            fapswitch 2.2
_symmetry_space_group_name_H-M    P1
_symmetry_Int_Tables_number       1
_space_group_crystal_system       triclinic
_cell_length_a                    23.547812
_cell_length_b                    15.875998
_cell_length_c                    14.60869
_cell_angle_alpha                 89.905568
_cell_angle_beta                  90.087527
_cell_angle_gamma                 90.438178
_cell_volume                      5461.21255655

loop_
_atom_site_label
_atom_site_type_symbol
_atom_type_description
_atom_site_fract_x
_atom_site_fract_y
_atom_site_fract_z
_atom_type_partial_charge
C1    C     C_R   0.500002 0.339483 0.500034 0.814393
C2    C     C_R   0.500157 0.660547 0.499926 0.812922
C3    C     C_R   0.237362 0.515239 0.421390 -0.223559
C4    C     C_R   0.761436 0.467060 0.424955 -0.217724
C5    C     C_R   0.296671 0.517609 0.419008 0.404792
C6    C     C_R   0.702137 0.466251 0.423450 0.404810
C7    C     C_R   0.327854 0.502327 0.499970 -0.165621
C8    C     C_R   0.671822 0.495243 0.500366 -0.165978
C9    C     C_R   0.298594 0.489643 0.582701 -0.312131
C10   C     C_R   0.701651 0.519578 0.579416 -0.308842
C11   C     C_R   0.239125 0.489879 0.585736 0.133784
C12   C     C_R   0.761103 0.518174 0.582090 0.134810
C13   C     C_R   0.208430 0.501746 0.503685 0.290713
C14   C     C_R   0.791096 0.492839 0.503237 0.287357
C15   C     C_3   0.554198 0.973661 0.510285 0.353767
C16   C     C_3   0.447181 0.026547 0.488604 0.353969
C17   C     C_3   0.533732 0.028280 0.429262 -0.127449
C18   C     C_3   0.467636 0.972001 0.569653 -0.132516
C19   C     C_1   0.500040 0.250019 0.500067 -0.170717
C20   C     C_1   0.500592 0.750072 0.499680 -0.172107
C21   C     C_3   0.521298 0.027818 0.579558 0.351169
C22   C     C_3   0.480087 0.972387 0.419344 0.351218
C23   C     C_R   0.390578 0.500813 0.499883 0.831474
C24   C     C_R   0.609313 0.498642 0.500005 0.831006
C25   C     C_3   0.500605 0.083148 0.499008 -0.092013
C26   C     C_3   0.500745 0.917037 0.499977 -0.091065
C27   C     C_1   0.500158 0.174644 0.499789 0.075701
C28   C     C_1   0.500877 0.825484 0.499584 0.075239
C29   C     C_3   0.475014 0.570178 0.969112 -0.153740
C30   C     C_3   0.524984 0.429701 0.031068 -0.141632
C31   C     C_3   0.446343 0.502510 0.030786 -0.144943
C32   C     C_3   0.553655 0.497373 0.969392 -0.139265
C33   C     C_3   0.528684 0.567599 0.030835 -0.139011
C34   C     C_3   0.471309 0.432276 0.969334 -0.141588
C35   C     C_3   0.500016 0.499929 0.091351 0.086413
C36   C     C_3   0.499984 0.499951 0.908778 0.083896
C37   C     C_1   0.500023 0.499934 0.194085 0.118972
C38   C     C_1   0.500002 0.499978 0.805950 0.107273
C39   C     C_R   0.880055 0.569170 0.490984 0.527166
C40   C     C_R   0.119493 0.424393 0.506534 0.526948
C41   C     C_R   0.880695 0.419341 0.507091 0.516092
C42   C     C_R   0.118786 0.574521 0.494206 0.515197
C43   C     C_R   0.940252 0.418925 0.506207 -0.010016
C44   C     C_R   0.059249 0.574698 0.492480 -0.009559
C45   C     C_R   0.969800 0.496129 0.498856 -0.018096
C46   C     C_R   0.029717 0.497441 0.499262 -0.018185
C47   C     C_R   0.939576 0.572013 0.490866 -0.017613
C48   C     C_R   0.059957 0.421481 0.506179 -0.017362
C49   C     C_R   0.970829 0.343530 0.512923 -0.171061
C50   C     C_R   0.028682 0.649986 0.484389 -0.171436
C51   C     C_R   0.030080 0.344778 0.512675 -0.171026
C52   C     C_R   0.969446 0.648636 0.483347 -0.171296
Cu1   Cu    Cu3+1 0.500010 0.500000 0.590220 0.971512
Cu2   Cu    Cu3+1 0.499990 0.500000 0.409780 1.009853
H1    H     H_    0.949107 0.283364 0.518510 0.185611
H2    H     H_    0.050399 0.710164 0.478921 0.185599
H3    H     H_    0.401947 0.504651 0.056077 0.134809
H4    H     H_    0.598073 0.495249 0.944190 0.129203
H5    H     H_    0.454331 0.628328 0.943714 0.127256
H6    H     H_    0.545679 0.371615 0.056646 0.127109
H7    H     H_    0.447557 0.376271 0.944081 0.130461
H8    H     H_    0.552421 0.623600 0.056137 0.133296
H9    H     H_    0.052353 0.285535 0.518055 0.186318
H10   H     H_    0.947177 0.707818 0.477147 0.186479
H11   H     H_    0.213515 0.524480 0.358744 0.158276
H12   H     H_    0.784664 0.447107 0.364928 0.161416
H13   H     H_    0.322128 0.479757 0.645560 0.179931
H14   H     H_    0.678531 0.539974 0.639419 0.177132
N1    N     N_R   0.852009 0.493852 0.501143 -0.451804
N2    N     N_R   0.147508 0.500225 0.502537 -0.451973
N3    N     N_1   0.499980 0.500000 0.274190 -0.149863
N4    N     N_1   0.500020 0.500000 0.725810 -0.154518
O1    O     O_R   0.500010 0.379080 0.576170 -0.563534
O2    O     O_R   0.499990 0.620920 0.423830 -0.568818
O3    O     O_R   0.500000 0.379080 0.423800 -0.579753
O4    O     O_R   0.500000 0.620920 0.576200 -0.576418
O5    O     O_R   0.417890 0.499980 0.576200 -0.588746
O6    O     O_R   0.582110 0.500020 0.423800 -0.526245
O7    O     O_R   0.417870 0.499970 0.423830 -0.525581
O8    O     O_R   0.582130 0.500030 0.576170 -0.587938
O9    O     O_2   0.850328 0.641001 0.481403 -0.545717
O10   O     O_2   0.149252 0.352185 0.510967 -0.546222
O11   O     O_2   0.851612 0.346080 0.514519 -0.565502
O12   O     O_2   0.147835 0.647921 0.488108 -0.567147
O13   O     O_3   0.323807 0.531631 0.336462 -0.558997
C53   C     C_3   0.325908 0.619315 0.320131 0.089085
H15   H     H_    0.346587 0.653339 0.378199 0.130510
H16   H     H_    0.282415 0.644589 0.309263 0.144323
C54   C     C_3   0.360630 0.636481 0.234295 -0.757432
H17   H     H_    0.341287 0.603536 0.174786 0.235587
H18   H     H_    0.361847 0.705217 0.220101 0.198091
H19   H     H_    0.404742 0.613998 0.244033 0.256753
O14   O     O_3   0.674223 0.439375 0.345339 -0.557288
C55   C     C_3   0.665227 0.351493 0.351970 0.089236
H20   H     H_    0.642493 0.334328 0.416378 0.119133
H21   H     H_    0.706443 0.317616 0.349423 0.145045
C56   C     C_3   0.628790 0.322267 0.271822 -0.773887
H22   H     H_    0.650405 0.337150 0.206177 0.243487
H23   H     H_    0.621629 0.253144 0.276240 0.189929
H24   H     H_    0.587045 0.354329 0.273368 0.260684
C57   C     C_3   0.209714 0.478980 0.677048 -0.386164
C58   C     C_3   0.193516 0.564506 0.717434 -0.350546
C59   C     C_3   0.163990 0.553997 0.809676 -0.840105
H25   H     H_    0.124362 0.516284 0.801674 0.257725
H26   H     H_    0.192517 0.522131 0.859243 0.254820
H27   H     H_    0.152862 0.616862 0.837269 0.247578
H28   H     H_    0.232381 0.603787 0.726838 0.224006
H29   H     H_    0.164469 0.598076 0.670175 0.248207
H30   H     H_    0.171415 0.438411 0.669881 0.219897
H31   H     H_    0.238272 0.446080 0.725931 0.193342
C60   C     C_3   0.791244 0.542599 0.669782 -0.387241
C61   C     C_3   0.807439 0.464321 0.725210 -0.349825
C62   C     C_3   0.837765 0.488528 0.813808 -0.838225
H32   H     H_    0.877477 0.524007 0.798438 0.257246
H33   H     H_    0.809782 0.527897 0.857116 0.255242
H34   H     H_    0.848864 0.430679 0.852508 0.248386
H35   H     H_    0.768498 0.427496 0.742236 0.225766
H36   H     H_    0.835957 0.423621 0.684506 0.248026
H37   H     H_    0.829611 0.581141 0.654837 0.219251
H38   H     H_    0.763177 0.582780 0.712256 0.192982
C63   C     C_3   0.569870 0.066211 0.352326 -0.397048
C64   C     C_3   0.597762 0.997922 0.293745 -0.299291
C65   C     C_3   0.633550 0.037241 0.217704 -0.882616
H39   H     H_    0.606551 0.076214 0.172099 0.252877
H40   H     H_    0.667793 0.077305 0.247353 0.256701
H41   H     H_    0.653289 0.986721 0.176326 0.252121
H42   H     H_    0.625352 0.957522 0.336664 0.244906
H43   H     H_    0.564936 0.956522 0.262467 0.241270
H44   H     H_    0.542514 0.106558 0.308828 0.188974
H45   H     H_    0.602964 0.107668 0.382967 0.184450
C66   C     C_3   0.431314 0.935228 0.647002 -0.388968
C67   C     C_3   0.403900 0.004600 0.704751 -0.302857
C68   C     C_3   0.368202 0.966825 0.781785 -0.879668
H46   H     H_    0.333655 0.926716 0.753153 0.257730
H47   H     H_    0.395180 0.928295 0.827865 0.252861
H48   H     H_    0.348856 0.018190 0.822416 0.249811
H49   H     H_    0.437000 0.046133 0.735065 0.242064
H50   H     H_    0.376335 0.044658 0.661406 0.244247
H51   H     H_    0.397950 0.893946 0.616879 0.187178
H52   H     H_    0.458439 0.894936 0.690916 0.188696
O15   O     O_3   0.608196 0.937071 0.522684 -0.578422
C69   C     C_3   0.650526 0.999997 0.532423 0.060926
H53   H     H_    0.635844 0.056295 0.570651 0.173463
H54   H     H_    0.665696 0.020683 0.464171 0.153748
C70   C     C_3   0.700841 0.963188 0.583691 -0.779671
H55   H     H_    0.718303 0.909012 0.545140 0.263173
H56   H     H_    0.734592 0.011886 0.591551 0.204720
H57   H     H_    0.687388 0.941382 0.652637 0.244056
O16   O     O_3   0.393185 0.063126 0.476094 -0.577947
C71   C     C_3   0.350850 0.000194 0.466412 0.056992
H58   H     H_    0.335469 0.979934 0.534694 0.154065
H59   H     H_    0.365605 0.943655 0.428663 0.171872
C72   C     C_3   0.300695 0.036774 0.414539 -0.773390
H60   H     H_    0.314327 0.058132 0.345523 0.245667
H61   H     H_    0.266929 0.988080 0.406808 0.202670
H62   H     H_    0.283173 0.091212 0.452579 0.264222
O17   O     O_3   0.458564 0.934124 0.339059 -0.581271
C73   C     C_3   0.440918 0.995641 0.275321 0.069354
H63   H     H_    0.477523 0.017138 0.233569 0.150641
H64   H     H_    0.421319 0.051625 0.307834 0.176887
C74   C     C_3   0.397386 0.956406 0.210921 -0.811941
H65   H     H_    0.359925 0.933793 0.250240 0.246515
H66   H     H_    0.383275 0.003914 0.160034 0.203765
H67   H     H_    0.416412 0.902368 0.174121 0.252433
O18   O     O_3   0.542943 0.065838 0.659908 -0.579922
C75   C     C_3   0.560371 0.004074 0.723555 0.065711
H68   H     H_    0.579541 0.947795 0.690944 0.175208
H69   H     H_    0.523737 0.983134 0.765563 0.150451
C76   C     C_3   0.604288 0.042652 0.787731 -0.803542
H70   H     H_    0.585669 0.096872 0.824751 0.254279
H71   H     H_    0.618232 0.994885 0.838455 0.200820
H72   H     H_    0.641791 0.064809 0.748227 0.248389

loop_
_geom_bond_atom_site_label_1
_geom_bond_atom_site_label_2
_ccdc_geom_bond_type
C73   H64   S    
O18   C75   S    
C18   C21   S    
C76   H71   S    
C76   H70   S    
C60   C61   S    
C18   C26   S    
C32   H4    S    
C63   H45   S    
C70   H57   S    
C70   H55   S    
C65   H39   S    
C45   C46   A    
C72   H60   S    
C29   C36   S    
C57   C58   S    
C40   N2    A    
C30   C35   S    
C32   C36   S    
C41   N1    A    
C35   C37   S    
C62   H32   S    
C61   H35   S    
C33   C35   S    
C53   H16   S    
C65   H40   S    
C13   N2    S    
C57   H30   S    
C41   O11   S    
C29   C33   S    
C42   N2    A    
C21   O18   S    
C60   H37   S    
C64   H42   S    
C44   C50   A    
C66   H52   S    
C73   C74   S    
C70   H56   S    
Cu2   O2    S    
C24   O8    A    
C48   C51   A    
Cu2   N3    S    
C29   H5    S    
C33   H8    S    
C49   C51   A    
C71   C72   S    
C30   H6    S    
C68   H48   S    
C50   C52   A    
C58   H29   S    
C16   O16   S    
C54   H18   S    
C19   C27   T    
C3    C13   A    
C62   H34   S    
C5    O13   S    
C11   C57   S    
C15   O15   S    
C75   H69   S    
C41   C43   A    
C69   C70   S    
C18   C66   S    
C3    H11   S    
C42   C44   A    
C15   C17   S    
C61   C62   S    
C74   H66   S    
C44   C46   A    
C56   H22   S    
C46   C48   A    
C45   C47   A    
C38   N4    T    
C1    C19   S    
C30   C34   S    
C2    C20   S    
C58   C59   S    
C1    O3    A    
C40   O10   S    
Cu1   O8    S    
C51   H9    S    
C39   O9    S    
C4    C6    A    
C56   H23   S    
C5    C7    A    
C53   H15   S    
C67   C68   S    
C15   C26   S    
C6    C8    A    
C20   C28   T    
C55   C56   S    
C3    C5    A    
C57   H31   S    
O13   C53   S    
C34   H7    S    
C50   H2    S    
O17   C73   S    
C62   H33   S    
C60   H38   S    
C72   H62   S    
Cu1   O5    S    
C9    H13   S    
C71   H59   S    
C61   H36   S    
C43   C45   A    
C6    O14   S    
C39   N1    A    
C31   C34   S    
C42   O12   S    
C58   H28   S    
C59   H26   S    
O14   C55   S    
C23   O5    A    
C54   H19   S    
C55   H21   S    
C9    C11   A    
C63   C64   S    
C10   C12   A    
C17   C63   S    
C12   C14   A    
C37   N3    T    
C52   H10   S    
C73   H63   S    
C14   N1    S    
C31   C35   S    
Cu1   O4    S    
C72   H61   S    
C66   C67   S    
C56   H24   S    
C2    O4    A    
C74   H67   S    
C39   C47   A    
Cu2   O7    S    
C24   O6    A    
C16   C25   S    
C40   C48   A    
C21   C25   S    
C16   C22   S    
C69   H53   S    
Cu1   O1    S    
C16   C18   S    
C43   C49   A    
C63   H44   S    
C65   H41   S    
C53   C54   S    
C2    O2    A    
C64   H43   S    
Cu1   Cu2   S    
C47   C52   A    
C22   O17   S    
C10   H14   S    
C25   C27   S    
C26   C28   S    
C17   C22   S    
C1    O1    A    
C32   C33   S    
C31   H3    S    
C36   C38   S    
C54   H17   S    
C17   C25   S    
C29   C31   S    
C49   H1    S    
O15   C69   S    
C30   C32   S    
C11   C13   A    
C68   H46   S    
C75   H68   S    
C74   H65   S    
C7    C23   S    
C8    C24   S    
C59   H27   S    
C34   C36   S    
C4    C14   A    
C55   H20   S    
C66   H51   S    
Cu2   O3    S    
C7    C9    A    
C15   C21   S    
C4    H12   S    
C75   C76   S    
C8    C10   A    
C22   C26   S    
C59   H25   S    
C68   H47   S    
C71   H58   S    
C76   H72   S    
C67   H49   S    
C23   O7    A    
C64   C65   S    
O16   C71   S    
Cu1   N4    S    
C67   H50   S    
C12   C60   S    
C69   H54   S    
Cu2   O6    S    
