data_mof_unit_33565.cif
_audit_creation_date              2012-12-11T14:24:43-0500
_audit_creation_method            fapswitch 2.2
_symmetry_space_group_name_H-M    P1
_symmetry_Int_Tables_number       1
_space_group_crystal_system       triclinic
_cell_length_a                    18.837708
_cell_length_b                    11.079043
_cell_length_c                    18.747772
_cell_angle_alpha                 89.797794
_cell_angle_beta                  90.611832
_cell_angle_gamma                 89.906671
_cell_volume                      3912.47794443

loop_
_atom_site_label
_atom_site_type_symbol
_atom_type_description
_atom_site_fract_x
_atom_site_fract_y
_atom_site_fract_z
_atom_type_partial_charge
C1    C     C_R   0.713678 0.331995 0.138513 0.563183
C2    C     C_R   0.285692 0.333651 0.861628 0.537304
C3    C     C_R   0.213633 0.831891 0.138561 0.564324
C4    C     C_R   0.785697 0.833634 0.861628 0.538434
C5    C     C_3   0.468909 0.056104 0.033188 0.318709
C6    C     C_3   0.518350 0.071674 0.969779 0.286501
C7    C     C_3   0.968802 0.556142 0.033229 0.318765
C8    C     C_3   0.018265 0.571539 0.969822 0.286449
C9    C     C_R   0.772162 0.850274 0.938851 -0.024959
C10   C     C_R   0.226998 0.845200 0.060890 -0.004185
C11   C     C_R   0.272140 0.350331 0.938838 -0.024092
C12   C     C_R   0.726982 0.345269 0.060752 -0.004085
C13   C     C_R   0.715449 0.796057 0.978843 0.020447
C14   C     C_R   0.287759 0.798785 0.023574 0.040901
C15   C     C_R   0.215431 0.296079 0.978823 0.020189
C16   C     C_R   0.787581 0.298554 0.023242 0.041163
C17   C     C_R   0.714176 0.813112 0.054246 0.027014
C18   C     C_R   0.292684 0.819993 0.948708 0.028831
C19   C     C_R   0.214138 0.313149 0.054223 0.027137
C20   C     C_R   0.792195 0.319197 0.948270 0.027534
C21   C     C_R   0.818778 0.936127 0.047732 -0.160909
C22   C     C_R   0.177762 0.917305 0.948646 -0.156283
C23   C     C_R   0.318743 0.436182 0.047718 -0.161108
C24   C     C_R   0.677580 0.417307 0.948532 -0.156007
C25   C     C_R   0.825102 0.912659 0.976154 -0.156543
C26   C     C_R   0.171325 0.895931 0.020871 -0.159317
C27   C     C_R   0.325048 0.412820 0.976132 -0.156258
C28   C     C_R   0.671274 0.396071 0.020801 -0.158996
C29   C     C_R   0.659606 0.726856 0.948448 -0.067004
C30   C     C_R   0.343898 0.731936 0.056249 -0.047346
C31   C     C_R   0.159594 0.226861 0.948416 -0.066985
C32   C     C_R   0.843837 0.231947 0.055807 -0.047617
C33   C     C_R   0.110720 0.167144 0.991278 -0.137501
C34   C     C_R   0.898073 0.181286 0.015720 -0.139329
C35   C     C_R   0.610769 0.667088 0.991330 -0.137874
C36   C     C_R   0.398323 0.681554 0.016345 -0.138894
C37   C     C_R   0.617734 0.669440 0.065032 -0.142904
C38   C     C_R   0.400041 0.696801 0.943501 -0.111518
C39   C     C_R   0.117647 0.169541 0.064980 -0.142841
C40   C     C_R   0.899322 0.195652 0.942761 -0.109527
C41   C     C_R   0.668181 0.743596 0.096556 -0.093293
C42   C     C_R   0.348181 0.765301 0.910083 -0.068373
C43   C     C_R   0.168104 0.243673 0.096517 -0.093062
C44   C     C_R   0.847212 0.263656 0.909344 -0.068832
C45   C     C_R   0.532748 0.155030 0.144459 0.558751
C46   C     C_R   0.439472 0.151576 0.862630 0.550149
C47   C     C_R   0.032732 0.655029 0.144471 0.558524
C48   C     C_R   0.939473 0.651574 0.862632 0.551600
C49   C     C_R   0.760446 0.897456 0.085701 -0.001740
C50   C     C_R   0.241237 0.893694 0.914210 -0.007383
C51   C     C_R   0.260424 0.397469 0.085690 -0.001724
C52   C     C_R   0.740923 0.393296 0.913946 -0.009717
C53   C     C_R   0.496295 0.169952 0.575740 -0.003546
C54   C     C_R   0.506242 0.152870 0.427254 0.002729
C55   C     C_R   0.994792 0.668369 0.574755 -0.006439
C56   C     C_R   0.003595 0.652760 0.426043 0.001603
C57   C     C_R   0.529510 0.069474 0.545842 0.023733
C58   C     C_R   0.520897 0.050729 0.472316 0.032496
C59   C     C_R   0.025855 0.566312 0.543900 0.021868
C60   C     C_R   0.016098 0.549272 0.470385 0.032239
C61   C     C_R   0.479468 0.257697 0.457710 -0.150004
C62   C     C_R   0.468643 0.261302 0.530905 -0.149298
C63   C     C_R   0.977727 0.757677 0.457041 -0.151167
C64   C     C_R   0.967136 0.760387 0.530339 -0.149638
C65   C     C_R   0.560602 0.978453 0.589036 -0.071042
C66   C     C_R   0.524799 0.929956 0.448242 -0.094857
C67   C     C_R   0.055368 0.472261 0.585944 -0.071283
C68   C     C_R   0.016621 0.428969 0.445330 -0.097766
C69   C     C_R   0.057223 0.355543 0.559803 -0.126312
C70   C     C_R   0.037673 0.334717 0.489569 -0.156997
C71   C     C_R   0.566277 0.861805 0.563635 -0.123073
C72   C     C_R   0.548102 0.838332 0.493355 -0.155184
C73   C     C_R   0.743820 0.928684 0.580502 0.020389
C74   C     C_R   0.242511 0.940060 0.422285 0.029276
C75   C     C_R   0.243188 0.434123 0.581902 0.015314
C76   C     C_R   0.747260 0.452963 0.416712 0.031203
C77   C     C_R   0.767048 0.043212 0.559387 0.047991
C78   C     C_R   0.181645 0.970917 0.464563 0.058014
C79   C     C_R   0.272410 0.544071 0.559034 0.048127
C80   C     C_R   0.688049 0.488946 0.459382 0.054671
C81   C     C_R   0.776135 0.064120 0.486400 -0.026706
C82   C     C_R   0.184911 0.940560 0.536764 -0.022270
C83   C     C_R   0.280860 0.561706 0.485551 -0.022630
C84   C     C_R   0.693527 0.463345 0.531531 -0.018589
C85   C     C_R   0.711648 0.877880 0.460569 -0.134134
C86   C     C_R   0.313821 0.943524 0.527601 -0.142436
C87   C     C_R   0.204819 0.386797 0.463237 -0.133864
C88   C     C_R   0.822069 0.475101 0.519481 -0.164731
C89   C     C_R   0.743931 0.963986 0.151369 0.542332
C90   C     C_R   0.256493 0.963856 0.849026 0.532062
C91   C     C_R   0.243927 0.463984 0.151368 0.542559
C92   C     C_R   0.756406 0.463707 0.848914 0.534729
C93   C     C_R   0.718518 0.845267 0.530754 -0.172173
C94   C     C_R   0.308973 0.934053 0.454213 -0.171524
C95   C     C_R   0.211557 0.354914 0.533503 -0.167563
C96   C     C_R   0.815041 0.453507 0.446711 -0.169309
C97   C     C_R   0.791544 0.128039 0.610033 0.311067
C98   C     C_R   0.117766 0.025927 0.437754 0.317101
C99   C     C_R   0.303040 0.625992 0.608225 0.312976
C100  C     C_R   0.622558 0.537794 0.432740 0.314475
C101  C     C_R   0.844838 0.209050 0.589357 -0.100169
C102  C     C_R   0.056085 0.022074 0.479985 -0.133301
C103  C     C_R   0.360154 0.697369 0.585664 -0.106077
C104  C     C_R   0.561150 0.526838 0.475085 -0.135542
C105  C     C_R   0.864682 0.214540 0.518388 -0.188571
C106  C     C_R   0.058995 0.977815 0.549076 -0.165825
C107  C     C_R   0.377966 0.699088 0.514113 -0.196138
C108  C     C_R   0.565968 0.479245 0.543381 -0.169975
C109  C     C_R   0.826454 0.152172 0.466514 -0.129911
C110  C     C_R   0.121970 0.932427 0.576487 -0.097117
C111  C     C_R   0.334983 0.642101 0.463865 -0.126410
C112  C     C_R   0.631038 0.442160 0.570456 -0.091436
C113  C     C_R   0.739113 0.987982 0.437694 0.013197
C114  C     C_R   0.252092 0.936628 0.569366 0.021728
C115  C     C_R   0.238576 0.490324 0.438291 0.009403
C116  C     C_R   0.761537 0.471769 0.562722 0.012950
C117  C     C_R   0.732067 0.387742 0.350567 0.567846
C118  C     C_R   0.267610 0.381924 0.647913 0.600657
C119  C     C_R   0.230746 0.884557 0.352668 0.568153
C120  C     C_R   0.768060 0.880127 0.647204 0.599295
C121  C     C_R   0.532681 0.155113 0.353648 0.540941
C122  C     C_R   0.467640 0.158371 0.647290 0.541552
C123  C     C_R   0.031877 0.655222 0.353134 0.539771
C124  C     C_R   0.967468 0.658107 0.647048 0.532425
C125  C     C_R   0.729385 0.020475 0.363845 0.571735
C126  C     C_R   0.258239 0.972392 0.642965 0.559826
C127  C     C_R   0.229365 0.520804 0.363864 0.572211
C128  C     C_R   0.768964 0.511510 0.635545 0.562051
C129  C     C_3   0.503410 0.266624 0.973648 -0.176651
C130  C     C_3   0.453673 0.250950 0.038713 -0.177460
C131  C     C_3   0.003499 0.766531 0.973633 -0.176901
C132  C     C_3   0.953743 0.751042 0.038697 -0.177522
C133  C     C_3   0.556946 0.175826 0.007745 -0.171457
C134  C     C_3   0.414827 0.144790 0.000745 -0.127042
C135  C     C_3   0.056949 0.675628 0.007763 -0.171310
C136  C     C_3   0.914806 0.644950 0.000752 -0.126977
C137  C     C_3   0.506045 0.160440 0.071054 0.018824
C138  C     C_3   0.465018 0.159983 0.936672 0.019667
C139  C     C_3   0.006027 0.660420 0.071070 0.019040
C140  C     C_3   0.965017 0.659964 0.936680 0.019157
Cr1   Cr    Cr6+3 0.772820 0.169820 0.252640 0.977445
Cr2   Cr    Cr6+3 0.227180 0.169820 0.747360 0.984986
Cr3   Cr    Cr6+3 0.272820 0.669820 0.252640 0.978089
Cr4   Cr    Cr6+3 0.727180 0.669820 0.747360 0.978770
Cr5   Cr    Cr6+3 0.615040 0.323610 0.249150 0.997808
Cr6   Cr    Cr6+3 0.384960 0.323610 0.750850 0.983272
Cr7   Cr    Cr6+3 0.115040 0.823610 0.249150 0.993873
Cr8   Cr    Cr6+3 0.884960 0.823610 0.750850 0.979904
Cr9   Cr    Cr6+3 0.616720 0.011130 0.250660 1.002857
Cr10  Cr    Cr6+3 0.383280 0.011130 0.749340 0.984868
Cr11  Cr    Cr6+3 0.116720 0.511130 0.250660 1.001758
Cr12  Cr    Cr6+3 0.883280 0.511130 0.749340 0.979618
H1    H     H_    0.615356 0.182170 0.012966 0.106128
H2    H     H_    0.356554 0.130557 0.997181 0.126587
H3    H     H_    0.115365 0.681900 0.012986 0.106155
H4    H     H_    0.856521 0.630858 0.997187 0.126763
H5    H     H_    0.464281 0.334116 0.424702 0.126999
H6    H     H_    0.437397 0.334646 0.552206 0.142384
H7    H     H_    0.963263 0.834936 0.424419 0.125325
H8    H     H_    0.936410 0.833924 0.552087 0.142386
H9    H     H_    0.575407 0.995260 0.644111 0.139825
H10   H     H_    0.505384 0.901451 0.396664 0.141048
H11   H     H_    0.071744 0.486938 0.640791 0.138042
H12   H     H_    0.996375 0.403730 0.393407 0.138151
H13   H     H_    0.688391 0.813778 0.423681 0.188393
H14   H     H_    0.366115 0.951343 0.551757 0.155294
H15   H     H_    0.177177 0.325515 0.427696 0.188612
H16   H     H_    0.874508 0.485956 0.542733 0.146394
H17   H     H_    0.704607 0.753847 0.545941 0.139343
H18   H     H_    0.356265 0.920454 0.422839 0.116430
H19   H     H_    0.193768 0.265882 0.549405 0.150634
H20   H     H_    0.861267 0.435278 0.414672 0.114788
H21   H     H_    0.871028 0.268159 0.626890 0.128273
H22   H     H_    0.005689 0.057045 0.461031 0.088984
H23   H     H_    0.389186 0.755413 0.621847 0.112670
H24   H     H_    0.509726 0.558816 0.457094 0.090990
H25   H     H_    0.906278 0.274865 0.502598 0.127986
H26   H     H_    0.012644 0.982154 0.582501 0.123452
H27   H     H_    0.420651 0.755537 0.496374 0.119859
H28   H     H_    0.519698 0.476200 0.576877 0.124486
H29   H     H_    0.841869 0.169294 0.412504 0.171807
H30   H     H_    0.122244 0.898139 0.630673 0.145881
H31   H     H_    0.349088 0.659365 0.409535 0.170575
H32   H     H_    0.632402 0.402295 0.623253 0.166271
H33   H     H_    0.860108 0.986008 0.074336 0.130579
H34   H     H_    0.134113 0.959584 0.920207 0.131913
H35   H     H_    0.360081 0.486008 0.074331 0.130533
H36   H     H_    0.633954 0.459767 0.920158 0.132121
H37   H     H_    0.650264 0.717628 0.892357 0.169396
H38   H     H_    0.349359 0.714549 0.112003 0.173854
H39   H     H_    0.150275 0.217592 0.892327 0.169419
H40   H     H_    0.849497 0.215147 0.111623 0.173591
H41   H     H_    0.872394 0.944861 0.949952 0.149687
H42   H     H_    0.121576 0.919358 0.045717 0.143219
H43   H     H_    0.372302 0.445197 0.949924 0.149629
H44   H     H_    0.621595 0.419645 0.045731 0.143204
H45   H     H_    0.067768 0.116396 0.967127 0.087044
H46   H     H_    0.940110 0.130268 0.041782 0.070378
H47   H     H_    0.567803 0.616357 0.967198 0.086864
H48   H     H_    0.440223 0.630306 0.042478 0.070540
H49   H     H_    0.081466 0.118437 0.097828 0.102568
H50   H     H_    0.940988 0.154113 0.911933 0.098881
H51   H     H_    0.581571 0.618320 0.097891 0.102886
H52   H     H_    0.441941 0.655752 0.912764 0.097565
O1    O     O_R   0.788190 0.043000 0.172520 -0.547514
O2    O     O_R   0.211810 0.043000 0.827480 -0.540178
O3    O     O_R   0.288190 0.543000 0.172520 -0.547882
O4    O     O_R   0.711810 0.543000 0.827480 -0.535947
O5    O     O_R   0.556550 0.253260 0.323480 -0.506932
O6    O     O_R   0.443450 0.253260 0.676520 -0.506546
O7    O     O_R   0.056550 0.753260 0.323480 -0.510154
O8    O     O_R   0.943450 0.753260 0.676520 -0.507410
O9    O     O_R   0.545830 0.051610 0.330160 -0.535906
O10   O     O_R   0.454170 0.051610 0.669840 -0.529338
O11   O     O_R   0.045830 0.551610 0.330160 -0.534415
O12   O     O_R   0.954170 0.551610 0.669840 -0.533681
O13   O     O_R   0.681920 0.959720 0.327070 -0.492327
O14   O     O_R   0.318080 0.959720 0.672930 -0.522252
O15   O     O_R   0.181920 0.459720 0.327070 -0.493320
O16   O     O_R   0.818080 0.459720 0.672930 -0.525386
O17   O     O_3   0.668190 0.168190 0.250820 -0.283182
O18   O     O_3   0.331810 0.168190 0.749180 -0.272269
O19   O     O_3   0.168190 0.668190 0.250820 -0.283517
O20   O     O_3   0.831810 0.668190 0.749180 -0.284803
O21   O     O_R   0.766240 0.292300 0.176860 -0.512558
O22   O     O_R   0.233760 0.292300 0.823140 -0.528358
O23   O     O_R   0.266240 0.792300 0.176860 -0.511563
O24   O     O_R   0.733760 0.792300 0.823140 -0.526483
O25   O     O_R   0.670310 0.409160 0.168720 -0.513821
O26   O     O_R   0.329690 0.409160 0.831280 -0.537705
O27   O     O_R   0.170310 0.909160 0.168720 -0.514341
O28   O     O_R   0.829690 0.909160 0.831280 -0.534919
O29   O     O_R   0.556160 0.251900 0.173380 -0.529990
O30   O     O_R   0.443840 0.251900 0.826620 -0.525162
O31   O     O_R   0.056160 0.751900 0.173380 -0.530346
O32   O     O_R   0.943840 0.751900 0.826620 -0.523696
O33   O     O_R   0.545410 0.050140 0.168240 -0.506737
O34   O     O_R   0.454590 0.050140 0.831760 -0.474014
O35   O     O_R   0.045410 0.550140 0.168240 -0.506961
O36   O     O_R   0.954590 0.550140 0.831760 -0.472190
O37   O     O_R   0.681530 0.958350 0.176970 -0.513850
O38   O     O_R   0.318470 0.958350 0.823030 -0.529673
O39   O     O_R   0.181530 0.458350 0.176970 -0.513715
O40   O     O_R   0.818470 0.458350 0.823030 -0.527865
O41   O     O_R   0.788610 0.044480 0.334450 -0.540581
O42   O     O_R   0.211390 0.044480 0.665550 -0.526045
O43   O     O_R   0.288610 0.544480 0.334450 -0.540818
O44   O     O_R   0.711390 0.544480 0.665550 -0.531803
O45   O     O_R   0.766630 0.293670 0.326970 -0.533155
O46   O     O_R   0.233370 0.293670 0.673030 -0.512818
O47   O     O_R   0.266630 0.793670 0.326970 -0.530688
O48   O     O_R   0.733370 0.793670 0.673030 -0.523336
O49   O     O_R   0.670730 0.410640 0.330640 -0.473826
O50   O     O_R   0.329270 0.410640 0.669360 -0.508598
O51   O     O_R   0.170730 0.910640 0.330640 -0.474019
O52   O     O_R   0.829270 0.910640 0.669360 -0.510836
H53   H     H_    0.074044 0.281466 0.593830 0.122046
H54   H     H_    0.038594 0.245720 0.468696 0.133398
H55   H     H_    0.584881 0.789770 0.598280 0.126152
H56   H     H_    0.552097 0.749166 0.473082 0.134347
O53   O     O_3   0.759337 0.128733 0.676644 -0.576328
C141  C     C_3   0.805708 0.163053 0.732189 -0.100173
H57   H     H_    0.809485 0.262474 0.734579 0.146463
H58   H     H_    0.859256 0.121246 0.727670 0.116730
H59   H     H_    0.782614 0.131596 0.783115 0.151941
O54   O     O_3   0.121485 0.100080 0.377486 -0.561279
C142  C     C_3   0.058759 0.096766 0.335346 -0.084284
H60   H     H_    0.019195 0.162610 0.355093 0.072136
H61   H     H_    0.035263 0.004715 0.332298 0.130418
H62   H     H_    0.072234 0.124153 0.280149 0.128162
O55   O     O_3   0.272881 0.634499 0.675566 -0.578376
C143  C     C_3   0.323062 0.659832 0.729590 -0.100625
H63   H     H_    0.333568 0.757935 0.731810 0.131446
H64   H     H_    0.373608 0.608876 0.723363 0.119402
H65   H     H_    0.299742 0.631789 0.781045 0.155718
O56   O     O_3   0.624108 0.608725 0.370933 -0.563811
C144  C     C_3   0.559388 0.607217 0.332110 -0.087225
H66   H     H_    0.520992 0.672175 0.354996 0.073228
H67   H     H_    0.536064 0.515057 0.328901 0.130274
H68   H     H_    0.569985 0.637086 0.276690 0.125098
H69   H     H_    0.516587 0.353978 0.947910 0.120420
H70   H     H_    0.433126 0.322654 0.073390 0.127560
H71   H     H_    0.016755 0.853829 0.947872 0.120385
H72   H     H_    0.933275 0.822856 0.073342 0.127419
O57   O     O_3   0.448018 0.949989 0.068527 -0.555164
C145  C     C_3   0.504576 0.867116 0.068975 -0.051066
H73   H     H_    0.557646 0.908506 0.077234 0.164536
H74   H     H_    0.505968 0.820092 0.017264 0.179096
H75   H     H_    0.496089 0.800636 0.112400 0.106901
O58   O     O_3   0.550456 0.975174 0.932900 -0.574924
C146  C     C_3   0.608047 0.018329 0.892720 -0.093753
H76   H     H_    0.654645 0.035617 0.928015 0.116059
H77   H     H_    0.594411 0.101055 0.861547 0.137636
H78   H     H_    0.623341 0.947868 0.853961 0.161169
O59   O     O_3   0.947776 0.450114 0.068587 -0.555482
C147  C     C_3   0.004190 0.366957 0.068971 -0.051520
H79   H     H_    0.057309 0.408101 0.077334 0.164752
H80   H     H_    0.005533 0.320049 0.017212 0.179194
H81   H     H_    0.995567 0.300380 0.112314 0.106748
O60   O     O_3   0.050295 0.474938 0.932973 -0.574803
C148  C     C_3   0.107918 0.517937 0.892786 -0.093104
H82   H     H_    0.154523 0.535160 0.928082 0.116809
H83   H     H_    0.094344 0.600669 0.861591 0.137102
H84   H     H_    0.123159 0.447413 0.854047 0.160549
H85   H     H_    0.671392 0.745024 0.154197 0.140638
H86   H     H_    0.351604 0.770260 0.853329 0.108441
H87   H     H_    0.171296 0.245099 0.154157 0.139730
H88   H     H_    0.849995 0.267620 0.852388 0.106450

loop_
_geom_bond_atom_site_label_1
_geom_bond_atom_site_label_2
_ccdc_geom_bond_type
C99   C103  A    
Cr6   O30   S    
C133  C137  S    
C55   C59   A    
C126  O42   A    
Cr1   O45   S    
C146  H76   S    
C73   C93   A    
C136  C140  S    
C75   C95   A    
C112  H32   S    
C148  H82   S    
C135  C139  S    
C84   C112  A    
Cr3   O47   S    
C4    O28   A    
C79   C99   A    
Cr12  O40   S    
Cr5   O29   S    
Cr8   O8    S    
C5    C6    S    
Cr5   O17   S    
O55   C143  S    
C100  C104  A    
C9    C13   A    
C131  C140  S    
Cr7   O27   S    
C50   C90   S    
C66   C72   A    
C12   C16   A    
C143  H63   S    
C88   H16   S    
Cr9   O33   S    
C87   C115  A    
C97   O53   S    
C108  C112  A    
C59   C60   A    
C38   H52   S    
Cr6   O50   S    
C8    C135  S    
C101  C105  A    
C43   H87   S    
C130  C134  S    
C47   O31   A    
C68   H12   S    
C127  O15   A    
C56   C123  S    
C118  O46   A    
C105  H25   S    
C98   C102  A    
C121  O9    A    
C78   C82   A    
C11   C27   A    
C16   C20   A    
C45   O33   A    
Cr9   O13   S    
C129  C133  S    
C147  H79   S    
C100  O56   S    
C29   H37   S    
C3    O27   A    
C26   H42   S    
O60   C148  S    
C2    O22   A    
C148  H84   S    
C145  H75   S    
C107  H27   S    
C120  O48   A    
Cr3   O23   S    
C39   C43   A    
C5    C137  S    
C54   C61   A    
C29   C35   A    
C30   C36   A    
C8    C140  S    
C85   H13   S    
C76   C96   A    
C145  H74   S    
C143  H65   S    
Cr7   O51   S    
Cr2   O2    S    
C69   C70   A    
Cr9   O9    S    
Cr11  O39   S    
C65   H9    S    
C73   C77   A    
C103  C107  A    
C67   C69   A    
C75   C79   A    
C94   H18   S    
C6    O58   S    
Cr1   O17   S    
C6    C138  S    
C101  H21   S    
C63   H7    S    
Cr7   O19   S    
C21   C49   A    
C35   H47   S    
C7    C8    S    
C104  H24   S    
C132  C139  S    
Cr12  O12   S    
C66   H10   S    
C46   O30   A    
C146  H77   S    
C53   C122  S    
C18   C42   A    
O53   C141  S    
C114  C126  S    
C142  H62   S    
C71   H55   S    
C59   C67   A    
C117  O49   A    
C147  H81   S    
C8    O60   S    
C87   C95   A    
Cr1   O41   S    
C122  O6    A    
C77   C97   A    
C128  O16   A    
C84   C116  A    
C144  H66   S    
C1    C12   S    
C11   C15   A    
C2    C11   S    
C87   H15   S    
C20   C44   A    
Cr5   O5    S    
C37   H51   S    
C89   O1    A    
C48   C140  S    
C83   C115  A    
C10   C14   A    
C17   C49   A    
Cr2   O42   S    
C22   H34   S    
C119  O47   A    
C34   H46   S    
C70   H54   S    
C132  C136  S    
C111  H31   S    
C110  H30   S    
C47   O35   A    
C54   C121  S    
Cr8   O52   S    
C90   O38   A    
C74   C78   A    
C47   C139  S    
C69   H53   S    
C129  C130  S    
C109  H29   S    
Cr5   O25   S    
C133  H1    S    
C107  C111  A    
C24   C28   A    
C91   O3    A    
C142  H60   S    
C15   C31   A    
C141  H57   S    
C16   C32   A    
C13   C17   A    
C71   C72   A    
C85   C113  A    
C7    C136  S    
C23   H35   S    
C57   C58   A    
C98   O54   S    
C99   O55   S    
C28   H44   S    
Cr11  O19   S    
C5    O57   S    
C30   H38   S    
C37   C41   A    
C61   C62   A    
Cr1   O1    S    
C2    O26   A    
C63   C64   A    
C126  O14   A    
C40   C44   A    
O56   C144  S    
C143  H64   S    
C144  H68   S    
Cr11  O11   S    
C4    C9    S    
C106  H26   S    
Cr7   O31   S    
C24   C52   A    
C88   C96   A    
C123  O11   A    
C74   C94   A    
C125  O41   A    
C86   H14   S    
C80   C84   A    
C141  H59   S    
C9    C25   A    
C15   C19   A    
C93   H17   S    
C12   C28   A    
C13   C29   A    
C45   O29   A    
C6    C133  S    
C54   C58   A    
Cr6   O18   S    
C31   H39   S    
C32   H40   S    
O58   C146  S    
C21   C25   A    
C51   C91   S    
C90   O2    A    
Cr3   O3    S    
C62   H6    S    
Cr8   O28   S    
C22   C50   A    
C147  H80   S    
C73   C120  S    
Cr10  O18   S    
Cr5   O49   S    
C75   C118  S    
Cr7   O7    S    
C131  H71   S    
C48   O36   A    
C19   C43   A    
Cr2   O22   S    
C148  H83   S    
C76   C80   A    
C49   C89   S    
O59   C147  S    
C117  O45   A    
C124  O8    A    
C56   C60   A    
O57   C145  S    
C61   H5    S    
C77   C81   A    
C64   H8    S    
C103  H23   S    
Cr9   O17   S    
C132  H72   S    
C81   C109  A    
Cr12  O20   S    
C83   C111  A    
C52   C92   S    
C127  O43   A    
C131  C132  S    
C3    O23   A    
C104  C108  A    
C25   H41   S    
C18   C50   A    
C1    O21   A    
C55   C124  S    
C53   C57   A    
C36   H48   S    
C57   C65   A    
C119  O51   A    
C21   H33   S    
Cr11  O35   S    
C76   C117  S    
C24   H36   S    
C44   H88   S    
C36   C38   A    
C79   C83   A    
C142  H61   S    
C134  H2    S    
C105  C109  A    
C41   H85   S    
Cr3   O43   S    
C19   C51   A    
C4    O24   A    
C122  O10   A    
Cr10  O38   S    
C60   C68   A    
C130  H70   S    
C22   C26   A    
C81   C113  A    
C130  C137  S    
C95   H19   S    
C32   C34   A    
Cr4   O4    S    
C125  O13   A    
Cr6   O26   S    
Cr2   O46   S    
C14   C18   A    
C115  C127  S    
C74   C119  S    
C33   C39   A    
C42   H86   S    
C34   C40   A    
C82   C110  A    
C35   C37   A    
C38   C42   A    
C131  C135  S    
Cr3   O19   S    
C145  H73   S    
C136  H4    S    
C113  C125  S    
C135  H3    S    
C108  H28   S    
C118  O50   A    
C106  C110  A    
C58   C66   A    
C129  C138  S    
Cr10  O34   S    
C123  O7    A    
C78   C98   A    
C31   C33   A    
C121  O5    A    
C86   C94   A    
C46   C138  S    
C10   C26   A    
C46   O34   A    
Cr4   O48   S    
C80   C100  A    
C85   C93   A    
C14   C30   A    
Cr6   O6    S    
Cr1   O21   S    
C5    C134  S    
C128  O44   A    
C146  H78   S    
C82   C114  A    
C7    O59   S    
C141  H58   S    
C65   C71   A    
Cr8   O32   S    
C88   C116  A    
C120  O52   A    
C92   O4    A    
C67   H11   S    
C53   C62   A    
C23   C51   A    
Cr12  O36   S    
C33   H45   S    
C55   C64   A    
C45   C137  S    
Cr10  O14   S    
C56   C63   A    
C129  H69   S    
C48   O32   A    
Cr9   O37   S    
C91   O39   A    
C72   H56   S    
C23   C27   A    
C144  H67   S    
C116  C128  S    
C89   O37   A    
Cr4   O44   S    
C124  O12   A    
C40   H50   S    
C134  C138  S    
C102  H22   S    
C86   C114  A    
C39   H49   S    
Cr8   O20   S    
C20   C52   A    
C3    C10   S    
C7    C139  S    
C92   O40   A    
Cr12  O16   S    
C102  C106  A    
Cr11  O15   S    
Cr10  O10   S    
C17   C41   A    
Cr4   O20   S    
O54   C142  S    
C1    O25   A    
C27   H43   S    
C68   C70   A    
C96   H20   S    
Cr4   O24   S    
Cr2   O18   S    
C97   C101  A    
