data_mof_unit_21020.cif
_audit_creation_date              2012-12-11T14:38:22-0500
_audit_creation_method            fapswitch 2.2
_symmetry_space_group_name_H-M    P1
_symmetry_Int_Tables_number       1
_space_group_crystal_system       triclinic
_cell_length_a                    19.6442
_cell_length_b                    11.140144
_cell_length_c                    19.701601
_cell_angle_alpha                 89.958108
_cell_angle_beta                  96.183764
_cell_angle_gamma                 89.892152
_cell_volume                      4286.38720449

loop_
_atom_site_label
_atom_site_type_symbol
_atom_type_description
_atom_site_fract_x
_atom_site_fract_y
_atom_site_fract_z
_atom_type_partial_charge
C1    C     C_R   0.724084 0.956341 0.361182 0.538912
C2    C     C_3   0.177036 0.479983 0.470052 -0.181125
C3    C     C_3   0.604939 0.589445 0.049080 -0.377822
C4    C     C_3   0.948655 0.998654 0.925688 0.007556
C5    C     C_3   0.898352 0.084919 0.953714 -0.375829
C6    C     C_3   0.069649 0.001851 0.072528 0.005553
C7    C     C_3   0.117012 0.094499 0.045496 -0.378909
C8    C     C_3   0.575755 0.553186 0.422772 -0.011230
C9    C     C_3   0.502018 0.515155 0.402302 -0.350926
C10   C     C_3   0.424044 0.552615 0.577282 -0.010896
C11   C     C_3   0.497955 0.514301 0.597089 -0.350712
C12   C     C_3   0.075762 0.053186 0.422764 -0.011190
C13   C     C_3   0.322949 0.979556 0.529862 -0.181197
C14   C     C_3   0.002003 0.015110 0.402451 -0.350784
C15   C     C_3   0.924087 0.052606 0.577103 -0.010740
C16   C     C_3   0.997918 0.014386 0.597391 -0.351012
C17   C     C_3   0.363168 0.042563 0.362062 -0.019396
C18   C     C_3   0.362904 0.158563 0.321119 -0.377500
C19   C     C_3   0.636922 0.043125 0.637892 -0.021182
C20   C     C_3   0.636895 0.159308 0.678537 -0.373724
C21   C     C_3   0.863183 0.542539 0.362086 -0.020262
C22   C     C_3   0.862914 0.658539 0.321146 -0.377082
C23   C     C_3   0.137002 0.543211 0.637978 -0.019046
C24   C     C_3   0.677049 0.979939 0.470035 -0.181116
C25   C     C_3   0.137008 0.659397 0.678634 -0.377644
C26   C     C_3   0.759776 0.297127 0.552629 -0.290937
C27   C     C_3   0.240232 0.297110 0.447515 -0.291520
C28   C     C_3   0.259804 0.797132 0.552627 -0.291363
C29   C     C_3   0.740254 0.797072 0.447514 -0.291382
C30   C     C_3   0.761460 0.430847 0.565788 -0.015017
C31   C     C_3   0.238529 0.430824 0.434200 -0.012666
C32   C     C_3   0.261470 0.930851 0.565787 -0.012542
C33   C     C_R   0.275927 0.956372 0.638789 0.539214
C34   C     C_3   0.738544 0.930787 0.434190 -0.012556
C35   C     C_3   0.742763 0.395038 0.434563 0.099463
C36   C     C_3   0.257225 0.395043 0.565442 0.098647
C37   C     C_3   0.242768 0.895050 0.434562 0.098652
C38   C     C_3   0.757240 0.895017 0.565433 0.098432
C39   C     C_3   0.814896 0.450558 0.453315 0.103167
C40   C     C_3   0.185073 0.451011 0.546641 0.102581
C41   C     C_3   0.314899 0.950586 0.453308 0.102602
C42   C     C_3   0.685081 0.950945 0.546616 0.102689
C43   C     C_3   0.734709 0.279076 0.476939 -0.268648
C44   C     C_R   0.224074 0.456366 0.361190 0.539535
C45   C     C_3   0.265347 0.279002 0.523206 -0.268941
C46   C     C_3   0.234725 0.779083 0.476940 -0.268713
C47   C     C_3   0.765393 0.778978 0.523203 -0.269022
C48   C     C_3   0.489002 0.312683 0.961922 0.155056
C49   C     C_3   0.508397 0.312745 0.038447 0.155204
C50   C     C_3   0.000436 0.813267 0.959872 0.154220
C51   C     C_3   0.024096 0.813812 0.035931 0.151502
C52   C     C_3   0.426433 0.112479 0.973070 -0.019996
C53   C     C_3   0.572738 0.113865 0.027258 -0.019341
C54   C     C_3   0.939847 0.611432 0.974877 -0.025364
C55   C     C_R   0.775924 0.456367 0.638792 0.547289
C56   C     C_3   0.087607 0.615057 0.021412 -0.036736
C57   C     C_3   0.552425 0.118269 0.949386 -0.282724
C58   C     C_3   0.446716 0.116913 0.050984 -0.282845
C59   C     C_3   0.063047 0.619901 0.943883 -0.274137
C60   C     C_3   0.963705 0.619444 0.051908 -0.260200
C61   C     C_R   0.538061 0.180804 0.339619 0.530321
C62   C     C_R   0.461867 0.180778 0.660338 0.531133
C63   C     C_R   0.038068 0.680804 0.339624 0.535952
C64   C     C_R   0.961891 0.680775 0.660352 0.530890
C65   C     C_3   0.481717 0.179075 0.934875 0.053788
C66   C     C_3   0.686499 0.483997 0.455241 0.141867
C67   C     C_3   0.516905 0.179158 0.065502 0.054494
C68   C     C_3   0.991627 0.679287 0.933103 0.058464
C69   C     C_3   0.034971 0.681061 0.062980 0.051916
C70   C     C_1   0.774698 0.463629 0.912247 -0.003780
C71   C     C_1   0.243325 0.416921 0.099317 -0.004669
C72   C     C_1   0.258902 0.920636 0.902179 -0.015200
C73   C     C_1   0.741347 0.920876 0.097870 -0.010153
C74   C     C_1   0.754313 0.424334 0.039150 -0.047997
C75   C     C_1   0.258090 0.388935 0.969813 -0.044766
C76   C     C_1   0.245196 0.894635 0.031975 -0.036012
C77   C     C_3   0.313451 0.483689 0.544660 0.141721
C78   C     C_1   0.755576 0.895113 0.968145 -0.047109
C79   C     C_1   0.763563 0.445510 0.970274 -0.064036
C80   C     C_1   0.253534 0.400257 0.040713 -0.058927
C81   C     C_1   0.249888 0.905576 0.961182 -0.062770
C82   C     C_1   0.750664 0.906019 0.038919 -0.060019
C83   C     C_1   0.746827 0.400713 0.097500 0.003831
C84   C     C_1   0.260298 0.377861 0.909112 0.006023
C85   C     C_1   0.241820 0.882797 0.092406 0.013445
C86   C     C_1   0.758694 0.882898 0.907703 0.000508
C87   C     C_R   0.737045 0.358354 0.362564 0.567273
C88   C     C_3   0.186501 0.983998 0.455248 0.141700
C89   C     C_R   0.262953 0.358281 0.637439 0.568175
C90   C     C_R   0.237046 0.858359 0.362563 0.569695
C91   C     C_R   0.762956 0.858275 0.637436 0.569157
C92   C     C_R   0.722902 0.952874 0.164049 0.553791
C93   C     C_R   0.277122 0.952748 0.835952 0.552340
C94   C     C_R   0.223340 0.451932 0.164526 0.553656
C95   C     C_R   0.791956 0.491187 0.845219 0.578595
C96   C     C_R   0.537788 0.180769 0.139030 0.573757
C97   C     C_R   0.461081 0.180782 0.861331 0.576026
C98   C     C_R   0.059276 0.683027 0.136617 0.600609
C99   C     C_3   0.813455 0.983692 0.544655 0.141643
C100  C     C_R   0.965444 0.680435 0.860078 0.562386
C101  C     C_R   0.736422 0.359014 0.164264 0.546712
C102  C     C_R   0.265502 0.352253 0.838387 0.546110
C103  C     C_R   0.235283 0.854836 0.162498 0.541465
C104  C     C_R   0.764845 0.854559 0.837578 0.539373
C105  C     C_1   0.482051 0.174566 0.592983 -0.020253
C106  C     C_1   0.517745 0.174570 0.406921 -0.020304
C107  C     C_1   0.982094 0.674558 0.593004 -0.019960
C108  C     C_1   0.017769 0.674571 0.406934 -0.022399
C109  C     C_1   0.505849 0.172265 0.465453 -0.037594
C110  C     C_3   0.822947 0.479529 0.529867 -0.182317
C111  C     C_1   0.493883 0.172265 0.534432 -0.037441
C112  C     C_1   0.005887 0.672263 0.465471 -0.037734
C113  C     C_1   0.993931 0.672256 0.534454 -0.037180
C114  C     C_3   0.690182 0.482539 0.534244 -0.218107
C115  C     C_3   0.309800 0.482096 0.465673 -0.217722
C116  C     C_3   0.190184 0.982516 0.534250 -0.217741
C117  C     C_3   0.809809 0.982083 0.465665 -0.217887
C118  C     C_3   0.440168 0.498891 0.924876 0.009790
C119  C     C_3   0.389572 0.587101 0.950857 -0.378846
C120  C     C_3   0.555584 0.499742 0.075494 0.009966
Cr1   Cr    Cr6+3 0.765780 0.160710 0.267420 0.988965
Cr2   Cr    Cr6+3 0.383970 0.323720 0.751490 1.023356
Cr3   Cr    Cr6+3 0.116030 0.823720 0.248510 1.017529
Cr4   Cr    Cr6+3 0.883970 0.823720 0.751490 1.019621
Cr5   Cr    Cr6+3 0.234220 0.160710 0.732580 0.985788
Cr6   Cr    Cr6+3 0.265780 0.660710 0.267420 0.982867
Cr7   Cr    Cr6+3 0.734220 0.660710 0.732580 0.985379
Cr8   Cr    Cr6+3 0.612200 0.009560 0.248850 1.007059
Cr9   Cr    Cr6+3 0.387800 0.009560 0.751150 1.007473
Cr10  Cr    Cr6+3 0.112200 0.509560 0.248850 1.000970
Cr11  Cr    Cr6+3 0.887800 0.509560 0.751150 1.003963
Cr12  Cr    Cr6+3 0.616030 0.323720 0.248510 1.023324
H1    H     H_    0.674280 0.568988 0.554298 0.104198
H2    H     H_    0.127979 0.439353 0.447357 0.109452
H3    H     H_    0.908878 0.116232 0.616333 0.126217
H4    H     H_    0.922264 0.099994 0.527198 0.100411
H5    H     H_    0.032514 0.092152 0.593194 0.071828
H6    H     H_    0.004349 0.982587 0.651030 0.169345
H7    H     H_    0.012743 0.941758 0.563330 0.166735
H8    H     H_    0.343414 0.971481 0.326115 0.163090
H9    H     H_    0.416305 0.018823 0.382455 0.135448
H10   H     H_    0.381895 0.234193 0.354590 0.149601
H11   H     H_    0.396145 0.148631 0.279310 0.108029
H12   H     H_    0.310005 0.179457 0.298321 0.148495
H13   H     H_    0.372009 0.938603 0.552593 0.109273
H14   H     H_    0.657003 0.972299 0.674002 0.163766
H15   H     H_    0.583829 0.019116 0.617701 0.135363
H16   H     H_    0.617657 0.234765 0.644889 0.149780
H17   H     H_    0.603738 0.149511 0.720415 0.110618
H18   H     H_    0.689752 0.180366 0.701228 0.155361
H19   H     H_    0.843441 0.471452 0.326135 0.162392
H20   H     H_    0.916320 0.518816 0.382490 0.135790
H21   H     H_    0.881898 0.734171 0.354621 0.149587
H22   H     H_    0.896159 0.648614 0.279343 0.114519
H23   H     H_    0.810015 0.679420 0.298343 0.148337
H24   H     H_    0.627991 0.939320 0.447335 0.109458
H25   H     H_    0.157121 0.472394 0.674073 0.163331
H26   H     H_    0.083894 0.519190 0.617847 0.135374
H27   H     H_    0.117733 0.734853 0.645004 0.149690
H28   H     H_    0.103893 0.649594 0.720549 0.107230
H29   H     H_    0.189878 0.680471 0.701284 0.148441
H30   H     H_    0.855033 0.382327 0.444810 0.109225
H31   H     H_    0.144946 0.383050 0.555209 0.109263
H32   H     H_    0.355039 0.882363 0.444802 0.109033
H33   H     H_    0.644966 0.882952 0.555172 0.109358
H34   H     H_    0.532352 0.352049 0.936707 0.139887
H35   H     H_    0.464730 0.350980 0.063730 0.137167
H36   H     H_    0.041741 0.853392 0.932060 0.135602
H37   H     H_    0.325700 0.568392 0.445489 0.104811
H38   H     H_    0.980909 0.850848 0.062412 0.154041
H39   H     H_    0.376845 0.161016 0.961805 0.179388
H40   H     H_    0.621909 0.163332 0.038508 0.181401
H41   H     H_    0.889183 0.657105 0.965490 0.171739
H42   H     H_    0.137334 0.663488 0.029991 0.173757
H43   H     H_    0.407165 0.168223 0.075374 0.086260
H44   H     H_    0.591512 0.170530 0.924988 0.090213
H45   H     H_    0.925628 0.672606 0.077325 0.099323
H46   H     H_    0.100164 0.673440 0.917517 0.085454
H47   H     H_    0.552514 0.027685 0.925826 0.135340
H48   H     H_    0.174262 0.068938 0.554318 0.104422
H49   H     H_    0.447438 0.026206 0.074539 0.134623
H50   H     H_    0.062501 0.530014 0.919496 0.134043
H51   H     H_    0.963818 0.529925 0.076696 0.142206
H52   H     H_    0.649386 0.422014 0.549655 0.144550
H53   H     H_    0.350609 0.421267 0.450361 0.144173
H54   H     H_    0.149399 0.921962 0.549656 0.144082
H55   H     H_    0.850627 0.921266 0.450359 0.144205
H56   H     H_    0.700325 0.572774 0.436889 0.140424
H57   H     H_    0.299541 0.572576 0.562848 0.140439
H58   H     H_    0.200320 0.072789 0.436905 0.140453
H59   H     H_    0.825694 0.068388 0.445479 0.104745
H60   H     H_    0.799527 0.072570 0.562834 0.140717
H61   H     H_    0.330342 0.074994 0.539624 0.139786
H62   H     H_    0.669684 0.075441 0.460158 0.139816
H63   H     H_    0.830353 0.574971 0.539629 0.139712
H64   H     H_    0.169665 0.575479 0.460166 0.139806
H65   H     H_    0.812191 0.260077 0.564657 0.112938
H66   H     H_    0.187812 0.260397 0.435586 0.113057
H67   H     H_    0.312226 0.760093 0.564646 0.112844
H68   H     H_    0.687833 0.760362 0.435609 0.112964
H69   H     H_    0.725149 0.253375 0.585572 0.190122
H70   H     H_    0.761202 0.204094 0.457045 0.123134
H71   H     H_    0.274846 0.253113 0.414599 0.189873
H72   H     H_    0.225190 0.753372 0.585577 0.189659
H73   H     H_    0.774853 0.753072 0.414587 0.189922
H74   H     H_    0.679311 0.257817 0.472918 0.174833
H75   H     H_    0.320765 0.257502 0.527245 0.174388
H76   H     H_    0.179327 0.757830 0.472930 0.174838
H77   H     H_    0.820819 0.757537 0.527223 0.174470
H78   H     H_    0.434300 0.502125 0.868243 0.173164
H79   H     H_    0.492411 0.532115 0.942286 0.102927
H80   H     H_    0.385099 0.571391 0.005859 0.155108
H81   H     H_    0.238941 0.204125 0.543200 0.123590
H82   H     H_    0.407416 0.680513 0.944165 0.101381
H83   H     H_    0.338556 0.577927 0.921413 0.154383
H84   H     H_    0.561921 0.502751 0.132132 0.171333
H85   H     H_    0.502888 0.531711 0.058537 0.102003
H86   H     H_    0.610491 0.572368 0.994427 0.156939
H87   H     H_    0.585326 0.682195 0.054393 0.099073
H88   H     H_    0.655685 0.583496 0.079332 0.155623
H89   H     H_    0.940388 0.001643 0.869085 0.172865
H90   H     H_    0.001018 0.033407 0.941071 0.103723
H91   H     H_    0.897214 0.070445 0.009345 0.153331
H92   H     H_    0.261209 0.704099 0.457039 0.123232
H93   H     H_    0.913984 0.179003 0.945055 0.104192
H94   H     H_    0.846317 0.072004 0.927114 0.161139
H95   H     H_    0.076959 0.003574 0.129138 0.175687
H96   H     H_    0.016388 0.032278 0.056912 0.104196
H97   H     H_    0.120403 0.080283 0.990182 0.157786
H98   H     H_    0.096874 0.186268 0.052947 0.101116
H99   H     H_    0.168850 0.089050 0.073660 0.151766
H100  H     H_    0.618334 0.948937 0.019546 0.222615
H101  H     H_    0.540355 0.939082 0.044171 0.224626
H102  H     H_    0.382293 0.946536 0.980712 0.221838
H103  H     H_    0.739048 0.704055 0.543218 0.123341
H104  H     H_    0.460340 0.938497 0.956081 0.224791
H105  H     H_    0.125592 0.445201 0.008366 0.223735
H106  H     H_    0.054966 0.443654 0.047157 0.233588
H107  H     H_    0.899277 0.442795 0.986133 0.220441
H108  H     H_    0.975909 0.438299 0.958241 0.228091
H109  H     H_    0.590954 0.616937 0.383601 0.125159
H110  H     H_    0.577398 0.600366 0.472678 0.100843
H111  H     H_    0.467272 0.592935 0.406466 0.071982
H112  H     H_    0.495775 0.483597 0.348650 0.169068
H113  H     H_    0.487232 0.442372 0.436273 0.166782
H114  H     H_    0.872002 0.438554 0.552599 0.109041
H115  H     H_    0.408975 0.615686 0.616872 0.125780
H116  H     H_    0.421975 0.600684 0.527545 0.100233
H117  H     H_    0.532493 0.592179 0.593001 0.072158
H118  H     H_    0.504668 0.481904 0.650614 0.170446
H119  H     H_    0.512622 0.442077 0.562680 0.166702
H120  H     H_    0.090905 0.116809 0.383496 0.125673
H121  H     H_    0.077481 0.100529 0.472634 0.100701
H122  H     H_    0.967277 0.092957 0.406497 0.071905
H123  H     H_    0.995691 0.983231 0.348860 0.170562
H124  H     H_    0.987255 0.942555 0.436594 0.166594
N1    N     N_3   0.585101 0.989592 0.050471 -0.596197
N2    N     N_3   0.415156 0.988117 0.949802 -0.597130
N3    N     N_3   0.100221 0.490792 0.044433 -0.615163
N4    N     N_3   0.929913 0.485589 0.953408 -0.615974
O1    O     O_R   0.783100 0.287550 0.345460 -0.573642
O2    O     O_R   0.454350 0.284910 0.836260 -0.524222
O3    O     O_R   0.045650 0.784910 0.163740 -0.539602
O4    O     O_R   0.954350 0.784910 0.836260 -0.518048
O5    O     O_R   0.677950 0.374280 0.185410 -0.488370
O6    O     O_R   0.322050 0.374280 0.814590 -0.489897
O7    O     O_R   0.177950 0.874280 0.185410 -0.500318
O8    O     O_R   0.822050 0.874280 0.814590 -0.489981
O9    O     O_3   0.664670 0.164660 0.254930 -0.259053
O10   O     O_3   0.335330 0.164660 0.745070 -0.260917
O11   O     O_3   0.164670 0.664660 0.254930 -0.271014
O12   O     O_R   0.216900 0.287550 0.654540 -0.572512
O13   O     O_3   0.835330 0.664660 0.745070 -0.275889
O14   O     O_R   0.760020 0.037400 0.337700 -0.517610
O15   O     O_R   0.239980 0.037400 0.662300 -0.517397
O16   O     O_R   0.260020 0.537400 0.337700 -0.516649
O17   O     O_R   0.739980 0.537400 0.662300 -0.512393
O18   O     O_R   0.666600 0.921990 0.332020 -0.529346
O19   O     O_R   0.333400 0.921990 0.667980 -0.529272
O20   O     O_R   0.166600 0.421990 0.332020 -0.528782
O21   O     O_R   0.833400 0.421990 0.667980 -0.524611
O22   O     O_R   0.557260 0.082670 0.312540 -0.517616
O23   O     O_R   0.283100 0.787550 0.345460 -0.571970
O24   O     O_R   0.442740 0.082670 0.687460 -0.517396
O25   O     O_R   0.057260 0.582670 0.312540 -0.513271
O26   O     O_R   0.942740 0.582670 0.687460 -0.517771
O27   O     O_R   0.548410 0.285740 0.316480 -0.495106
O28   O     O_R   0.451590 0.285740 0.683520 -0.493776
O29   O     O_R   0.048410 0.785740 0.316480 -0.490692
O30   O     O_R   0.951590 0.785740 0.683520 -0.494278
O31   O     O_R   0.680500 0.375040 0.327000 -0.453959
O32   O     O_R   0.319500 0.375040 0.673000 -0.452574
O33   O     O_R   0.180500 0.875040 0.327000 -0.452134
O34   O     O_R   0.716900 0.787550 0.654540 -0.572190
O35   O     O_R   0.819500 0.875040 0.673000 -0.450459
O36   O     O_R   0.780350 0.286720 0.192720 -0.523935
O37   O     O_R   0.219650 0.286720 0.807280 -0.527162
O38   O     O_R   0.280350 0.786720 0.192720 -0.526402
O39   O     O_R   0.719650 0.786720 0.807280 -0.530122
O40   O     O_R   0.757470 0.036630 0.196110 -0.499244
O41   O     O_R   0.242530 0.036630 0.803890 -0.502024
O42   O     O_R   0.257470 0.536630 0.196110 -0.503080
O43   O     O_R   0.742530 0.536630 0.803890 -0.504982
O44   O     O_R   0.663840 0.921160 0.179280 -0.489925
O45   O     O_R   0.554710 0.081900 0.170950 -0.479313
O46   O     O_R   0.336160 0.921160 0.820720 -0.489398
O47   O     O_R   0.163840 0.421160 0.179280 -0.494426
O48   O     O_R   0.836160 0.421160 0.820720 -0.493248
O49   O     O_3   0.427134 0.380226 0.947172 -0.568284
O50   O     O_3   0.569683 0.381597 0.053027 -0.565792
O51   O     O_3   0.937791 0.879792 0.948786 -0.567331
O52   O     O_3   0.084556 0.884773 0.048868 -0.579152
O53   O     O_3   0.619339 0.451272 0.427085 -0.537892
O54   O     O_3   0.380649 0.450739 0.572849 -0.537900
O55   O     O_3   0.119340 0.951265 0.427101 -0.538137
O56   O     O_R   0.445290 0.081900 0.829050 -0.479838
O57   O     O_3   0.880652 0.950790 0.572875 -0.537696
O58   O     O_3   0.321953 0.058018 0.415933 -0.610931
O59   O     O_3   0.677948 0.058444 0.583868 -0.611074
O60   O     O_3   0.821956 0.557989 0.415945 -0.610912
O61   O     O_3   0.177960 0.558523 0.583893 -0.610906
O62   O     O_R   0.054710 0.581900 0.170950 -0.496338
O63   O     O_R   0.945290 0.581900 0.829050 -0.488422
O64   O     O_R   0.545650 0.284910 0.163740 -0.522118

loop_
_geom_bond_atom_site_label_1
_geom_bond_atom_site_label_2
_ccdc_geom_bond_type
C36   C89   S    
Cr11  O48   S    
C74   C79   S    
C66   H56   S    
C17   O58   S    
C54   N4    S    
C95   O48   A    
C19   C20   S    
C74   C83   T    
C102  O37   A    
C119  H80   S    
C11   H117  S    
Cr11  O13   S    
Cr4   O30   S    
C7    H97   S    
C66   O53   S    
Cr4   O4    S    
C23   H26   S    
C46   H92   S    
C20   H17   S    
H102  N2    S    
C21   H20   S    
Cr8   O18   S    
C26   H65   S    
C107  C113  T    
C100  O4    A    
C120  H85   S    
C25   H27   S    
C45   H81   S    
C103  O7    A    
C48   C65   S    
Cr4   O35   S    
C85   C103  S    
C69   C98   S    
C23   O61   S    
C21   C22   S    
C92   O44   A    
C27   H66   S    
C94   O42   A    
C47   H103  S    
C27   C31   S    
C19   H14   S    
C28   C32   S    
Cr2   O32   S    
Cr2   O2    S    
C35   C66   S    
C60   H45   S    
C42   O59   S    
Cr4   O8    S    
C24   C34   S    
C56   H42   S    
C59   H50   S    
C78   C82   S    
C89   O32   A    
C18   H10   S    
C52   N2    S    
C6    H95   S    
C2    H2    S    
C32   C116  S    
C39   O60   S    
C52   C58   S    
C44   O16   A    
C55   O17   A    
H100  N1    S    
C116  H48   S    
C51   O52   S    
Cr5   O15   S    
Cr9   O56   S    
Cr12  O64   S    
Cr6   O16   S    
C70   C79   T    
C12   O55   S    
C16   H6    S    
C4    C5    S    
C6    C7    S    
H104  N2    S    
C56   C59   S    
C32   C33   S    
C41   O58   S    
C5    H93   S    
C62   O28   A    
C63   O25   A    
C2    C40   S    
C58   C67   S    
C14   H124  S    
C41   H32   S    
C110  H63   S    
C55   O21   A    
C95   O43   A    
C51   C69   S    
C77   C115  S    
C76   C85   T    
C52   C65   S    
C24   H24   S    
Cr10  O62   S    
C7    H98   S    
C103  O38   A    
C84   C102  S    
C13   C32   S    
C13   H13   S    
C86   C104  S    
C46   H76   S    
C28   C46   S    
C37   C90   S    
C29   C47   S    
C58   H49   S    
C27   H71   S    
C18   H11   S    
C109  C111  S    
C4    O51   S    
C99   H60   S    
C75   C84   T    
C54   C68   S    
C4    H89   S    
Cr1   O40   S    
C29   H73   S    
C64   O30   A    
C99   O57   S    
Cr1   O14   S    
C53   H40   S    
Cr12  O5    S    
C35   C87   S    
C25   H29   S    
C3    H88   S    
C20   H16   S    
C35   C43   S    
C50   O51   S    
C42   H33   S    
Cr5   O41   S    
C43   H74   S    
Cr7   O13   S    
C31   C115  S    
C1    C34   S    
C22   H23   S    
C28   H67   S    
C26   H69   S    
C15   H4    S    
C88   O55   S    
C118  H79   S    
C68   C100  S    
C96   O45   A    
C99   C117  S    
Cr4   O13   S    
C14   H122  S    
C24   H62   S    
C17   C18   S    
Cr12  O31   S    
H106  N3    S    
C39   H30   S    
C1    O14   A    
C26   C30   S    
C47   H77   S    
C50   H36   S    
C100  O63   A    
C49   O50   S    
C9    H111  S    
Cr1   O9    S    
Cr11  O21   S    
Cr2   O6    S    
Cr3   O11   S    
C12   H121  S    
C83   C101  S    
C90   O23   A    
C120  O50   S    
C59   H46   S    
C73   C92   S    
C19   O59   S    
C71   C80   T    
C91   O34   A    
Cr5   O10   S    
C77   H57   S    
Cr10  O11   S    
C44   O20   A    
C60   C69   S    
C3    H86   S    
C114  H52   S    
C23   H25   S    
C20   H18   S    
C2    H64   S    
C21   H19   S    
C37   C41   S    
C53   C67   S    
C10   C11   S    
Cr7   O39   S    
H108  N4    S    
C119  H82   S    
C56   C69   S    
C10   H115  S    
C63   C108  S    
C22   H21   S    
Cr3   O33   S    
C93   O46   A    
C8    O53   S    
C89   O12   A    
C24   C42   S    
C37   C88   S    
C58   H43   S    
C13   C41   S    
C7    H99   S    
C88   H58   S    
C77   O54   S    
C30   C110  S    
C62   O24   A    
C36   C77   S    
C33   O19   A    
C115  H53   S    
Cr12  O27   S    
Cr10  O47   S    
C96   O64   A    
C17   H9    S    
Cr9   O10   S    
C117  H59   S    
C6    O52   S    
C6    H96   S    
C97   O56   A    
C87   O31   A    
Cr8   O22   S    
C9    H113  S    
C87   O1    A    
C72   C81   T    
C27   C45   S    
C60   H51   S    
C105  C111  T    
C13   H61   S    
C90   O33   A    
C11   H118  S    
C53   N1    S    
Cr5   O12   S    
Cr6   O11   S    
Cr12  O9    S    
C57   H47   S    
C53   C57   S    
C33   O15   A    
C116  H54   S    
C38   C91   S    
C19   H15   S    
C108  C112  T    
Cr9   O24   S    
C35   C39   S    
Cr5   O37   S    
Cr9   O46   S    
H107  N4    S    
Cr6   O42   S    
C29   H68   S    
C25   H28   S    
C50   C51   S    
Cr7   O17   S    
C61   C106  S    
C97   O2    A    
C72   C93   S    
C48   C49   S    
C10   O54   S    
C94   O47   A    
C56   N3    S    
C73   C82   T    
C30   C114  S    
C101  O5    A    
Cr8   O45   S    
C66   C114  S    
C51   H38   S    
C57   C65   S    
C38   C99   S    
Cr11  O26   S    
C38   C42   S    
C30   C55   S    
C118  O49   S    
C12   H120  S    
C61   O22   A    
C18   H12   S    
C1    O18   A    
C4    H90   S    
C29   C34   S    
C91   O35   A    
Cr10  O20   S    
Cr3   O29   S    
Cr2   O10   S    
Cr3   O7    S    
C48   H34   S    
C3    H87   S    
C37   C46   S    
C50   C68   S    
Cr11  O63   S    
C119  H83   S    
Cr8   O9    S    
C16   H5    S    
C115  H37   S    
C15   O57   S    
C62   C105  S    
C54   C60   S    
C92   O40   A    
C8    H109  S    
C54   H41   S    
C93   O41   A    
C49   H35   S    
C40   O61   S    
Cr7   O43   S    
Cr8   O44   S    
C15   H3    S    
C15   C16   S    
C5    H94   S    
Cr2   O28   S    
C118  C119  S    
Cr1   O1    S    
C98   O3    A    
C39   C110  S    
C14   H123  S    
Cr3   O3    S    
C8    C9    S    
H105  N3    S    
C75   C80   S    
C78   C86   T    
C34   C117  S    
C61   O27   A    
C45   H75   S    
Cr6   O23   S    
C43   H70   S    
Cr10  O25   S    
C52   H39   S    
C112  C113  S    
C26   C43   S    
C31   C44   S    
C28   H72   S    
C36   C40   S    
C40   H31   S    
C117  H55   S    
H101  N1    S    
C11   H119  S    
C2    C31   S    
C88   C116  S    
C59   C68   S    
C57   H44   S    
C8    H110  S    
C36   C45   S    
C38   C47   S    
Cr7   O34   S    
C5    H91   S    
C12   C14   S    
C67   C96   S    
C16   H7    S    
C10   H116  S    
C64   C107  S    
C22   H22   S    
C64   O26   A    
C21   O60   S    
C49   C67   S    
C104  O8    A    
C76   C81   S    
C101  O36   A    
Cr6   O38   S    
C120  H84   S    
C118  H78   S    
C70   C95   S    
C65   C97   S    
C110  H114  S    
C104  O39   A    
C114  H1    S    
Cr9   O19   S    
C17   H8    S    
C23   C25   S    
C48   O49   S    
C3    C120  S    
C98   O62   A    
C102  O6    A    
C63   O29   A    
Cr1   O36   S    
C71   C94   S    
C9    H112  S    
C106  C109  T    
