data_mof_unit_23358.cif
_audit_creation_date              2012-12-10T17:32:58-0500
_audit_creation_method            fapswitch 2.2
_symmetry_space_group_name_H-M    P1
_symmetry_Int_Tables_number       1
_space_group_crystal_system       triclinic
_cell_length_a                    12.359643
_cell_length_b                    13.263368
_cell_length_c                    14.238885
_cell_angle_alpha                 93.283655
_cell_angle_beta                  107.623401
_cell_angle_gamma                 117.021936
_cell_volume                      1928.89334961

loop_
_atom_site_label
_atom_site_type_symbol
_atom_type_description
_atom_site_fract_x
_atom_site_fract_y
_atom_site_fract_z
_atom_type_partial_charge
C1    C     C_R   0.651480 0.714220 0.509584 0.804989
C2    C     C_R   0.842618 0.489224 0.916474 0.117627
C3    C     C_R   0.784523 0.492457 0.987712 0.159143
C4    C     C_R   0.949997 0.468258 0.942874 0.000891
C5    C     C_R   0.008349 0.465811 0.044352 0.069312
C6    C     C_R   0.946220 0.467318 0.113027 -0.192956
C7    C     C_R   0.835881 0.479580 0.084682 -0.226126
C8    C     C_R   0.997196 0.445290 0.870087 -0.262054
C9    C     C_R   0.105501 0.429118 0.896335 0.438020
C10   C     C_R   0.173398 0.439902 0.999100 0.025403
C11   C     C_R   0.125446 0.459696 0.073474 0.032057
C12   C     C_R   0.618278 0.516650 0.686733 0.829241
C13   C     C_R   0.288706 0.432217 0.030042 -0.093874
C14   C     C_R   0.356126 0.444932 0.131788 -0.226785
C15   C     C_R   0.198853 0.477180 0.175846 -0.212095
C16   C     C_R   0.139640 0.967060 0.363524 -0.181234
C17   C     C_R   0.250368 0.162492 0.464804 -0.049755
C18   C     C_R   0.736037 0.920760 0.581312 -0.192500
C19   C     C_R   0.828922 0.037305 0.603244 -0.091920
C20   C     C_R   0.929112 0.072068 0.566197 -0.145752
C21   C     C_R   0.936040 0.990333 0.502992 0.074033
C22   C     C_R   0.832588 0.873600 0.471486 0.099034
C23   C     C_R   0.345640 0.285383 0.485457 0.800991
C24   C     C_R   0.041393 0.020819 0.469048 0.090060
C25   C     C_R   0.036241 0.937765 0.397683 0.171307
C26   C     C_R   0.926514 0.827521 0.359040 -0.233552
C27   C     C_R   0.825153 0.796458 0.393980 -0.197244
C28   C     C_R   0.152328 0.131530 0.504214 -0.229239
C29   C     C_R   0.246023 0.079431 0.396384 -0.183931
C30   C     C_R   0.738438 0.837678 0.517628 -0.085137
C31   C     C_R   0.255907 0.685456 0.663057 -0.151681
C32   C     C_R   0.655457 0.343034 0.363008 0.081392
C33   C     C_R   0.733861 0.309870 0.332481 -0.258025
C34   C     C_R   0.381113 0.482440 0.313103 0.786180
C35   C     C_R   0.869075 0.369438 0.384093 -0.171550
C36   C     C_R   0.928565 0.463962 0.467615 0.012309
C37   C     C_R   0.843935 0.495030 0.495645 0.219689
C38   C     C_R   0.068075 0.528563 0.523946 -0.056301
C39   C     C_R   0.119913 0.622847 0.607468 0.046071
C40   C     C_R   0.035028 0.652509 0.633656 0.362390
C41   C     C_R   0.901178 0.589500 0.577806 -0.278116
C42   C     C_R   0.159333 0.503320 0.501446 0.086972
C43   C     C_R   0.339086 0.656143 0.636854 0.099737
C44   C     C_R   0.678823 0.517341 0.792726 -0.066398
C45   C     C_R   0.311815 0.468238 0.205211 -0.044806
C46   C     C_R   0.674530 0.507327 0.960687 -0.190821
C47   C     C_R   0.620707 0.517964 0.863116 -0.176751
C48   C     C_R   0.791924 0.508334 0.821237 -0.187052
Cu1   Cu    Cu3+1 0.416420 0.526630 0.522910 0.961410
Cu2   Cu    Cu3+1 0.583580 0.473370 0.477090 0.937253
H1    H     H_    0.790975 0.479642 0.139364 0.143107
H2    H     H_    0.329187 0.417440 0.976780 0.203543
H3    H     H_    0.321616 0.102604 0.365062 0.151686
H4    H     H_    0.136157 0.904123 0.308972 0.141489
H5    H     H_    0.663908 0.895316 0.616390 0.155836
H6    H     H_    0.997567 0.163902 0.586667 0.177436
H7    H     H_    0.825582 0.100897 0.651783 0.175576
H8    H     H_    0.739718 0.712042 0.357249 0.168566
H9    H     H_    0.443150 0.704690 0.680113 0.121792
H10   H     H_    0.300131 0.757266 0.727157 0.206492
H11   H     H_    0.550792 0.296207 0.322269 0.123122
H12   H     H_    0.924392 0.339693 0.356859 0.129604
H13   H     H_    0.689583 0.237589 0.268396 0.153408
H14   H     H_    0.843950 0.617540 0.601366 0.255094
H15   H     H_    0.444055 0.438150 0.152966 0.151284
H16   H     H_    0.533069 0.525081 0.842479 0.200207
H17   H     H_    0.839557 0.517672 0.767719 0.173689
H18   H     H_    0.977346 0.454599 0.188532 0.135224
H19   H     H_    0.947653 0.434563 0.790699 0.186774
N1    N     N_R   0.290690 0.566960 0.557640 -0.181725
N2    N     N_R   0.709100 0.433710 0.442970 -0.193122
O1    O     O_R   0.545970 0.684450 0.528810 -0.587990
O2    O     O_R   0.687130 0.639470 0.490120 -0.597696
O3    O     O_R   0.519670 0.535100 0.660030 -0.570842
O4    O     O_R   0.660830 0.490120 0.621340 -0.597223
O5    O     O_R   0.312870 0.360530 0.509880 -0.577793
O6    O     O_R   0.454030 0.315550 0.471190 -0.585256
O7    O     O_R   0.339170 0.509880 0.378660 -0.594252
O8    O     O_R   0.480330 0.464900 0.339970 -0.598015
H20   H     H_    0.918703 0.764976 0.301241 0.145255
H21   H     H_    0.164672 0.196793 0.561364 0.151732
H22   H     H_    0.172035 0.501612 0.234909 0.146188
S1    S     S_3+6 0.091358 0.768767 0.736722 -0.021535
O9    O     O_2   0.158760 0.745606 0.833095 -0.286456
O10   O     O_2   0.186449 0.880285 0.719772 -0.296237
O11   O     O_3   0.966479 0.782372 0.747582 -0.563770
H23   H     H_    0.007988 0.852249 0.802842 0.386080
H24   H     H_    0.128109 0.433267 0.439767 0.107620
S2    S     S_3+6 0.153906 0.397637 0.797934 -0.046340
O12   O     O_2   0.056477 0.379003 0.695610 -0.329985
O13   O     O_2   0.284907 0.497870 0.810803 -0.328574
O14   O     O_3   0.165630 0.276599 0.805131 -0.557578
H25   H     H_    0.209029 0.273027 0.757859 0.366634
H26   H     H_    0.628750 0.508515 0.014447 0.137097

loop_
_geom_bond_atom_site_label_1
_geom_bond_atom_site_label_2
_ccdc_geom_bond_type
C12   O3    A    
C17   C29   A    
C19   C20   A    
C23   O5    A    
C4    C8    A    
Cu2   O8    S    
C19   H7    S    
C8    H19   S    
C17   C23   S    
C31   C43   A    
C36   C37   A    
C32   H11   S    
C38   C42   A    
C3    C7    A    
C38   C39   A    
C42   N1    A    
Cu1   O7    S    
C18   C19   A    
O14   H25   S    
C11   C15   A    
C35   C36   A    
C8    C9    A    
Cu1   O1    S    
C32   N2    A    
C18   C30   A    
C15   H22   S    
C9    C10   A    
C47   H16   S    
C44   C47   A    
C43   H9    S    
C6    H18   S    
C21   C22   A    
C40   S1    S    
C14   C45   A    
C1    O1    A    
C24   C25   A    
Cu2   O2    S    
C9    S2    S    
C39   C40   A    
O11   H23   S    
C2    C48   A    
C25   C26   A    
C10   C13   A    
C26   H20   S    
C31   H10   S    
C2    C4    A    
Cu2   N2    S    
C34   O8    A    
C13   H2    S    
S1    O9    D    
C46   H26   S    
C33   H13   S    
C26   C27   A    
Cu1   O5    S    
C34   C45   S    
C23   O6    A    
S2    O14   S    
C18   H5    S    
C40   C41   A    
S1    O10   D    
C43   N1    A    
C22   C27   A    
C37   N2    A    
C12   O4    A    
S2    O13   D    
C15   C45   A    
Cu2   O6    S    
C16   C25   A    
C46   C47   A    
C22   C30   A    
C28   H21   S    
C17   C28   A    
C24   C28   A    
C4    C5    A    
C27   H8    S    
C5    C11   A    
C6    C7    A    
C3    C46   A    
Cu1   N1    S    
C1    O2    A    
C32   C33   A    
C36   C38   A    
C2    C3    A    
C16   C29   A    
C7    H1    S    
C12   C44   S    
Cu2   O4    S    
C34   O7    A    
C5    C6    A    
C29   H3    S    
C1    C30   S    
C33   C35   A    
C14   H15   S    
C31   C39   A    
C35   H12   S    
C20   H6    S    
C48   H17   S    
C37   C41   A    
C16   H4    S    
C10   C11   A    
S1    O11   S    
C42   H24   S    
C20   C21   A    
Cu1   Cu2   S    
C21   C24   A    
Cu1   O3    S    
C41   H14   S    
S2    O12   D    
C13   C14   A    
C44   C48   A    
