data_mof_unit_17130.cif
_audit_creation_date              2012-12-10T19:27:26-0500
_audit_creation_method            fapswitch 2.2
_symmetry_space_group_name_H-M    P1
_symmetry_Int_Tables_number       1
_space_group_crystal_system       triclinic
_cell_length_a                    23.416058
_cell_length_b                    10.476879
_cell_length_c                    9.781277
_cell_angle_alpha                 89.619395
_cell_angle_beta                  89.145361
_cell_angle_gamma                 89.95181
_cell_volume                      2399.29281636

loop_
_atom_site_label
_atom_site_type_symbol
_atom_type_description
_atom_site_fract_x
_atom_site_fract_y
_atom_site_fract_z
_atom_type_partial_charge
C1    C     C_R   0.499880 0.257601 0.500526 0.849207
C2    C     C_R   0.499922 0.742400 0.499489 0.847253
C3    C     C_R   0.244008 0.614069 0.408171 -0.086502
C4    C     C_R   0.759543 0.453602 0.360860 -0.090876
C5    C     C_R   0.302735 0.612629 0.424710 0.365646
C6    C     C_R   0.701232 0.437583 0.379775 0.365134
C7    C     C_R   0.327968 0.511290 0.499767 -0.164042
C8    C     C_R   0.673302 0.495066 0.493869 -0.194687
C9    C     C_R   0.293252 0.416711 0.562844 0.114773
C10   C     C_R   0.706233 0.557176 0.594463 0.112295
C11   C     C_R   0.234122 0.427754 0.554376 -0.103415
C12   C     C_R   0.765544 0.560936 0.578312 -0.098785
C13   C     C_R   0.209457 0.523408 0.473967 0.153406
C14   C     C_R   0.792102 0.512141 0.460816 0.157156
C15   C     C_3   0.499643 0.039248 0.630692 -0.145244
C16   C     C_3   0.499800 0.960756 0.369367 -0.135817
C17   C     C_3   0.546714 0.956988 0.562931 -0.164915
C18   C     C_3   0.452736 0.043046 0.437144 -0.161004
C19   C     C_3   0.499750 0.877553 0.498387 0.023276
C20   C     C_3   0.499726 0.122448 0.501666 0.018411
C21   C     C_3   0.452671 0.957086 0.565975 -0.179056
C22   C     C_3   0.546780 0.042880 0.434075 -0.177660
C23   C     C_R   0.389758 0.500404 0.500638 0.864683
C24   C     C_R   0.610634 0.498493 0.498960 0.874424
C25   C     C_3   0.506220 0.385256 0.049527 -0.110176
C26   C     C_3   0.493854 0.614805 0.950544 -0.130591
C27   C     C_3   0.547507 0.454272 0.949571 -0.105148
C28   C     C_3   0.452556 0.545804 0.050501 -0.109770
C29   C     C_3   0.459205 0.431867 0.954963 0.269668
C30   C     C_3   0.540904 0.568191 0.045265 0.270485
C31   C     C_R   0.880409 0.631937 0.460201 0.518253
C32   C     C_R   0.121615 0.417804 0.414808 0.518886
C33   C     C_R   0.882847 0.406459 0.423360 0.515797
C34   C     C_R   0.119117 0.636075 0.484976 0.518436
C35   C     C_R   0.942355 0.408507 0.413217 -0.017064
C36   C     C_R   0.059776 0.639268 0.472021 -0.017097
C37   C     C_R   0.971101 0.524015 0.436515 -0.020523
C38   C     C_R   0.031066 0.525986 0.438681 -0.020709
C39   C     C_R   0.940035 0.636873 0.460683 -0.020114
C40   C     C_R   0.062110 0.413982 0.410263 -0.018925
C41   C     C_R   0.973670 0.297353 0.384209 -0.154784
C42   C     C_R   0.028493 0.751715 0.495018 -0.154807
C43   C     C_R   0.033075 0.300540 0.380660 -0.156862
C44   C     C_R   0.969145 0.750938 0.487387 -0.155965
H1    H     H_    0.952444 0.207637 0.364589 0.194665
H2    H     H_    0.049695 0.840382 0.519349 0.193589
H3    H     H_    0.587331 0.415584 0.902921 0.139700
H4    H     H_    0.412525 0.583311 0.097448 0.164370
H5    H     H_    0.510964 0.288712 0.095478 0.139072
H6    H     H_    0.489124 0.711363 0.904622 0.140498
H7    H     H_    0.056084 0.213178 0.358488 0.194279
H8    H     H_    0.946159 0.839016 0.506127 0.195477
H9    H     H_    0.225024 0.687563 0.344997 0.191135
H10   H     H_    0.780102 0.414939 0.270205 0.188696
H11   H     H_    0.207010 0.357809 0.605362 0.178855
H12   H     H_    0.791496 0.603820 0.656455 0.169645
H13   H     H_    0.584891 0.916941 0.613842 0.137972
H14   H     H_    0.414530 0.083129 0.386391 0.151394
H15   H     H_    0.499543 0.075348 0.737180 0.144068
H16   H     H_    0.499862 0.924660 0.262879 0.145759
H17   H     H_    0.414418 0.917150 0.619266 0.146979
H18   H     H_    0.585012 0.082776 0.380658 0.142730
N1    N     N_R   0.853026 0.517262 0.446051 -0.339729
N2    N     N_R   0.148828 0.526284 0.456619 -0.338784
N3    N     N_3   0.499960 0.500030 0.863290 -0.088626
N4    N     N_3   0.500040 0.499970 0.136710 -0.087914
O1    O     O_R   0.500000 0.313960 0.616610 -0.627008
O2    O     O_R   0.500000 0.686040 0.383390 -0.625682
O3    O     O_R   0.500030 0.313950 0.383350 -0.623278
O4    O     O_R   0.499970 0.686050 0.616650 -0.622249
O5    O     O_R   0.416140 0.499970 0.616650 -0.608830
O6    O     O_R   0.583860 0.500030 0.383350 -0.597318
O7    O     O_R   0.416170 0.499960 0.383400 -0.602121
O8    O     O_R   0.583830 0.500040 0.616600 -0.610850
O9    O     O_2   0.849977 0.740646 0.474456 -0.551910
O10   O     O_2   0.152126 0.313810 0.378068 -0.555909
O11   O     O_2   0.855096 0.294033 0.414021 -0.552607
O12   O     O_2   0.146738 0.740944 0.528443 -0.556567
Zn1   Zn    Zn3+2 0.499980 0.500010 0.655740 0.938419
Zn2   Zn    Zn3+2 0.500020 0.499990 0.344260 0.957704
C45   C     C_3   0.410675 0.351638 0.901561 -0.873071
H19   H     H_    0.389036 0.301616 0.988202 0.226525
H20   H     H_    0.379358 0.414845 0.850989 0.263627
H21   H     H_    0.427486 0.279910 0.828456 0.249248
C46   C     C_3   0.589265 0.649285 0.099308 -0.842561
H22   H     H_    0.611082 0.698845 0.012590 0.215350
H23   H     H_    0.572092 0.721529 0.171377 0.245428
H24   H     H_    0.620755 0.587753 0.151739 0.279011
O13   O     O_3   0.333638 0.710755 0.364233 -0.757727
H25   H     H_    0.371062 0.718492 0.409071 0.328394
O14   O     O_3   0.673316 0.364046 0.285257 -0.754899
H26   H     H_    0.642072 0.317372 0.333221 0.334523
C47   C     C_3   0.316523 0.298335 0.631014 -0.881944
H27   H     H_    0.363571 0.289934 0.623041 0.240709
H28   H     H_    0.303494 0.297060 0.740571 0.248634
H29   H     H_    0.298513 0.212487 0.581518 0.256418
C48   C     C_3   0.679843 0.623183 0.716823 -0.824219
H30   H     H_    0.647745 0.694333 0.682964 0.236673
H31   H     H_    0.659485 0.551876 0.786146 0.250832
H32   H     H_    0.712228 0.675018 0.776949 0.230774

loop_
_geom_bond_atom_site_label_1
_geom_bond_atom_site_label_2
_ccdc_geom_bond_type
O2    Zn2   S    
C47   H27   S    
N3    Zn1   S    
C18   C21   S    
C11   C13   A    
C36   C42   A    
C43   H7    S    
C48   H32   S    
O5    Zn1   S    
C48   H30   S    
C46   H22   S    
C28   C29   S    
C35   C37   A    
C2    O2    A    
C26   H6    S    
C16   H16   S    
C33   C35   A    
C6    O14   S    
C15   C17   S    
C42   H2    S    
C17   C19   S    
C18   H14   S    
C40   C43   A    
C21   H17   S    
C3    C13   A    
C44   H8    S    
C2    C19   S    
C47   H28   S    
C27   C30   S    
C41   C43   A    
C42   C44   A    
C23   O7    A    
C45   H20   S    
C45   H19   S    
C46   H23   S    
C25   C29   S    
C15   C20   S    
C31   N1    A    
O1    Zn1   S    
C32   N2    A    
C4    C6    A    
C48   H31   S    
O14   H26   S    
C5    C7    A    
C6    C8    A    
C1    O3    A    
O6    Zn2   S    
C10   C48   S    
C28   N4    S    
C29   C45   S    
C37   C38   A    
C27   N3    S    
C23   O5    A    
C22   H18   S    
C31   O9    S    
C33   N1    A    
C34   N2    A    
C30   N4    S    
C30   C46   S    
C9    C11   A    
C12   H12   S    
C10   C12   A    
C29   N3    S    
C8    C10   A    
C12   C14   A    
C26   C30   S    
C47   H29   S    
O8    Zn1   S    
C9    C47   S    
C45   H21   S    
C11   H11   S    
C24   O6    A    
C46   H24   S    
C27   H3    S    
C7    C9    A    
C28   H4    S    
C1    C20   S    
C16   C22   S    
C4    H10   S    
O4    Zn1   S    
C26   N3    S    
C15   H15   S    
C25   N4    S    
C20   C22   S    
C3    C5    A    
C32   O10   S    
C24   O8    A    
C39   C44   A    
C1    O1    A    
C25   C27   S    
N4    Zn2   S    
C26   C28   S    
C17   C22   S    
C36   C38   A    
C37   C39   A    
C34   O12   S    
C38   C40   A    
C3    H9    S    
C33   O11   S    
C13   N2    S    
C16   C19   S    
C7    C23   S    
C14   N1    S    
C8    C24   S    
O7    Zn2   S    
C31   C39   A    
C18   C20   S    
C32   C40   A    
C4    C14   A    
C35   C41   A    
C25   H5    S    
C15   C21   S    
C34   C36   A    
C16   C18   S    
C41   H1    S    
O3    Zn2   S    
O13   H25   S    
C2    O4    A    
C5    O13   S    
C17   H13   S    
C19   C21   S    
