data_mof_unit_33664.cif
_audit_creation_date              2012-12-10T17:43:18-0500
_audit_creation_method            fapswitch 2.2
_symmetry_space_group_name_H-M    P1
_symmetry_Int_Tables_number       1
_space_group_crystal_system       triclinic
_cell_length_a                    15.014741
_cell_length_b                    13.710729
_cell_length_c                    10.628576
_cell_angle_alpha                 90.290361
_cell_angle_beta                  90.173869
_cell_angle_gamma                 89.809515
_cell_volume                      2187.98086627

loop_
_atom_site_label
_atom_site_type_symbol
_atom_type_description
_atom_site_fract_x
_atom_site_fract_y
_atom_site_fract_z
_atom_type_partial_charge
C1    C     C_R   0.328962 0.500177 0.499619 0.887249
C2    C     C_R   0.671135 0.499907 0.501392 0.874846
C3    C     C_R   0.953280 0.509892 0.506899 -0.009918
C4    C     C_R   0.047087 0.510492 0.501058 -0.010719
C5    C     C_R   0.904516 0.534330 0.398183 0.106960
C6    C     C_R   0.095727 0.490660 0.611605 0.109635
C7    C     C_R   0.959478 0.475487 0.733874 0.166169
C8    C     C_R   0.040620 0.562324 0.279549 0.165507
C9    C     C_R   0.052439 0.476006 0.725612 -0.238795
C10   C     C_R   0.947686 0.561888 0.288376 -0.238433
C11   C     C_R   0.445756 0.793886 0.581086 0.013360
C12   C     C_R   0.554237 0.206112 0.418906 0.033327
C13   C     C_R   0.554259 0.792868 0.418933 0.020581
C14   C     C_R   0.445763 0.207128 0.581092 0.032601
C15   C     C_R   0.555512 0.895889 0.416955 -0.006733
C16   C     C_R   0.444504 0.104105 0.583061 -0.006637
C17   C     C_R   0.444496 0.896937 0.583057 -0.005731
C18   C     C_R   0.555505 0.103059 0.416942 -0.006901
C19   C     C_R   0.500002 0.948193 0.500002 0.089460
C20   C     C_R   0.500005 0.051802 0.500003 0.087664
C21   C     C_R   0.610724 0.947654 0.334274 -0.197076
C22   C     C_R   0.389295 0.052339 0.665745 -0.193432
C23   C     C_R   0.389290 0.949753 0.665742 -0.198397
C24   C     C_R   0.610716 0.050241 0.334262 -0.191845
C25   C     C_R   0.499572 0.499798 0.259121 0.831770
C26   C     C_R   0.500480 0.500236 0.740907 0.814747
C27   C     C_3   0.433529 0.557622 0.041496 -0.108581
C28   C     C_3   0.566412 0.442673 0.958668 -0.130628
C29   C     C_3   0.512448 0.591871 0.960075 -0.165900
C30   C     C_3   0.487490 0.408408 0.040022 -0.139923
C31   C     C_3   0.421624 0.466484 0.956874 -0.155591
C32   C     C_3   0.578320 0.533796 0.043243 -0.189879
C33   C     C_3   0.500537 0.500677 0.877727 0.006888
C34   C     C_3   0.499428 0.499544 0.122356 0.022423
C35   C     C_R   0.812206 0.533784 0.400400 -0.309098
C36   C     C_R   0.188005 0.489092 0.609028 -0.315229
C37   C     C_R   0.767650 0.500523 0.505663 -0.109962
C38   C     C_R   0.232599 0.501310 0.496447 -0.105127
C39   C     C_R   0.814150 0.471485 0.614161 0.296905
C40   C     C_R   0.186498 0.517299 0.383302 0.298549
C41   C     C_R   0.908111 0.484732 0.620703 0.028815
C42   C     C_R   0.092279 0.530148 0.385271 0.026503
Cu1   Cu    Cu3+1 0.500000 0.597420 0.500000 0.954108
Cu2   Cu    Cu3+1 0.500000 0.402580 0.500000 0.984145
H1    H     H_    0.357519 0.439085 0.918444 0.136116
H2    H     H_    0.642455 0.561188 0.081608 0.128747
H3    H     H_    0.379509 0.605367 0.077852 0.179295
H4    H     H_    0.620416 0.394705 0.923167 0.199128
H5    H     H_    0.522704 0.667047 0.924716 0.146724
H6    H     H_    0.477238 0.333227 0.075365 0.150424
H7    H     H_    0.774369 0.555693 0.317929 0.133676
H8    H     H_    0.225820 0.476795 0.694803 0.133598
H9    H     H_    0.092278 0.466533 0.810068 0.138584
H10   H     H_    0.907709 0.584739 0.208591 0.133523
H11   H     H_    0.403407 0.753458 0.644328 0.125957
H12   H     H_    0.596579 0.246540 0.355654 0.125159
H13   H     H_    0.596647 0.751656 0.355716 0.124933
H14   H     H_    0.403394 0.248337 0.644333 0.124048
H15   H     H_    0.653928 0.908823 0.269591 0.138474
H16   H     H_    0.346100 0.091168 0.730440 0.140424
H17   H     H_    0.346093 0.911746 0.730435 0.138553
H18   H     H_    0.653909 0.088247 0.269566 0.141988
N1    N     N_R   0.500000 0.743810 0.500000 -0.184613
N2    N     N_R   0.500000 0.256190 0.500000 -0.182926
O1    O     O_R   0.370260 0.582280 0.500030 -0.579903
O2    O     O_R   0.629740 0.417720 0.499970 -0.547526
O3    O     O_R   0.629740 0.582280 0.499970 -0.594547
O4    O     O_R   0.370260 0.417720 0.500030 -0.573676
O5    O     O_R   0.499980 0.582260 0.316850 -0.588180
O6    O     O_R   0.500020 0.417740 0.683150 -0.575717
O7    O     O_R   0.500020 0.582260 0.683150 -0.597535
O8    O     O_R   0.499980 0.417740 0.316850 -0.589765
Cl1   Cl    Cl    0.752147 0.409210 0.729905 -0.703367
Cl2   Cl    Cl    0.249896 0.505364 0.243789 -0.722237
C43   C     C_3   0.921484 0.474928 0.866639 -0.334664
C44   C     C_3   0.872230 0.569876 0.897642 -0.804345
H19   H     H_    0.919246 0.632189 0.894524 0.234941
H20   H     H_    0.817068 0.584153 0.830683 0.280524
H21   H     H_    0.843783 0.565433 0.993697 0.226913
H22   H     H_    0.880105 0.409961 0.883833 0.253836
H23   H     H_    0.975520 0.468023 0.937899 0.171626
C45   C     C_3   0.078159 0.606339 0.159691 -0.351811
C46   C     C_3   0.125750 0.702858 0.185586 -0.768458
H24   H     H_    0.077730 0.757167 0.223758 0.237332
H25   H     H_    0.180958 0.694156 0.254080 0.278148
H26   H     H_    0.153563 0.731454 0.096451 0.234661
H27   H     H_    0.120135 0.553951 0.107240 0.246363
H28   H     H_    0.024016 0.623151 0.091516 0.177894

loop_
_geom_bond_atom_site_label_1
_geom_bond_atom_site_label_2
_ccdc_geom_bond_type
C27   C29   S    
Cu2   O2    S    
C19   C20   A    
C44   H21   S    
Cu1   Cu2   S    
C6    C9    A    
Cu1   N1    S    
C39   C41   A    
C29   H5    S    
Cu2   N2    S    
C15   C19   A    
C17   C23   A    
C8    C45   S    
C35   C37   A    
C44   H20   S    
C21   H15   S    
C29   C32   S    
C11   N1    A    
C22   H16   S    
C30   C31   S    
C12   N2    A    
C13   H13   S    
C45   H27   S    
C29   C33   S    
C1    O4    A    
C11   C17   A    
C6    C36   A    
C16   C22   A    
C31   C33   S    
Cu2   O6    S    
C43   H22   S    
C18   C20   A    
C36   H8    S    
C16   C20   A    
C25   C34   S    
C40   C42   A    
C30   H6    S    
Cu1   O5    S    
C26   O7    A    
C28   H4    S    
C27   C34   S    
C14   H14   S    
C30   C34   S    
C27   C31   S    
C28   C32   S    
Cu1   O7    S    
C44   H19   S    
C4    C6    A    
C2    O3    A    
C43   H23   S    
C7    C43   S    
C2    O2    A    
C32   C34   S    
C43   C44   S    
C26   C33   S    
C1    O1    A    
C46   H24   S    
C13   N1    A    
C15   C21   A    
Cu1   O1    S    
C14   N2    A    
C25   O8    A    
C12   H12   S    
C1    C38   S    
C39   Cl1   S    
Cu1   O3    S    
C46   H25   S    
C28   C33   S    
C13   C15   A    
C35   H7    S    
C26   O6    A    
C18   C24   A    
Cu2   O4    S    
C9    H9    S    
C3    C4    A    
C11   H11   S    
C27   H3    S    
C7    C9    A    
C3    C41   A    
C24   H18   S    
C32   H2    S    
C8    C42   A    
C3    C5    A    
C28   C30   S    
C5    C10   A    
C37   C39   A    
C38   C40   A    
C2    C37   S    
C4    C42   A    
C45   H28   S    
C5    C35   A    
C36   C38   A    
C17   C19   A    
C40   Cl2   S    
Cu2   O8    S    
C14   C16   A    
C7    C41   A    
C10   H10   S    
C23   H17   S    
C46   H26   S    
C25   O5    A    
C8    C10   A    
C45   C46   S    
C31   H1    S    
C21   C24   A    
C12   C18   A    
C22   C23   A    
