data_mof_unit_47826.cif
_audit_creation_date              2012-12-10T19:08:09-0500
_audit_creation_method            fapswitch 2.2
_symmetry_space_group_name_H-M    P1
_symmetry_Int_Tables_number       1
_space_group_crystal_system       triclinic
_cell_length_a                    9.053589
_cell_length_b                    10.893684
_cell_length_c                    9.612799
_cell_angle_alpha                 92.488145
_cell_angle_beta                  89.260469
_cell_angle_gamma                 92.045085
_cell_volume                      946.522547199

loop_
_atom_site_label
_atom_site_type_symbol
_atom_type_description
_atom_site_fract_x
_atom_site_fract_y
_atom_site_fract_z
_atom_type_partial_charge
C1    C     C_R   0.494298 0.262167 0.496491 0.795054
C2    C     C_R   0.400232 0.925013 0.395952 0.108369
C3    C     C_R   0.473309 0.869616 0.505937 -0.151922
C4    C     C_R   0.543675 0.943717 0.608611 0.042257
C5    C     C_3   0.513499 0.958515 0.763873 -0.078151
C6    C     C_3   0.523643 0.096042 0.750963 0.398434
C7    C     C_R   0.625133 0.533542 0.073118 -0.039584
C8    C     C_R   0.386270 0.447670 0.075148 0.633307
C9    C     C_R   0.385642 0.444865 0.926917 0.100559
C10   C     C_R   0.625640 0.530088 0.926356 0.130356
C11   C     C_3   0.717983 0.644070 0.920120 1.013951
C12   C     C_R   0.220912 0.499779 0.500493 0.808614
C13   C     C_3   0.712883 0.653946 0.079456 -0.215052
C14   C     C_R   0.491236 0.736911 0.502674 0.805138
C15   C     C_R   0.779059 0.499615 0.499520 0.863116
C16   C     C_1   0.065633 0.499596 0.500729 -0.163518
C17   C     C_1   0.934360 0.499456 0.499398 -0.141690
C18   C     C_R   0.549285 0.069806 0.599678 0.029347
C19   C     C_R   0.489844 0.127613 0.488443 -0.214188
C20   C     C_R   0.420484 0.054118 0.379009 0.085806
Cu1   Cu    Cu3+1 0.499990 0.499980 0.640670 1.011462
Cu2   Cu    Cu3+1 0.500010 0.500020 0.359330 0.981859
H1    H     H_    0.644609 0.731107 0.119363 0.182683
H2    H     H_    0.607521 0.931866 0.826616 0.248445
H3    H     H_    0.420994 0.145125 0.777062 0.078686
N1    N     N_R   0.500920 0.500930 0.147930 -0.236112
N2    N     N_R   0.500930 0.500890 0.852020 -0.221746
O1    O     O_R   0.500000 0.319640 0.618810 -0.580923
O2    O     O_R   0.500020 0.319680 0.381230 -0.560336
O3    O     O_R   0.288380 0.499980 0.618770 -0.601390
O4    O     O_R   0.288400 0.500020 0.381190 -0.515996
O5    O     O_R   0.499980 0.680320 0.618770 -0.518999
O6    O     O_R   0.500000 0.680360 0.381190 -0.586089
O7    O     O_R   0.711600 0.499980 0.618810 -0.514076
O8    O     O_R   0.711620 0.500020 0.381230 -0.583976
C21   C     C_3   0.363480 0.111735 0.249000 -0.370549
C22   C     C_3   0.488341 0.133175 0.142718 -0.672557
H4    H     H_    0.581233 0.190116 0.187490 0.269321
H5    H     H_    0.533297 0.044458 0.104416 0.227315
H6    H     H_    0.444909 0.180054 0.052434 0.235503
H7    H     H_    0.277416 0.054221 0.194679 0.201182
H8    H     H_    0.306476 0.197747 0.276927 0.253514
F1    F     F_    0.645356 0.734815 0.858646 -0.718245
C23   C     C_3   0.865698 0.649456 0.149346 -0.302453
C24   C     C_3   0.878203 0.741422 0.273537 -0.825941
H9    H     H_    0.879353 0.836869 0.237168 0.246171
H10   H     H_    0.784551 0.729193 0.347434 0.270635
H11   H     H_    0.982232 0.727841 0.329439 0.232727
H12   H     H_    0.886498 0.555492 0.183209 0.234410
H13   H     H_    0.956889 0.674219 0.076344 0.238813
C25   C     C_3   0.277597 0.851291 0.318681 -0.364163
C26   C     C_3   0.320837 0.806827 0.170948 -0.780583
H14   H     H_    0.422306 0.855105 0.133398 0.243015
H15   H     H_    0.340286 0.706947 0.167421 0.265736
H16   H     H_    0.229008 0.821592 0.098757 0.226204
H17   H     H_    0.240098 0.770455 0.378057 0.182928
H18   H     H_    0.177224 0.906880 0.316459 0.179957
C27   C     C_3   0.362909 0.908948 0.820956 -0.429172
C28   C     C_3   0.226675 0.929140 0.732563 -0.799756
H19   H     H_    0.227163 0.023137 0.692687 0.231348
H20   H     H_    0.219365 0.860538 0.644158 0.245379
H21   H     H_    0.125466 0.915850 0.797454 0.263109
H22   H     H_    0.369760 0.809001 0.837101 0.267939
H23   H     H_    0.344851 0.954937 0.924707 0.200619
F2    F     F_    0.648503 0.149743 0.813316 -0.659113
F3    F     F_    0.272774 0.393031 0.145113 -0.686669
C29   C     C_3   0.258692 0.370122 0.860647 -0.353685
C30   C     C_3   0.114758 0.439878 0.868955 -0.652750
H24   H     H_    0.132009 0.534735 0.832707 0.275138
H25   H     H_    0.029790 0.390580 0.803218 0.249267
H26   H     H_    0.072024 0.445938 0.977690 0.264218
H27   H     H_    0.282480 0.335979 0.754126 0.223249
H28   H     H_    0.240709 0.283472 0.916531 0.193130
F4    F     F_    0.854414 0.622586 0.859004 -0.698887

loop_
_geom_bond_atom_site_label_1
_geom_bond_atom_site_label_2
_ccdc_geom_bond_type
C23   H12   S    
C10   N2    A    
C7    C10   A    
C13   C23   S    
C9    C29   S    
C11   F1    S    
C22   H4    S    
C25   H18   S    
Cu2   O2    S    
C1    O1    A    
C8    N1    A    
Cu1   O3    S    
C15   O7    A    
C21   H8    S    
C19   C20   A    
C26   H16   S    
C7    C13   S    
C4    C18   A    
C14   O6    A    
C1    O2    A    
C2    C3    A    
Cu1   N2    S    
C28   H19   S    
C22   H5    S    
Cu1   Cu2   S    
C23   C24   S    
C8    F3    S    
Cu2   O8    S    
C7    N1    A    
C9    N2    A    
C21   H7    S    
C16   C17   T    
C3    C14   S    
C5    C27   S    
C30   H26   S    
C29   H28   S    
C25   H17   S    
C15   O8    A    
C21   C22   S    
Cu1   O1    S    
C26   H15   S    
C29   H27   S    
C22   H6    S    
C24   H10   S    
C12   O4    A    
C27   H23   S    
C5    C6    S    
C6    C18   S    
Cu1   O5    S    
C28   H20   S    
C11   C13   S    
C1    C19   S    
Cu2   O4    S    
C2    C20   A    
C29   C30   S    
C6    H3    S    
C12   C16   S    
C4    C5    S    
C26   H14   S    
C13   H1    S    
C30   H25   S    
C18   C19   A    
C10   C11   S    
C24   H11   S    
C23   H13   S    
C27   H22   S    
C15   C17   S    
Cu2   O6    S    
C5    H2    S    
C28   H21   S    
Cu2   N1    S    
Cu1   O7    S    
C2    C25   S    
C12   O3    A    
C27   C28   S    
C24   H9    S    
C30   H24   S    
C6    F2    S    
C3    C4    A    
C25   C26   S    
C14   O5    A    
C8    C9    A    
C11   F4    S    
C20   C21   S    
