data_mof_unit_48770.cif
_audit_creation_date              2012-12-10T19:18:35-0500
_audit_creation_method            fapswitch 2.2
_symmetry_space_group_name_H-M    P1
_symmetry_Int_Tables_number       1
_space_group_crystal_system       triclinic
_cell_length_a                    14.735765
_cell_length_b                    15.996843
_cell_length_c                    16.50825
_cell_angle_alpha                 89.869956
_cell_angle_beta                  84.828673
_cell_angle_gamma                 90.011585
_cell_volume                      3875.56928211

loop_
_atom_site_label
_atom_site_type_symbol
_atom_type_description
_atom_site_fract_x
_atom_site_fract_y
_atom_site_fract_z
_atom_type_partial_charge
C1    C     C_R   0.499994 0.659102 0.500409 0.789938
C2    C     C_1   0.500586 0.822888 0.500212 0.106427
C3    C     C_1   0.500165 0.747979 0.500295 -0.197318
C4    C     C_1   0.499951 0.251900 0.500038 -0.192748
C5    C     C_R   0.053101 0.445182 0.448928 0.463358
C6    C     C_R   0.947078 0.555987 0.550109 0.466590
C7    C     C_R   0.097228 0.500178 0.499421 -0.109479
C8    C     C_R   0.902900 0.500595 0.500014 -0.102543
C9    C     C_R   0.043291 0.554573 0.550345 -0.332735
C10   C     C_R   0.956884 0.446334 0.448955 -0.333492
C11   C     C_1   0.197290 0.500198 0.499843 0.202769
C12   C     C_R   0.499964 0.340855 0.500009 0.813799
C13   C     C_1   0.802755 0.500169 0.499930 0.218091
C14   C     C_R   0.486885 0.500370 0.653453 0.890005
C15   C     C_R   0.512830 0.503172 0.347056 0.920141
C16   C     C_R   0.474899 0.509535 0.744244 -0.390666
C17   C     C_R   0.522654 0.522446 0.258389 -0.359584
C18   C     C_R   0.550669 0.515313 0.790736 0.344640
C19   C     C_R   0.457255 0.495221 0.207005 0.346512
C20   C     C_R   0.537966 0.536220 0.874644 0.291093
C21   C     C_R   0.463200 0.521227 0.124326 0.290094
C22   C     C_R   0.452277 0.566766 0.907739 -0.234003
C23   C     C_R   0.423100 0.043350 0.534045 0.380847
C24   C     C_R   0.526187 0.584294 0.096521 -0.231511
C25   C     C_R   0.375546 0.551942 0.863996 0.387095
C26   C     C_R   0.597374 0.603566 0.145387 0.354918
C27   C     C_R   0.386448 0.520151 0.784543 0.334752
C28   C     C_R   0.593758 0.575571 0.226524 0.286397
C29   C     C_2   0.442928 0.628061 0.977207 0.474492
C30   C     C_2   0.512296 0.640795 0.025209 0.500067
C31   C     C_3   0.683322 0.576615 0.740513 -0.212195
C32   C     C_3   0.305547 0.483082 0.246747 -0.222585
C33   C     C_3   0.635948 0.683300 0.304858 -0.158605
C34   C     C_R   0.578076 0.956101 0.466183 0.381682
C35   C     C_3   0.284076 0.426374 0.744286 -0.243681
C36   C     C_3   0.594412 0.745917 0.959619 -0.212933
C37   C     C_3   0.334946 0.715948 0.040516 -0.235266
C38   C     C_3   0.249039 0.520673 0.949855 0.136493
C39   C     C_3   0.146249 0.522732 0.946760 -0.801668
C40   C     C_3   0.743062 0.611861 0.087925 0.095405
C41   C     C_3   0.821292 0.671569 0.064132 -0.778176
C42   C     C_3   0.426113 0.404070 0.055799 -0.288109
C43   C     C_3   0.644975 0.453369 0.928059 -0.269166
C44   C     C_3   0.290385 0.888057 0.517946 0.098736
C45   C     C_R   0.500529 0.087297 0.500320 -0.230135
C46   C     C_3   0.230434 0.817520 0.554305 -0.760690
C47   C     C_3   0.706225 0.119616 0.487360 0.106259
C48   C     C_3   0.804099 0.128252 0.450296 -0.784921
C49   C     C_3   0.294699 0.117069 0.511651 -0.299758
C50   C     C_3   0.710597 0.887233 0.482089 -0.302602
C51   C     C_3   0.102595 0.311946 0.427689 0.058594
C52   C     C_3   0.167324 0.257206 0.374019 -0.789869
C53   C     C_3   0.900573 0.690277 0.570719 0.068227
C54   C     C_3   0.833665 0.745557 0.621572 -0.828155
C55   C     C_R   0.501009 0.912481 0.500474 -0.233946
C56   C     C_R   0.578258 0.043823 0.466699 0.320585
C57   C     C_R   0.423901 0.955697 0.534798 0.316843
C58   C     C_1   0.500129 0.176917 0.500119 0.085588
Cu1   Cu    Cu3+1 0.410780 0.500000 0.499980 0.991219
Cu2   Cu    Cu3+1 0.589220 0.500000 0.500020 1.000128
H1    H     H_    0.924431 0.404655 0.408710 0.166273
H2    H     H_    0.563730 0.686949 0.331071 0.106306
H3    H     H_    0.648885 0.731012 0.256197 0.200100
H4    H     H_    0.339785 0.385895 0.716335 0.143260
H5    H     H_    0.224843 0.418993 0.707932 0.180068
H6    H     H_    0.262830 0.404531 0.807022 0.131122
H7    H     H_    0.651088 0.701249 0.943623 0.170056
H8    H     H_    0.625341 0.808017 0.968716 0.178070
H9    H     H_    0.550757 0.751828 0.908369 0.161475
H10   H     H_    0.311580 0.660208 0.077213 0.121448
H11   H     H_    0.273341 0.751376 0.027112 0.186562
H12   H     H_    0.075801 0.596236 0.590573 0.175786
H13   H     H_    0.376146 0.757243 0.076876 0.184168
H14   H     H_    0.264006 0.538687 0.011985 0.185827
H15   H     H_    0.272391 0.455116 0.938345 0.104221
H16   H     H_    0.128618 0.504693 0.885163 0.259943
H17   H     H_    0.113377 0.478197 0.992047 0.193712
H18   H     H_    0.119955 0.586604 0.960964 0.252554
H19   H     H_    0.728568 0.576020 0.033001 0.164684
H20   H     H_    0.765229 0.568056 0.134905 0.158178
H21   H     H_    0.838107 0.707890 0.118064 0.254697
H22   H     H_    0.882386 0.635688 0.040178 0.196025
H23   H     H_    0.698966 0.606265 0.798456 0.168243
H24   H     H_    0.802060 0.715458 0.016346 0.243432
H25   H     H_    0.389538 0.362897 0.102083 0.214899
H26   H     H_    0.500692 0.391133 0.052379 0.150651
H27   H     H_    0.402862 0.387413 0.995876 0.145175
H28   H     H_    0.704188 0.443892 0.882542 0.212114
H29   H     H_    0.593125 0.403622 0.921281 0.141801
H30   H     H_    0.669309 0.445210 0.989211 0.140944
H31   H     H_    0.325593 0.865133 0.459531 0.118280
H32   H     H_    0.245858 0.941518 0.504924 0.147854
H33   H     H_    0.192247 0.838489 0.611743 0.256117
H34   H     H_    0.644009 0.620652 0.704715 0.138208
H35   H     H_    0.180999 0.798559 0.510806 0.180782
H36   H     H_    0.273168 0.762704 0.567205 0.261270
H37   H     H_    0.706419 0.080199 0.543206 0.104162
H38   H     H_    0.681144 0.182887 0.505498 0.156760
H39   H     H_    0.806905 0.169781 0.396112 0.253259
H40   H     H_    0.846823 0.155666 0.495570 0.187345
H41   H     H_    0.831811 0.065922 0.431773 0.250206
H42   H     H_    0.223268 0.122452 0.538718 0.179611
H43   H     H_    0.294104 0.076596 0.456785 0.119097
H44   H     H_    0.317868 0.180825 0.493062 0.181078
H45   H     H_    0.749084 0.564311 0.704495 0.223277
H46   H     H_    0.743115 0.941331 0.509926 0.156970
H47   H     H_    0.765666 0.849762 0.449474 0.180840
H48   H     H_    0.676495 0.846661 0.530459 0.153297
H49   H     H_    0.032847 0.284898 0.428758 0.144271
H50   H     H_    0.125205 0.310951 0.490385 0.136235
H51   H     H_    0.238112 0.281168 0.373873 0.256859
H52   H     H_    0.164832 0.192080 0.397495 0.186154
H53   H     H_    0.147247 0.257233 0.310766 0.254150
H54   H     H_    0.882037 0.691977 0.506676 0.135901
H55   H     H_    0.970289 0.716420 0.573265 0.147472
H56   H     H_    0.278931 0.495454 0.187042 0.173171
H57   H     H_    0.849062 0.744373 0.686200 0.254242
H58   H     H_    0.839083 0.810903 0.598841 0.195458
H59   H     H_    0.762955 0.722956 0.617417 0.239440
H60   H     H_    0.310295 0.542595 0.281055 0.142558
H61   H     H_    0.255227 0.442721 0.282264 0.215121
H62   H     H_    0.679586 0.698920 0.354068 0.177602
N1    N     N_1   0.723290 0.500020 0.499980 -0.146866
N2    N     N_1   0.276710 0.499980 0.500020 -0.150671
O1    O     O_R   0.424680 0.619690 0.499960 -0.573817
O2    O     O_3   0.389677 0.440357 0.237224 -0.565176
O3    O     O_3   0.659371 0.602555 0.275562 -0.556605
O4    O     O_3   0.309248 0.511515 0.743383 -0.509486
O5    O     O_3   0.542845 0.722463 0.032345 -0.554743
O6    O     O_3   0.384207 0.694496 0.965986 -0.544925
O7    O     O_3   0.289470 0.578976 0.893141 -0.498914
O8    O     O_3   0.665857 0.658403 0.117519 -0.520535
O9    O     O_3   0.404159 0.488709 0.072081 -0.621182
O10   O     O_3   0.611067 0.535628 0.921819 -0.607552
O11   O     O_3   0.351684 0.912374 0.574683 -0.521379
O12   O     O_R   0.575320 0.380310 0.500040 -0.575388
O13   O     O_3   0.652533 0.085813 0.428474 -0.526225
O14   O     O_3   0.348201 0.084861 0.571414 -0.529153
O15   O     O_3   0.650254 0.913623 0.425480 -0.530748
O16   O     O_3   0.104562 0.393815 0.395563 -0.592108
O17   O     O_3   0.895575 0.608269 0.602538 -0.594239
O18   O     O_R   0.575360 0.619690 0.500000 -0.578882
O19   O     O_R   0.424640 0.380310 0.500000 -0.573118
O20   O     O_R   0.415920 0.500010 0.613580 -0.531402
O21   O     O_R   0.584080 0.499990 0.386420 -0.531833
O22   O     O_R   0.566610 0.500010 0.613610 -0.535067
O23   O     O_R   0.433390 0.499990 0.386390 -0.558232
O24   O     O_3   0.637354 0.499759 0.754452 -0.555843

loop_
_geom_bond_atom_site_label_1
_geom_bond_atom_site_label_2
_ccdc_geom_bond_type
C34   C56   A    
C8    C13   S    
C23   C45   A    
C22   C29   S    
Cu2   N1    S    
C23   O14   S    
C11   N2    T    
C9    H12   S    
C49   H44   S    
C36   H7    S    
C37   H11   S    
C52   H53   S    
C36   H9    S    
C7    C11   S    
C43   H29   S    
C47   H38   S    
C42   O9    S    
C43   H28   S    
C39   H17   S    
C19   C21   A    
C1    O1    A    
C54   H59   S    
C18   O24   S    
C2    C55   S    
C38   C39   S    
C13   N1    T    
C35   H5    S    
C34   O15   S    
C33   O3    S    
C31   H23   S    
C37   O6    S    
C23   C57   A    
C32   O2    S    
C1    O18   A    
Cu2   O18   S    
C46   H35   S    
C47   C48   S    
C45   C56   A    
C33   H2    S    
C22   C25   A    
C40   H20   S    
C35   H4    S    
C42   H26   S    
C4    C12   S    
Cu2   O12   S    
C18   C20   A    
C44   H32   S    
C28   O3    S    
C51   O16   S    
C44   O11   S    
C40   O8    S    
Cu1   O19   S    
Cu1   Cu2   S    
C51   H49   S    
C37   H10   S    
C50   H48   S    
C31   H45   S    
Cu2   O22   S    
C6    C9    A    
C21   O9    S    
C44   C46   S    
C38   H15   S    
C48   H40   S    
C14   O20   A    
C45   C58   S    
C43   H30   S    
C51   C52   S    
C39   H18   S    
C49   H42   S    
C5    C7    A    
C50   O15   S    
C6    C8    A    
C35   H6    S    
C53   C54   S    
C41   H24   S    
C1    C3    S    
C43   O10   S    
C29   C30   D    
C27   O4    S    
C29   O6    S    
C33   H3    S    
C41   H21   S    
C47   O13   S    
C40   H19   S    
C42   H25   S    
C39   H16   S    
C32   H56   S    
C6    O17   S    
C44   H31   S    
C31   O24   S    
C16   C18   A    
C40   C41   S    
C20   C22   A    
Cu1   O20   S    
C51   H50   S    
C55   C57   A    
C50   H47   S    
C14   C16   S    
C21   C24   A    
C10   H1    S    
Cu1   O1    S    
Cu2   O21   S    
C31   H34   S    
C26   O8    S    
C53   H54   S    
C5    O16   S    
C15   O21   A    
C38   H14   S    
Cu1   N2    S    
C15   C17   S    
C48   H39   S    
C37   H13   S    
C17   C28   A    
C32   H61   S    
C24   C26   A    
C47   H37   S    
C49   H43   S    
C36   H8    S    
C25   C27   A    
C30   O5    S    
C14   O22   A    
C19   O2    S    
C26   C28   A    
C52   H51   S    
C12   O19   A    
C38   O7    S    
C54   H58   S    
C2    C3    T    
C41   H22   S    
C5    C10   A    
C36   O5    S    
C15   O23   A    
C56   O13   S    
C33   H62   S    
C46   H33   S    
C16   C27   A    
C48   H41   S    
C17   C19   A    
C53   O17   S    
C35   O4    S    
C24   C30   S    
C7    C9    A    
C34   C55   A    
C46   H36   S    
C8    C10   A    
C12   O12   A    
C54   H57   S    
C4    C58   T    
C50   H46   S    
C52   H52   S    
C57   O11   S    
C49   O14   S    
C42   H27   S    
C20   O10   S    
C32   H60   S    
C53   H55   S    
Cu1   O23   S    
C25   O7    S    
