data_mof_unit_64635.cif
_audit_creation_date              2013-03-05T16:09:18-0500
_audit_creation_method            fapswitch 2.2
_symmetry_space_group_name_H-M    P1
_symmetry_Int_Tables_number       1
_space_group_crystal_system       triclinic
_cell_length_a                    37.269401
_cell_length_b                    30.381977
_cell_length_c                    21.91745
_cell_angle_alpha                 89.782079
_cell_angle_beta                  125.457036
_cell_angle_gamma                 90.266847
_cell_volume                      20214.8955426

loop_
_atom_site_label
_atom_site_type_symbol
_atom_site_description
_atom_site_fract_x
_atom_site_fract_y
_atom_site_fract_z
_atom_type_partial_charge
O1    O     O_R   0.435730 0.537200 0.935720 -0.588312
O2    O     O_R   0.564270 0.537200 0.064280 -0.552829
O3    O     O_R   0.935730 0.037200 0.935720 -0.587766
O4    O     O_R   0.064270 0.037200 0.064280 -0.587503
O5    O     O_R   0.435730 0.462800 0.935730 -0.552549
O6    O     O_R   0.564270 0.462800 0.064270 -0.587964
O7    O     O_R   0.935730 0.962800 0.935730 -0.553712
O8    O     O_R   0.064270 0.962800 0.064270 -0.553695
C1    C     C_R   0.415099 0.499941 0.913736 0.846300
C2    C     C_R   0.585061 0.500060 0.085150 0.841902
C3    C     C_R   0.915100 0.999942 0.913723 0.845889
C4    C     C_R   0.084894 0.000051 0.086101 0.850385
O9    O     O_R   0.500010 0.537200 0.910980 -0.594406
O10   O     O_R   0.499990 0.537200 0.089020 -0.556791
O11   O     O_R   0.000010 0.037200 0.910980 -0.589606
O12   O     O_R   0.999990 0.037200 0.089020 -0.586823
O13   O     O_R   0.500010 0.462800 0.910980 -0.555166
O14   O     O_R   0.499990 0.462800 0.089020 -0.595700
O15   O     O_R   0.000010 0.962800 0.910980 -0.562087
O16   O     O_R   0.999990 0.962800 0.089020 -0.565928
C5    C     C_R   0.501583 0.500187 0.884008 0.908003
C6    C     C_R   0.498454 0.499825 0.116038 0.915335
C7    C     C_R   0.001510 0.000192 0.883935 0.911476
C8    C     C_R   0.998469 0.999831 0.116057 0.914569
Cu1   Cu    Cu3+1 0.500000 0.544050 0.000000 1.051096
Cu2   Cu    Cu3+1 1.000000 0.044050 0.000000 1.021056
Cu3   Cu    Cu3+1 0.500000 0.455950 0.000000 1.042775
Cu4   Cu    Cu3+1 1.000000 0.955950 0.000000 1.067268
C9    C     C_R   0.000425 0.274191 0.500752 0.089718
C10   C     C_R   0.500172 0.774202 0.500475 0.086114
C11   C     C_R   0.013872 0.297552 0.461935 -0.139439
C12   C     C_R   0.986986 0.297202 0.539582 -0.151909
C13   C     C_R   0.486768 0.797452 0.435113 -0.147630
C14   C     C_R   0.513503 0.797324 0.565744 -0.155972
C15   C     C_R   0.000326 0.366534 0.500588 -0.013131
C16   C     C_R   0.500014 0.866541 0.500261 -0.040838
C17   C     C_R   0.013484 0.343419 0.461334 -0.164011
C18   C     C_R   0.987302 0.343080 0.540059 -0.079978
C19   C     C_R   0.487023 0.843316 0.435154 -0.125979
C20   C     C_R   0.513080 0.843202 0.565486 -0.125898
C21   C     C_2   0.525507 0.468514 0.742448 0.359352
C22   C     C_2   0.475630 0.532150 0.258766 0.362559
C23   C     C_2   0.025787 0.968788 0.742755 0.365741
C24   C     C_2   0.975730 0.032219 0.258894 0.360132
C25   C     C_2   0.497707 0.493437 0.681459 -0.416533
C26   C     C_2   0.502386 0.506116 0.318679 -0.420934
C27   C     C_2   0.997709 0.993371 0.681458 -0.416057
C28   C     C_2   0.002395 0.006083 0.318698 -0.422245
H1    H     H_    0.469874 0.509343 0.675791 0.154896
H2    H     H_    0.529621 0.489184 0.323806 0.145517
H3    H     H_    0.969683 0.008957 0.675571 0.152657
H4    H     H_    0.029568 0.989051 0.323766 0.156102
C29   C     C_2   0.520372 0.466917 0.804481 -0.173307
C30   C     C_2   0.480952 0.533656 0.196959 -0.154753
C31   C     C_2   0.020650 0.967136 0.804779 -0.169800
C32   C     C_2   0.981013 0.033682 0.197033 -0.184657
C33   C     C_2   0.505731 0.501516 0.821866 -0.332194
C34   C     C_2   0.494288 0.498565 0.178177 -0.334002
C35   C     C_2   0.005532 0.001539 0.821666 -0.309295
C36   C     C_2   0.994331 0.998580 0.178229 -0.319494
H5    H     H_    0.530474 0.437133 0.838144 0.207413
H6    H     H_    0.471994 0.563847 0.164522 0.204264
H7    H     H_    0.031228 0.937536 0.838957 0.196582
H8    H     H_    0.972056 0.063869 0.164587 0.203741
H9    H     H_    0.499346 0.532759 0.793065 0.155738
H10   H     H_    0.499601 0.467091 0.205838 0.151158
H11   H     H_    0.998768 0.032699 0.792488 0.155049
H12   H     H_    0.999660 0.967105 0.205895 0.165587
C37   C     C_R   0.297337 0.511812 0.848351 -0.168292
C38   C     C_R   0.703098 0.475836 0.158909 -0.172666
C39   C     C_R   0.797351 0.012043 0.848283 -0.168923
C40   C     C_R   0.202537 0.011798 0.150380 -0.169335
H13   H     H_    0.279261 0.519688 0.871732 0.161922
H14   H     H_    0.721116 0.456048 0.144068 0.162026
H15   H     H_    0.779282 0.020060 0.871624 0.162004
H16   H     H_    0.220536 0.019203 0.126577 0.160310
C41   C     C_R   0.343248 0.510339 0.894906 -0.075521
C42   C     C_R   0.657133 0.474517 0.114300 -0.079818
C43   C     C_R   0.843260 0.010539 0.894844 -0.075693
C44   C     C_R   0.156595 0.010112 0.104038 -0.073538
C45   C     C_R   0.366878 0.499856 0.864776 -0.175170
C46   C     C_R   0.633543 0.500241 0.133561 -0.186133
C47   C     C_R   0.866880 0.999867 0.864770 -0.175002
C48   C     C_R   0.133099 0.000231 0.134791 -0.174663
C49   C     C_R   0.343887 0.491170 0.787153 0.318572
C50   C     C_R   0.656886 0.527250 0.198215 0.325119
C51   C     C_R   0.843882 0.991034 0.787190 0.318391
C52   C     C_R   0.156183 0.992311 0.212677 0.320228
C53   C     C_R   0.297796 0.492991 0.741597 -0.180651
C54   C     C_R   0.702970 0.528474 0.241361 -0.188199
C55   C     C_R   0.797794 0.992885 0.741628 -0.179356
C56   C     C_R   0.202265 0.994310 0.257968 -0.179419
H17   H     H_    0.279916 0.485415 0.682505 0.179662
H18   H     H_    0.721009 0.548284 0.291766 0.179378
H19   H     H_    0.779908 0.985191 0.682577 0.180519
H20   H     H_    0.220202 0.987244 0.317281 0.180215
C57   C     C_R   0.274467 0.503319 0.771694 0.030997
C58   C     C_R   0.726122 0.502879 0.222160 0.033457
C59   C     C_R   0.774474 0.003394 0.771673 0.030839
C60   C     C_R   0.225519 0.004089 0.227373 0.031557
C61   C     C_R   0.201450 0.528315 0.657154 0.008427
C62   C     C_R   0.799675 0.541421 0.288378 0.017162
C63   C     C_R   0.701448 0.028234 0.656970 0.008854
C64   C     C_R   0.298736 0.029312 0.341563 0.008222
C65   C     C_R   0.155543 0.525743 0.612053 -0.268635
C66   C     C_R   0.845574 0.539485 0.336464 -0.274185
C67   C     C_R   0.655542 0.025641 0.611884 -0.268144
C68   C     C_R   0.344615 0.026427 0.387074 -0.268924
H21   H     H_    0.136871 0.545681 0.561691 0.169416
H22   H     H_    0.864842 0.569333 0.349444 0.148661
H23   H     H_    0.636864 0.045459 0.561379 0.169281
H24   H     H_    0.363423 0.046489 0.437192 0.169094
C69   C     C_R   0.133374 0.498773 0.632287 -0.153481
C70   C     C_R   0.867000 0.499374 0.367750 -0.135427
C71   C     C_R   0.633383 0.998806 0.632305 -0.153313
C72   C     C_R   0.366602 0.998996 0.367521 -0.153228
C73   C     C_R   0.157676 0.473319 0.698551 0.333597
C74   C     C_R   0.842316 0.460116 0.350015 0.330704
C75   C     C_R   0.657701 0.973523 0.698767 0.337823
C76   C     C_R   0.342137 0.973443 0.301478 0.335844
C77   C     C_R   0.203695 0.476309 0.743815 -0.219794
C78   C     C_R   0.796290 0.462277 0.301047 -0.212216
C79   C     C_R   0.703715 0.976531 0.744007 -0.219419
C80   C     C_R   0.296150 0.976706 0.255844 -0.217765
H25   H     H_    0.222505 0.456275 0.793959 0.184331
H26   H     H_    0.776972 0.432495 0.287763 0.187060
H27   H     H_    0.722533 0.956615 0.794292 0.184571
H28   H     H_    0.277216 0.956526 0.205977 0.187302
C81   C     C_R   0.225872 0.503197 0.723510 0.012389
C82   C     C_R   0.774706 0.502527 0.270751 0.007416
C83   C     C_R   0.725880 0.003274 0.723504 0.012068
C84   C     C_R   0.274138 0.004008 0.275512 0.010850
H29   H     H_    0.024113 0.280260 0.431323 0.145288
H30   H     H_    0.976747 0.279631 0.570202 0.142378
H31   H     H_    0.476620 0.780080 0.384354 0.152919
H32   H     H_    0.523699 0.779843 0.616570 0.145023
O17   O     O_R   0.537200 0.435730 0.537210 -0.570562
O18   O     O_R   0.462800 0.435730 0.462790 -0.594792
O19   O     O_R   0.037200 0.935730 0.537210 -0.568609
O20   O     O_R   0.962800 0.935730 0.462790 -0.595042
C85   C     C_R   0.499947 0.414867 0.499903 0.807636
C86   C     C_R   0.999946 0.914867 0.499904 0.807121
O21   O     O_R   0.537190 0.500000 0.626220 -0.543781
O22   O     O_R   0.462810 0.500000 0.373780 -0.543922
O23   O     O_R   0.037190 0.000000 0.626220 -0.539107
O24   O     O_R   0.962810 0.000000 0.373780 -0.542264
O25   O     O_R   0.462790 0.500000 0.551820 -0.583786
O26   O     O_R   0.537210 0.500000 0.448180 -0.586797
O27   O     O_R   0.962790 0.000000 0.551820 -0.586906
O28   O     O_R   0.037210 0.000000 0.448180 -0.586000
C87   C     C_R   0.499658 0.497780 0.617137 0.896040
C88   C     C_R   0.500360 0.502045 0.382892 0.899201
C89   C     C_R   0.999660 0.997761 0.617138 0.894655
C90   C     C_R   0.000362 0.002031 0.382898 0.897443
Cu5   Cu    Cu3+1 0.544050 0.500000 0.544060 1.035089
Cu6   Cu    Cu3+1 0.455950 0.500000 0.455940 1.039704
Cu7   Cu    Cu3+1 0.044050 0.000000 0.544060 1.042256
Cu8   Cu    Cu3+1 0.955950 0.000000 0.455940 1.043734
O29   O     O_R   0.537200 0.564270 0.537200 -0.594890
O30   O     O_R   0.462800 0.564270 0.462800 -0.569231
O31   O     O_R   0.037200 0.064270 0.537200 -0.599297
O32   O     O_R   0.962800 0.064270 0.462800 -0.563057
C91   C     C_R   0.500053 0.585134 0.500130 0.812417
C92   C     C_R   0.000055 0.085131 0.500104 0.808599
O33   O     O_R   0.000000 0.435740 0.448480 -0.595972
O34   O     O_R   0.000000 0.435740 0.551520 -0.547459
O35   O     O_R   0.500000 0.935740 0.448480 -0.570366
O36   O     O_R   0.500000 0.935740 0.551520 -0.570492
C93   C     C_R   0.000150 0.414878 0.500241 0.869462
C94   C     C_R   0.499998 0.914880 0.500093 0.856457
O37   O     O_R   0.064280 0.500010 0.512760 -0.592122
O38   O     O_R   0.935720 0.500010 0.487240 -0.553890
O39   O     O_R   0.564280 0.000010 0.512760 -0.590420
O40   O     O_R   0.435720 0.000010 0.487240 -0.589867
O41   O     O_R   0.064270 0.500010 0.615800 -0.547326
O42   O     O_R   0.935730 0.500010 0.384200 -0.584936
O43   O     O_R   0.564270 0.000010 0.615800 -0.546696
O44   O     O_R   0.435730 0.000010 0.384200 -0.547846
C95   C     C_R   0.085057 0.499225 0.584799 0.849885
C96   C     C_R   0.915068 0.499349 0.415320 0.865263
C97   C     C_R   0.585060 0.999229 0.584804 0.851903
C98   C     C_R   0.414933 0.999259 0.415178 0.852486
Cu9   Cu    Cu3+1 0.000010 0.500010 0.438990 0.993074
Cu10  Cu    Cu3+1 0.999990 0.500010 0.561010 1.058203
Cu11  Cu    Cu3+1 0.500010 0.000010 0.438990 1.029080
Cu12  Cu    Cu3+1 0.499990 0.000010 0.561010 1.030311
O45   O     O_R   0.000010 0.564280 0.448470 -0.593417
O46   O     O_R   0.999990 0.564280 0.551530 -0.592606
O47   O     O_R   0.500010 0.064280 0.448470 -0.593486
O48   O     O_R   0.499990 0.064280 0.551530 -0.592627
C99   C     C_R   0.999980 0.585132 0.499887 0.762965
C100  C     C_R   0.500001 0.085134 0.499908 0.764355
C101  C     C_R   0.462216 0.297331 0.443962 -0.152549
C102  C     C_R   0.537457 0.297390 0.555286 -0.160859
C103  C     C_R   0.962160 0.797341 0.443981 -0.150790
C104  C     C_R   0.037449 0.797377 0.555165 -0.159310
H33   H     H_    0.432798 0.279875 0.400791 0.140895
H34   H     H_    0.566868 0.279991 0.598381 0.144846
H35   H     H_    0.932716 0.779897 0.400860 0.142333
H36   H     H_    0.066874 0.779970 0.598199 0.145556
C105  C     C_R   0.462098 0.343206 0.444416 -0.177192
C106  C     C_R   0.537608 0.343254 0.555069 -0.118328
C107  C     C_R   0.962059 0.843216 0.444453 -0.174721
C108  C     C_R   0.037612 0.843241 0.554973 -0.116724
H37   H     H_    0.432637 0.360411 0.401052 0.160696
H38   H     H_    0.567105 0.360481 0.598500 0.185334
H39   H     H_    0.932585 0.860429 0.401147 0.161723
H40   H     H_    0.067131 0.860459 0.598362 0.186274
C109  C     C_R   0.499863 0.366518 0.499807 -0.031785
C110  C     C_R   0.999853 0.866517 0.499788 -0.032515
C111  C     C_R   0.499832 0.274177 0.499567 0.090340
C112  C     C_R   0.999792 0.774173 0.499507 0.089447
C113  C     C_R   0.013500 0.702555 0.565001 -0.150971
C114  C     C_R   0.986097 0.702682 0.434056 -0.156632
C115  C     C_R   0.513408 0.202558 0.564991 -0.151479
C116  C     C_R   0.486324 0.202696 0.434202 -0.159339
H41   H     H_    0.023908 0.719924 0.615887 0.146756
H42   H     H_    0.975636 0.720164 0.383105 0.139572
H43   H     H_    0.523694 0.219927 0.615818 0.146910
H44   H     H_    0.475988 0.220184 0.383317 0.138669
C117  C     C_R   0.013254 0.656692 0.564964 -0.169461
C118  C     C_R   0.986512 0.656803 0.434301 -0.174117
C119  C     C_R   0.513155 0.156694 0.564944 -0.171671
C120  C     C_R   0.486739 0.156818 0.434442 -0.171637
H45   H     H_    0.023880 0.639424 0.616160 0.160492
H46   H     H_    0.975933 0.639610 0.383198 0.157439
H47   H     H_    0.523652 0.139425 0.616075 0.160644
H48   H     H_    0.476290 0.139633 0.383397 0.158466
C121  C     C_R   0.999934 0.633469 0.499698 -0.028503
C122  C     C_R   0.499985 0.133475 0.499747 -0.028741
H49   H     H_    0.023845 0.360777 0.430732 0.159459
H50   H     H_    0.976910 0.360174 0.570596 0.176259
H51   H     H_    0.476669 0.860578 0.384082 0.186460
H52   H     H_    0.523378 0.860387 0.616460 0.185391
C123  C     C_R   0.999771 0.725805 0.499490 0.096150
C124  C     C_R   0.499831 0.225811 0.499558 0.095982
C125  C     C_R   0.537719 0.702674 0.556287 -0.147141
C126  C     C_R   0.462605 0.702619 0.444570 -0.155573
C127  C     C_R   0.962635 0.202533 0.481733 -0.143372
C128  C     C_R   0.037953 0.202742 0.519219 -0.151349
H53   H     H_    0.567089 0.720129 0.599618 0.146915
H54   H     H_    0.433243 0.720018 0.401315 0.151094
H55   H     H_    0.933228 0.219883 0.466759 0.151611
H56   H     H_    0.067423 0.220257 0.534296 0.144023
C129  C     C_R   0.537839 0.656796 0.555831 -0.177284
C130  C     C_R   0.462448 0.656753 0.444798 -0.114330
C131  C     C_R   0.962405 0.156661 0.480917 -0.146198
C132  C     C_R   0.037991 0.156862 0.519622 -0.154706
H57   H     H_    0.567248 0.639586 0.599350 0.161282
H58   H     H_    0.432998 0.639526 0.401218 0.186631
H59   H     H_    0.932865 0.139353 0.465944 0.162116
H60   H     H_    0.067447 0.139711 0.534408 0.161026
C133  C     C_R   0.500135 0.633486 0.500244 -0.032230
C134  C     C_R   0.000158 0.133477 0.500214 -0.015266
C135  C     C_R   0.500169 0.725833 0.500479 0.090978
C136  C     C_R   0.000348 0.225823 0.500613 0.092243
N1    N     N_R   0.557766 0.440231 0.746572 0.143974
O49   O     O_R   0.593897 0.431094 0.811505 -0.330094
O50   O     O_R   0.547892 0.417460 0.688534 -0.368941
N2    N     N_R   0.444511 0.561669 0.255820 0.144317
O51   O     O_R   0.408948 0.572562 0.191277 -0.322054
O52   O     O_R   0.455074 0.583609 0.314993 -0.371323
N3    N     N_R   0.058408 0.940911 0.747269 0.145102
O53   O     O_R   0.094741 0.932423 0.812298 -0.328467
O54   O     O_R   0.048751 0.917816 0.689658 -0.369389
N4    N     N_R   0.944749 0.061875 0.256119 0.145403
O55   O     O_R   0.909225 0.072926 0.191637 -0.317707
O56   O     O_R   0.955396 0.083736 0.315418 -0.356866
N5    N     N_R   0.136551 0.442910 0.718880 0.130536
O57   O     O_R   0.104380 0.418066 0.668219 -0.367093
O58   O     O_R   0.153630 0.435162 0.789145 -0.336235
N6    N     N_R   0.863035 0.418037 0.379913 0.110964
O59   O     O_R   0.898762 0.414681 0.447544 -0.382368
O60   O     O_R   0.843602 0.382169 0.342553 -0.342775
N7    N     N_R   0.636598 0.943247 0.719320 0.130165
O61   O     O_R   0.604532 0.918230 0.668871 -0.376860
O62   O     O_R   0.653637 0.935760 0.789640 -0.338878
N8    N     N_R   0.363048 0.942671 0.281749 0.130622
O63   O     O_R   0.395001 0.917910 0.332869 -0.375728
O64   O     O_R   0.345991 0.934590 0.211641 -0.334322
C137  C     C_1   0.365421 0.519289 0.973723 0.256454
N9    N     N_1   0.383070 0.526450 0.036822 -0.233630
C138  C     C_1   0.634950 0.447605 0.047607 0.281396
N10   N     N_1   0.617195 0.426085 0.994179 -0.230386
C139  C     C_1   0.865441 0.019652 0.973614 0.257021
N11   N     N_1   0.883096 0.026944 0.036674 -0.231812
C140  C     C_1   0.134184 0.018235 0.024818 0.263635
N12   N     N_1   0.116260 0.024728 0.961395 -0.253223
N13   N     N_R   0.366421 0.481529 0.753191 0.109899
O65   O     O_R   0.400762 0.456061 0.786545 -0.346180
O66   O     O_R   0.349391 0.493713 0.684538 -0.340030
N14   N     N_R   0.634616 0.552163 0.222579 0.132070
O67   O     O_R   0.602019 0.534816 0.220751 -0.363346
O68   O     O_R   0.650898 0.589550 0.256839 -0.326975
N15   N     N_R   0.866406 0.981233 0.753265 0.109642
O69   O     O_R   0.900708 0.955711 0.786694 -0.347240
O70   O     O_R   0.849395 0.993324 0.684577 -0.340016
N16   N     N_R   0.133741 0.983135 0.247092 0.110648
O71   O     O_R   0.099264 0.957653 0.214444 -0.356415
O72   O     O_R   0.150937 0.995807 0.315495 -0.339651
C141  C     C_1   0.222564 0.558193 0.635629 0.255522
N17   N     N_1   0.239484 0.582132 0.618395 -0.235937
C142  C     C_1   0.779073 0.583352 0.256031 0.256226
N18   N     N_1   0.762555 0.616947 0.230102 -0.241061
C143  C     C_1   0.722550 0.057971 0.635233 0.255599
N19   N     N_1   0.739461 0.081798 0.617830 -0.236915
C144  C     C_1   0.277851 0.059669 0.362379 0.254137
N20   N     N_1   0.261116 0.083994 0.379047 -0.236863

loop_
_geom_bond_atom_site_label_1
_geom_bond_atom_site_label_2
_geom_bond_distance
_ccdc_geom_bond_type
Cu7   Cu8   2.674660 S    
C51   C55   1.400443 A    
C77   H25   1.083869 S    
C114  C123  1.402291 A    
C141  N17   1.157290 T    
C129  H57   1.083118 S    
C12   H30   1.083258 S    
O46   C99   1.294832 A    
O37   Cu9   1.964298 S    
C31   C35   1.340635 D    
O19   C86   1.294886 A    
C101  C111  1.402132 A    
C103  C107  1.393908 A    
O35   Cu11  1.962934 S    
C117  H45   1.083066 S    
C128  H56   1.083273 S    
C101  C105  1.393920 A    
C4    C48   1.463612 S    
O27   C89   1.288463 A    
C114  C118  1.394014 A    
C108  H40   1.083025 S    
C118  C121  1.403914 A    
N6    O59   1.300310 A    
C63   C143  1.444493 S    
C38   H14   1.084800 S    
C107  C110  1.404065 A    
C104  C108  1.393452 A    
C74   N6    1.440774 S    
C79   C83   1.402166 A    
O21   C87   1.294969 A    
C120  H48   1.083048 S    
O32   C92   1.294879 A    
O33   C93   1.294594 A    
O33   Cu9   1.962934 S    
O30   C91   1.294869 A    
C48   C52   1.416693 A    
O34   Cu10  1.964511 S    
C50   C54   1.400323 A    
C33   H9    1.086004 S    
C19   H51   1.083164 S    
C27   C89   1.458696 S    
C129  C133  1.404127 A    
C2    C46   1.471870 S    
O13   C5    1.295237 A    
O7    Cu4   1.962876 S    
C11   C17   1.393633 A    
C25   C87   1.458629 S    
Cu12  O48   1.962884 S    
O15   C7    1.295296 A    
Cu9   Cu10  2.674802 S    
C116  C120  1.393993 A    
O23   Cu7   1.960141 S    
C42   C46   1.414734 A    
O4    Cu2   1.962872 S    
C142  N18   1.157270 T    
O24   C90   1.295097 A    
C14   H32   1.083355 S    
O9    C5    1.289692 A    
O44   C98   1.293287 A    
C69   C95   1.466918 S    
C126  H54   1.083365 S    
C70   C96   1.459237 S    
N5    O58   1.301385 A    
O8    Cu4   1.961640 S    
N16   O71   1.300263 A    
C58   C82   1.475035 S    
C85   C109  1.468928 S    
N3    O54   1.301319 A    
O3    Cu2   1.961649 S    
C62   C82   1.409859 A    
O18   C85   1.295323 A    
C6    C34   1.457861 S    
C73   N5    1.438428 S    
C60   C84   1.475994 S    
C130  C133  1.404180 A    
C75   C79   1.399601 A    
C16   C94   1.468636 S    
N14   O68   1.301413 A    
C42   C138  1.445509 S    
O3    C3    1.292633 A    
C104  C112  1.402077 A    
C28   H4    1.086097 S    
O19   Cu7   1.963078 S    
C53   C57   1.399677 A    
Cu5   Cu6   2.674660 S    
C21   C25   1.351475 D    
C63   C67   1.395617 A    
C113  C123  1.402013 A    
C23   C27   1.351426 D    
Cu9   O45   1.964456 S    
C24   C28   1.350702 D    
O28   Cu7   1.964571 S    
C37   C41   1.394895 A    
O40   C98   1.294510 A    
C39   C43   1.394860 A    
N15   O70   1.301514 A    
C7    C35   1.457294 S    
O39   Cu11  1.964298 S    
C65   C69   1.402406 A    
C119  H47   1.083060 S    
C56   H20   1.083491 S    
C35   H11   1.085977 S    
O17   Cu5   1.963078 S    
N1    O49   1.301099 A    
C74   C78   1.401177 A    
C22   N2    1.440807 S    
O20   Cu8   1.964307 S    
O5    Cu3   1.962876 S    
C29   H5    1.086610 S    
C72   C98   1.467206 S    
C32   H8    1.086632 S    
O26   Cu5   1.964571 S    
O27   Cu8   1.964569 S    
O16   Cu4   1.963162 S    
C119  C122  1.403991 A    
C99   C121  1.468555 S    
O37   C95   1.294052 A    
C105  C109  1.404043 A    
C103  H35   1.083266 S    
C128  C136  1.402186 A    
C64   C144  1.444502 S    
O36   Cu12  1.964511 S    
C10   C14   1.402364 A    
Cu5   O29   1.964303 S    
O13   Cu3   1.961585 S    
Cu6   O30   1.963076 S    
C15   C18   1.403941 A    
C114  H42   1.083258 S    
C72   C76   1.414239 A    
O22   Cu6   1.960143 S    
O25   C87   1.288393 A    
O5    C1    1.292611 A    
C79   H27   1.083873 S    
O8    C4    1.292259 A    
N13   O65   1.300231 A    
C21   N1    1.440483 S    
O15   Cu4   1.961585 S    
C21   C29   1.479448 S    
N4    O56   1.301368 A    
C69   C73   1.414057 A    
C23   C31   1.479367 S    
C71   C75   1.414093 A    
O4    C4    1.292641 A    
C106  C109  1.404076 A    
C127  C136  1.402023 A    
C17   H49   1.083043 S    
C28   C90   1.457095 S    
O14   C6    1.290082 A    
C67   H23   1.085017 S    
C16   C19   1.404107 A    
C92   C134  1.468848 S    
C115  C124  1.401990 A    
O26   C88   1.287529 A    
N2    O51   1.301000 A    
C29   C33   1.340741 D    
C127  H55   1.083284 S    
Cu11  O47   1.964456 S    
O24   Cu8   1.960143 S    
C131  H59   1.083046 S    
C125  H53   1.083353 S    
C126  C135  1.402141 A    
O10   C6    1.294968 A    
C103  C112  1.402132 A    
O22   C88   1.295078 A    
C23   N3    1.440349 S    
C102  H34   1.083284 S    
O43   C97   1.293610 A    
N8    O64   1.301387 A    
C53   H17   1.083501 S    
C55   H19   1.083500 S    
C131  C134  1.404035 A    
C132  H60   1.083042 S    
O42   C96   1.291408 A    
C52   N16   1.440299 S    
N6    O60   1.301525 A    
C138  N10   1.157329 T    
C105  H37   1.083034 S    
N8    O63   1.301305 A    
C55   C59   1.399669 A    
C63   C83   1.410043 A    
C45   C49   1.417149 A    
C61   C81   1.410050 A    
C43   C139  1.444407 S    
C47   C51   1.417156 A    
N7    O61   1.301291 A    
C44   C48   1.411395 A    
N3    O53   1.301096 A    
C100  C122  1.468673 S    
O20   C86   1.295303 A    
C9    C12   1.402220 A    
C30   C34   1.341157 D    
C102  C106  1.393434 A    
C127  C131  1.393772 A    
C22   C26   1.350775 D    
C91   C133  1.469012 S    
C65   H21   1.085024 S    
C62   C142  1.444226 S    
C113  C117  1.393405 A    
C37   H13   1.084763 S    
C40   H16   1.084673 S    
C80   H28   1.083849 S    
O38   C96   1.292304 A    
O36   C94   1.295178 A    
O39   C97   1.294134 A    
N5    O57   1.301370 A    
N16   O72   1.301518 A    
C54   H18   1.083624 S    
O12   Cu2   1.961587 S    
C144  N20   1.157287 T    
C116  H44   1.083263 S    
O1    C1    1.292664 A    
C20   H52   1.083146 S    
N15   O69   1.300226 A    
C49   C53   1.400474 A    
C18   H50   1.083022 S    
C30   H6    1.086637 S    
C3    C47   1.464177 S    
C46   C50   1.417808 A    
C68   H24   1.085028 S    
C139  N11   1.156796 T    
C115  H43   1.083290 S    
C24   C32   1.479258 S    
C140  N12   1.157266 T    
C41   C45   1.411371 A    
C126  C130  1.393475 A    
O25   Cu6   1.964569 S    
C24   N4    1.440987 S    
C116  C124  1.402233 A    
Cu7   O31   1.964303 S    
C64   C68   1.395836 A    
O31   C92   1.295244 A    
O17   C85   1.294854 A    
O48   C100  1.294858 A    
C15   C17   1.403986 A    
C125  C135  1.402275 A    
C77   C81   1.402222 A    
O6    C2    1.294501 A    
C27   H3    1.086150 S    
C49   N13   1.440283 S    
O21   Cu5   1.960141 S    
C68   C72   1.402191 A    
C22   C30   1.479092 S    
C43   C47   1.411382 A    
Cu11  Cu12  2.674802 S    
C39   C59   1.398457 A    
C15   C93   1.468796 S    
O2    Cu1   1.962872 S    
O10   Cu1   1.961587 S    
O43   Cu12  1.960518 S    
C75   N7    1.438320 S    
C32   C36   1.341321 D    
C36   H12   1.085919 S    
C40   C44   1.395663 A    
C143  N19   1.157289 T    
C64   C84   1.410446 A    
C117  C121  1.403944 A    
C11   H29   1.083276 S    
C128  C132  1.393919 A    
O41   Cu10  1.960518 S    
O42   Cu9   1.960518 S    
C26   C88   1.457294 S    
C38   C42   1.395942 A    
C104  H36   1.083279 S    
O7    C3    1.292626 A    
C80   C84   1.402199 A    
C13   C19   1.393427 A    
C66   C70   1.400145 A    
C14   C20   1.393964 A    
N14   O67   1.301158 A    
N7    O62   1.301381 A    
C120  C122  1.403956 A    
C132  C134  1.403930 A    
C118  H46   1.083057 S    
C111  C124  1.469431 S    
C9    C136  1.469531 S    
C13   H31   1.083380 S    
C73   C77   1.399691 A    
C102  C111  1.402024 A    
O44   Cu11  1.960518 S    
C34   H10   1.085944 S    
C52   C56   1.400082 A    
C37   C57   1.398457 A    
C12   C18   1.393908 A    
C61   C141  1.444495 S    
O23   C89   1.294945 A    
O11   C7    1.289494 A    
O12   C8    1.294839 A    
O1    Cu1   1.961649 S    
O9    Cu1   1.963159 S    
C71   C97   1.467077 S    
O35   C94   1.294577 A    
C61   C65   1.395601 A    
C50   N14   1.438771 S    
C125  C129  1.394000 A    
O16   C8    1.290265 A    
C16   C20   1.404084 A    
N2    O52   1.301198 A    
C113  H41   1.083288 S    
O11   Cu2   1.963159 S    
O41   C95   1.293611 A    
C137  N9    1.156790 T    
C107  H39   1.083032 S    
C51   N15   1.440279 S    
Cu10  O46   1.962884 S    
C31   H7    1.086682 S    
N1    O50   1.301283 A    
C78   H26   1.083792 S    
O47   C100  1.295499 A    
C5    C33   1.457526 S    
O38   Cu10  1.964296 S    
C76   N8    1.438483 S    
O6    Cu3   1.961640 S    
C8    C36   1.457909 S    
C25   H1    1.086154 S    
C67   C71   1.402455 A    
C70   C74   1.413658 A    
O28   C90   1.287405 A    
O29   C91   1.295341 A    
C86   C110  1.468950 S    
O2    C2    1.294555 A    
C112  C123  1.469513 S    
C56   C60   1.399765 A    
C130  H58   1.083104 S    
O18   Cu6   1.964307 S    
C44   C140  1.445477 S    
C10   C13   1.402150 A    
O45   C99   1.295471 A    
O14   Cu3   1.963162 S    
C115  C119  1.393433 A    
C40   C60   1.399302 A    
Cu1   Cu3   2.676649 S    
C26   H2    1.086108 S    
Cu2   Cu4   2.676649 S    
C59   C83   1.475219 S    
C41   C137  1.444382 S    
C57   C81   1.475260 S    
C9    C11   1.401947 A    
O40   Cu12  1.964296 S    
C39   H15   1.084762 S    
C101  H33   1.083269 S    
N13   O66   1.301515 A    
C78   C82   1.402402 A    
C62   C66   1.396161 A    
N4    O55   1.301010 A    
Cu8   O32   1.963076 S    
C38   C58   1.398277 A    
O34   C93   1.295253 A    
C66   H22   1.085301 S    
C106  H38   1.083023 S    
C108  C110  1.404055 A    
C10   C135  1.469551 S    
C54   C58   1.398721 A    
C76   C80   1.399902 A    
C1    C45   1.464219 S    
