data_mof_unit_12138.cif
_audit_creation_date              2012-12-10T16:54:52-0500
_audit_creation_method            fapswitch 2.2
_symmetry_space_group_name_H-M    P1
_symmetry_Int_Tables_number       1
_space_group_crystal_system       triclinic
_cell_length_a                    7.910591
_cell_length_b                    8.700752
_cell_length_c                    15.627539
_cell_angle_alpha                 91.737573
_cell_angle_beta                  89.545119
_cell_angle_gamma                 92.226295
_cell_volume                      1074.28296903

loop_
_atom_site_label
_atom_site_type_symbol
_atom_type_description
_atom_site_fract_x
_atom_site_fract_y
_atom_site_fract_z
_atom_type_partial_charge
C1    C     C_R   0.543679 0.793644 0.498176 0.955784
C2    C     C_2   0.430923 0.044993 0.504511 0.506321
C3    C     C_R   0.508106 0.504321 0.661151 0.834206
C4    C     C_R   0.455864 0.206776 0.502390 0.784735
C5    C     C_R   0.491812 0.495268 0.338787 0.832897
C6    C     C_3   0.436681 0.655872 0.955104 0.334473
C7    C     C_3   0.699598 0.495421 0.964203 0.123361
C8    C     C_3   0.663999 0.489451 0.062490 0.296802
C9    C     C_1   0.469291 0.482057 0.249936 -0.018221
C10   C     C_3   0.523853 0.500792 0.917096 -0.489110
C11   C     C_3   0.381713 0.624853 0.050124 0.991594
C12   C     C_3   0.469647 0.479971 0.082142 -0.463391
C13   C     C_3   0.389845 0.333410 0.036610 0.427127
C14   C     C_3   0.430589 0.338728 0.938504 0.721018
C15   C     C_1   0.456368 0.474815 0.174287 0.309687
C16   C     C_1   0.539303 0.510540 0.825645 0.217600
C17   C     C_1   0.529259 0.510776 0.749985 -0.040029
C18   C     C_2   0.565112 0.956495 0.497226 -0.467404
F1    F     F_    0.421804 0.750116 0.104559 -0.585021
F2    F     F_    0.208047 0.602492 0.056637 -0.517825
F3    F     F_    0.268881 0.988260 0.514038 -0.568450
F4    F     F_    0.025771 0.369791 0.418199 -0.515508
F5    F     F_    0.974280 0.629829 0.582006 -0.523786
F6    F     F_    0.740821 0.367598 0.099846 -0.529072
F7    F     F_    0.547779 0.229511 0.927909 -0.594012
F8    F     F_    0.219576 0.314848 0.054930 -0.508681
H1    H     H_    0.448007 0.231612 0.064288 0.225974
H2    H     H_    0.693358 0.004199 0.490006 0.201040
H3    H     H_    0.774941 0.600449 0.950359 0.185342
H4    H     H_    0.721369 0.593651 0.094813 0.202977
H5    H     H_    0.037002 0.674281 0.820484 0.388722
H6    H     H_    0.726501 0.952189 0.860881 0.442951
H7    H     H_    0.870413 0.426803 0.797354 0.364969
H8    H     H_    0.457300 0.191932 0.759718 0.341317
N1    N     N_2   0.950340 0.457950 0.477370 0.267774
N2    N     N_2   0.049660 0.542050 0.522630 0.274634
O1    O     O_R   0.389240 0.738570 0.505550 -0.531678
O2    O     O_2   0.336892 0.820121 0.819405 -0.183324
O3    O     O_3   0.120788 0.608573 0.846717 -0.487818
O4    O     O_2   0.481801 0.965696 0.975845 -0.105300
O5    O     O_2   0.717650 0.827544 0.024871 -0.254613
O6    O     O_3   0.679812 0.844916 0.861049 -0.528698
O7    O     O_2   0.019591 0.427979 0.955324 -0.111665
O8    O     O_2   0.834682 0.205523 0.972560 -0.016834
O9    O     O_3   0.846447 0.325302 0.822584 -0.477593
O10   O     O_2   0.153039 0.147783 0.909874 -0.072629
O11   O     O_2   0.195636 0.349903 0.805281 -0.250900
O12   O     O_R   0.678400 0.711630 0.491050 -0.577770
O13   O     O_3   0.389522 0.124962 0.798154 -0.407975
O14   O     O_R   0.355360 0.513470 0.630110 -0.558858
O15   O     O_R   0.644510 0.486530 0.615610 -0.596109
O16   O     O_R   0.321600 0.288370 0.508950 -0.534921
O17   O     O_R   0.610760 0.261430 0.494450 -0.645854
O18   O     O_R   0.355490 0.513470 0.384390 -0.576437
O19   O     O_R   0.644640 0.486530 0.369890 -0.573995
O20   O     O_2   0.165354 0.838089 0.949339 -0.124855
S1    S     S_3+6 0.262229 0.730302 0.892092 0.193761
S2    S     S_3+6 0.584108 0.827175 0.957030 0.142423
S3    S     S_3+6 0.852859 0.357543 0.929222 0.250626
S4    S     S_3+6 0.281893 0.245004 0.863161 0.224891
Zn1   Zn    Zn3+2 0.306930 0.517990 0.509680 1.224987
Zn2   Zn    Zn3+2 0.693070 0.482010 0.490320 1.170343

loop_
_geom_bond_atom_site_label_1
_geom_bond_atom_site_label_2
_ccdc_geom_bond_type
C6    C10   S    
C7    C10   S    
O1    Zn1   S    
C11   C12   S    
C1    O12   A    
C5    C9    S    
C7    H3    S    
O18   Zn1   S    
C1    O1    A    
C4    O17   A    
C2    C18   D    
O2    S1    D    
H7    O9    S    
O17   Zn2   S    
C6    S2    S    
O12   Zn2   S    
N1    N2    D    
C12   C15   S    
O7    S3    D    
C8    C12   S    
C8    H4    S    
O6    S2    S    
C2    F3    S    
C9    C15   T    
C18   H2    S    
C7    C8    S    
C10   C16   S    
C13   C14   S    
C12   C13   S    
F4    N1    S    
O15   Zn2   S    
C6    S1    S    
C11   F1    S    
C1    C18   S    
O13   S4    S    
C4    O16   A    
C2    C4    S    
C7    S3    S    
C8    F6    S    
C3    O14   A    
H5    O3    S    
O5    S2    D    
C3    C17   S    
N1    Zn2   S    
O16   Zn1   S    
C14   F7    S    
C13   F8    S    
C11   F2    S    
O4    S2    D    
O8    S3    D    
N2    Zn1   S    
O3    S1    S    
O19   Zn2   S    
C5    O18   A    
C14   S4    S    
O20   S1    D    
F5    N2    S    
C10   C14   S    
C6    C11   S    
O14   Zn1   S    
H6    O6    S    
O9    S3    S    
H8    O13   S    
C3    O15   A    
O10   S4    D    
O11   S4    D    
C5    O19   A    
C13   H1    S    
C16   C17   T    
