data_mof_unit_51050.cif
_audit_creation_date              2012-12-11T17:36:13-0500
_audit_creation_method            fapswitch 2.2
_symmetry_space_group_name_H-M    P1
_symmetry_Int_Tables_number       1
_space_group_crystal_system       triclinic
_cell_length_a                    26.072354
_cell_length_b                    6.892554
_cell_length_c                    21.672224
_cell_angle_alpha                 90.595057
_cell_angle_beta                  96.243529
_cell_angle_gamma                 90.700034
_cell_volume                      3870.9511723

loop_
_atom_site_label
_atom_site_type_symbol
_atom_type_description
_atom_site_fract_x
_atom_site_fract_y
_atom_site_fract_z
_atom_type_partial_charge
O1    O     O_R   0.208650 0.594520 0.175450 -0.548299
O2    O     O_R   0.791350 0.405480 0.824550 -0.527373
O3    O     O_R   0.291350 0.094520 0.324550 -0.552151
O4    O     O_R   0.708650 0.905480 0.675450 -0.520945
O5    O     O_R   0.192980 0.260780 0.300160 -0.524797
O6    O     O_R   0.807020 0.739220 0.699840 -0.525515
O7    O     O_R   0.307020 0.760780 0.199840 -0.517778
O8    O     O_R   0.692980 0.239220 0.800160 -0.534140
C1    C     C_R   0.177114 0.434661 0.316456 0.739222
C2    C     C_R   0.821438 0.567509 0.681902 0.744350
C3    C     C_R   0.322241 0.934202 0.182649 0.720775
C4    C     C_R   0.679101 0.066442 0.818926 0.666883
O9    O     O_R   0.202550 0.264660 0.174420 -0.519964
O10   O     O_R   0.797450 0.735340 0.825580 -0.534094
O11   O     O_R   0.297450 0.764660 0.325580 -0.530317
O12   O     O_R   0.702550 0.235340 0.674420 -0.552223
O13   O     O_R   0.300990 0.096480 0.197920 -0.516029
O14   O     O_R   0.699010 0.903520 0.802080 -0.510471
O15   O     O_R   0.199010 0.596480 0.302080 -0.524544
O16   O     O_R   0.800990 0.403520 0.697920 -0.538500
C5    C     C_R   0.189707 0.430398 0.151183 0.810739
C6    C     C_R   0.809335 0.568704 0.849219 0.811180
C7    C     C_R   0.310116 0.935558 0.348226 0.780610
C8    C     C_R   0.691588 0.064284 0.650455 0.768970
O17   O     O_3   0.282290 0.427760 0.257860 -0.358714
O18   O     O_3   0.717710 0.572240 0.742140 -0.358844
O19   O     O_3   0.217710 0.927760 0.242140 -0.352938
O20   O     O_3   0.782290 0.072240 0.757860 -0.363972
V1    V     V_3+5 0.244010 0.152080 0.248540 1.554656
V2    V     V_3+5 0.755990 0.847920 0.751460 1.602351
V3    V     V_3+5 0.255990 0.652080 0.251460 1.554490
V4    V     V_3+5 0.744010 0.347920 0.748540 1.549251
C9    C     C_R   0.660064 0.044201 0.589253 -0.089042
C10   C     C_R   0.344433 0.947923 0.407760 -0.082591
C11   C     C_R   0.841124 0.573527 0.910952 -0.098293
C12   C     C_R   0.152888 0.415213 0.092473 -0.118834
C13   C     C_R   0.650733 0.925955 0.482312 0.160083
C14   C     C_R   0.355926 0.927492 0.520363 0.164950
C15   C     C_R   0.855797 0.716389 0.015107 0.190713
C16   C     C_R   0.124610 0.209337 0.001830 0.158686
C17   C     C_R   0.680542 0.947300 0.540215 0.103222
C18   C     C_R   0.324401 0.906658 0.463567 0.122655
C19   C     C_R   0.823435 0.680290 0.959816 0.244316
C20   C     C_R   0.163279 0.273296 0.048234 0.142932
C21   C     C_R   0.607845 0.097346 0.581799 -0.221403
C22   C     C_R   0.397249 0.995873 0.408817 -0.232112
C23   C     C_R   0.890749 0.492990 0.919770 -0.221219
C24   C     C_R   0.102851 0.496250 0.087702 -0.230414
C25   C     C_R   0.574258 0.033882 0.528946 0.050937
C26   C     C_R   0.431838 0.988502 0.464619 0.041962
C27   C     C_R   0.922694 0.513240 0.977484 0.084248
C28   C     C_R   0.061436 0.421827 0.044046 0.053025
C29   C     C_R   0.597853 0.972148 0.476671 0.093007
C30   C     C_R   0.409086 0.971954 0.520836 0.087745
C31   C     C_R   0.906066 0.637666 0.023392 0.039039
C32   C     C_R   0.073914 0.278457 0.000734 0.085271
C33   C     C_R   0.518607 0.022659 0.526476 0.004830
C34   C     C_R   0.487730 0.995585 0.467171 0.005388
C35   C     C_R   0.971673 0.419402 0.989785 0.020032
C36   C     C_R   0.008111 0.483528 0.040960 0.004418
C37   C     C_R   0.514610 0.958235 0.414249 -0.033850
C38   C     C_R   0.492928 0.015389 0.581344 -0.041177
C39   C     C_R   0.988105 0.595084 0.088285 -0.020435
C40   C     C_R   0.983975 0.252546 0.955941 -0.049248
C41   C     C_R   0.568089 0.946375 0.419955 -0.170316
C42   C     C_R   0.439642 0.992807 0.577489 -0.169196
C43   C     C_R   0.938829 0.674454 0.078083 -0.212038
C44   C     C_R   0.034947 0.193276 0.959072 -0.173326
H1    H     H_    0.586502 0.905416 0.379256 0.185137
H2    H     H_    0.422124 0.981137 0.620489 0.193435
H3    H     H_    0.925225 0.758312 0.115397 0.162124
H4    H     H_    0.043508 0.069053 0.931110 0.209109
H5    H     H_    0.409828 0.042546 0.365642 0.146830
H6    H     H_    0.593755 0.180236 0.618812 0.132044
H7    H     H_    0.096962 0.612250 0.119752 0.140089
H8    H     H_    0.904853 0.421079 0.880482 0.144823
C45   C     C_R   0.453837 0.827942 0.121678 -0.089029
C46   C     C_R   0.608013 0.165514 0.963371 -0.064036
C47   C     C_R   0.055766 0.313851 0.398168 -0.066876
C48   C     C_R   0.947987 0.666453 0.608699 -0.063039
C49   C     C_R   0.410033 0.812823 0.155718 -0.132756
C50   C     C_R   0.642514 0.185864 0.917073 -0.167397
C51   C     C_R   0.091077 0.312625 0.351865 -0.124397
C52   C     C_R   0.908017 0.682577 0.648439 -0.168836
C53   C     C_R   0.369007 0.950198 0.146515 -0.231785
C54   C     C_R   0.640344 0.052608 0.865920 -0.239975
C55   C     C_R   0.132105 0.452964 0.355533 -0.232415
C56   C     C_R   0.864214 0.555943 0.640271 -0.190793
C57   C     C_R   0.373902 0.102606 0.102529 0.011406
C58   C     C_R   0.601838 0.902282 0.861905 0.015517
C59   C     C_R   0.129897 0.612968 0.397991 -0.077646
C60   C     C_R   0.861664 0.414234 0.592078 -0.002090
C61   C     C_R   0.416794 0.109740 0.067778 0.188324
C62   C     C_R   0.567014 0.886810 0.907287 0.188367
C63   C     C_R   0.099191 0.599072 0.447757 0.218726
C64   C     C_R   0.902047 0.394183 0.554311 0.139135
C65   C     C_R   0.456020 0.972030 0.076219 -0.020711
C66   C     C_R   0.569660 0.017799 0.957683 -0.020369
C67   C     C_R   0.060100 0.455719 0.446021 -0.012555
C68   C     C_R   0.945268 0.519489 0.562314 0.012176
C69   C     C_1   0.498595 0.984474 0.037487 0.053264
C70   C     C_1   0.531883 0.998994 0.002622 0.045426
C71   C     C_1   0.020165 0.471792 0.488390 0.030793
C72   C     C_1   0.986642 0.493313 0.522575 0.028714
N1    N     N_3   0.271464 0.847821 0.462341 -0.677757
H9    H     H_    0.269995 0.708255 0.480518 0.228166
H10   H     H_    0.253592 0.942631 0.490941 0.255507
N2    N     N_3   0.731577 0.870115 0.549591 -0.624116
H11   H     H_    0.752763 0.920895 0.514728 0.260308
H12   H     H_    0.728515 0.719379 0.545074 0.262148
N3    N     N_3   0.213093 0.185377 0.052836 -0.666427
H13   H     H_    0.208888 0.039323 0.064080 0.222290
H14   H     H_    0.226928 0.191659 0.009512 0.248509
N4    N     N_3   0.772100 0.755116 0.952730 -0.606718
H15   H     H_    0.774797 0.904940 0.959587 0.241015
H16   H     H_    0.752220 0.697549 0.987863 0.286382
N5    N     N_3   0.673131 0.846613 0.429968 -0.673392
H17   H     H_    0.703425 0.937574 0.419934 0.243023
H18   H     H_    0.687651 0.709287 0.441239 0.248044
N6    N     N_3   0.334447 0.898390 0.577964 -0.674674
H19   H     H_    0.305588 0.000262 0.581882 0.238848
H20   H     H_    0.318275 0.758915 0.577992 0.242665
N7    N     N_3   0.836472 0.834829 0.062112 -0.660746
H21   H     H_    0.860617 0.956536 0.070732 0.264048
H22   H     H_    0.836348 0.754179 0.102680 0.240915
N8    N     N_3   0.136188 0.066465 0.956681 -0.671659
H23   H     H_    0.150028 0.941675 0.979509 0.236117
H24   H     H_    0.164388 0.122584 0.930806 0.249023
C73   C     C_2   0.490348 0.888866 0.353808 0.792417
O21   O     O_2   0.472562 0.724109 0.348777 -0.532140
O22   O     O_R   0.490921 0.007928 0.302084 -0.642028
H25   H     H_    0.473733 0.944846 0.262731 0.323323
C74   C     C_2   0.519382 0.992677 0.644533 0.783654
O23   O     O_2   0.549493 0.859680 0.655477 -0.535307
O24   O     O_R   0.508747 0.121043 0.691737 -0.647037
H26   H     H_    0.530389 0.096472 0.732539 0.313699
C75   C     C_2   0.010409 0.592159 0.153824 0.758531
O25   O     O_2   0.025073 0.439077 0.176955 -0.537032
O26   O     O_R   0.011663 0.760696 0.190274 -0.644307
H27   H     H_    0.025987 0.735748 0.234791 0.346309
C76   C     C_2   0.944068 0.112011 0.927764 0.749308
O27   O     O_2   0.903185 0.092935 0.950064 -0.562454
O28   O     O_R   0.954370 0.993025 0.878122 -0.633385
H28   H     H_    0.925216 0.897069 0.865762 0.331238
C77   C     C_2   0.499072 0.700006 0.136090 0.832113
O29   O     O_2   0.519317 0.623390 0.094056 -0.530913
O30   O     O_R   0.518873 0.669230 0.197754 -0.645405
H29   H     H_    0.549579 0.579634 0.201433 0.322424
C78   C     C_2   0.613712 0.293862 0.019423 0.816191
O31   O     O_2   0.575664 0.364435 0.038525 -0.530118
O32   O     O_R   0.662655 0.332900 0.050541 -0.652087
H30   H     H_    0.661449 0.422443 0.087753 0.313578
C79   C     C_2   0.013010 0.170069 0.396804 0.856197
O33   O     O_2   0.021284 0.008128 0.417802 -0.515133
O34   O     O_R   0.963387 0.221284 0.372030 -0.653828
H31   H     H_    0.937455 0.111193 0.373737 0.307624
C80   C     C_2   0.993024 0.801864 0.615850 0.748703
O35   O     O_2   0.018422 0.823236 0.666363 -0.524253
O36   O     O_R   0.005748 0.906971 0.564722 -0.655780
H32   H     H_    0.036314 0.998062 0.575477 0.311512
C81   C     C_2   0.408015 0.651146 0.200803 0.878906
O37   O     O_2   0.419636 0.486858 0.186211 -0.535414
O38   O     O_R   0.393774 0.686591 0.260126 -0.651939
H33   H     H_    0.391751 0.563470 0.285022 0.321536
C82   C     C_2   0.680114 0.351284 0.922554 0.904060
O39   O     O_2   0.664459 0.516621 0.926590 -0.523672
O40   O     O_R   0.733153 0.321752 0.925584 -0.638818
H34   H     H_    0.742202 0.180181 0.923193 0.248420
C83   C     C_2   0.080508 0.185325 0.295097 0.910104
O41   O     O_2   0.053116 0.040564 0.295723 -0.536078
O42   O     O_R   0.100590 0.233335 0.239907 -0.644163
H35   H     H_    0.091328 0.134216 0.205446 0.318404
C84   C     C_2   0.912986 0.828408 0.699868 0.908426
O43   O     O_2   0.912169 0.774350 0.753179 -0.546704
O44   O     O_R   0.918680 0.026412 0.688578 -0.622594
H36   H     H_    0.916840 0.056437 0.642759 0.276038
C85   C     C_2   0.335169 0.258179 0.088796 0.836740
O45   O     O_2   0.323034 0.365197 0.129871 -0.534425
O46   O     O_R   0.317928 0.298631 0.026966 -0.653886
H37   H     H_    0.296680 0.420998 0.022586 0.295273
C86   C     C_2   0.594310 0.761915 0.809329 0.839185
O47   O     O_2   0.553157 0.757081 0.776484 -0.528201
O48   O     O_R   0.631040 0.620898 0.801769 -0.619747
H38   H     H_    0.619531 0.526894 0.766520 0.298106
C87   C     C_2   0.149663 0.810710 0.384308 0.864165
O49   O     O_2   0.145771 0.867098 0.330877 -0.539470
O50   O     O_R   0.167019 0.941119 0.431972 -0.658977
H39   H     H_    0.177226 0.072308 0.416051 0.282675
C88   C     C_2   0.815334 0.290874 0.577992 0.815132
O51   O     O_2   0.819025 0.114667 0.580450 -0.548229
O52   O     O_R   0.767731 0.377364 0.561586 -0.685969
H40   H     H_    0.739064 0.279711 0.549771 0.283941
N9    N     N_3   0.421024 0.264776 0.024522 -0.618394
H41   H     H_    0.422600 0.204957 0.980241 0.243435
H42   H     H_    0.455208 0.342703 0.037475 0.280271
N10   N     N_3   0.529212 0.732015 0.902119 -0.619757
H43   H     H_    0.492448 0.792267 0.899729 0.243156
H44   H     H_    0.534857 0.646960 0.941902 0.270570
N11   N     N_3   0.106953 0.738555 0.498202 -0.574704
H45   H     H_    0.144760 0.722063 0.518930 0.231164
H46   H     H_    0.084238 0.708437 0.533678 0.246632
N12   N     N_3   0.897744 0.247947 0.506191 -0.641504
H47   H     H_    0.929345 0.155911 0.513474 0.266851
H48   H     H_    0.898841 0.316140 0.463492 0.255759

loop_
_geom_bond_atom_site_label_1
_geom_bond_atom_site_label_2
_ccdc_geom_bond_type
O17   V3    S    
C67   C71   S    
O42   H35   S    
C25   C29   A    
O1    C5    A    
C80   O35   D    
C17   N2    S    
C55   C59   A    
O19   V1    S    
C9    C21   A    
C83   O41   D    
N1    H9    S    
O3    C7    A    
N3    H13   S    
C10   C18   A    
C60   C64   A    
C46   C66   A    
C48   C52   A    
C11   C23   A    
C81   O37   D    
C33   C34   A    
C25   C33   A    
N7    H21   S    
C5    C12   S    
C84   O43   D    
N6    H19   S    
O7    C3    A    
C6    C11   S    
N1    H10   S    
C2    C56   S    
C35   C40   A    
C69   C70   T    
N12   H48   S    
C36   C39   A    
C62   N10   S    
C40   C44   A    
C38   C74   S    
C47   C67   A    
C23   H8    S    
C14   C18   A    
C76   O28   S    
C19   N4    S    
C77   O29   D    
O4    C8    A    
C63   C67   A    
C87   O50   S    
C40   C76   S    
C62   C66   A    
O28   H28   S    
C64   C68   A    
O1    V3    S    
O13   V1    S    
N2    H11   S    
O2    V4    S    
O3    V1    S    
C28   C36   A    
O30   H29   S    
C81   O38   S    
C78   O31   D    
N11   H45   S    
C1    O15   A    
C68   C72   S    
C15   C31   A    
C56   C60   A    
C2    O16   A    
C16   C32   A    
O2    C6    A    
O32   H30   S    
C45   C65   A    
C10   C22   A    
C45   C49   A    
C79   O34   S    
C11   C19   A    
C43   H3    S    
N9    H41   S    
C37   C73   S    
C13   C29   A    
C34   C37   A    
O11   C7    A    
C59   C87   S    
O15   V3    S    
C35   C36   A    
O12   C8    A    
C48   C68   A    
C57   C61   A    
C39   C75   S    
C24   H7    S    
O10   V2    S    
O20   V4    S    
C77   O30   S    
N6    H20   S    
C58   C62   A    
O5    V1    S    
C86   O48   S    
O17   V1    S    
C39   C43   A    
O7    V3    S    
N12   H47   S    
C38   C42   A    
C15   N7    S    
O19   V3    S    
O52   H40   S    
C26   C34   A    
C52   C84   S    
O24   H26   S    
C44   H4    S    
N10   H44   S    
C54   C58   A    
N4    H15   S    
O40   H34   S    
C53   C57   A    
O18   V4    S    
C23   C27   A    
C33   C38   A    
C86   O47   D    
C21   H6    S    
O8    V4    S    
C80   O36   S    
O48   H38   S    
O5    C1    A    
C66   C70   S    
C47   C79   S    
C75   O26   S    
C46   C50   A    
C65   C69   S    
N4    H16   S    
O36   H32   S    
C14   C30   A    
C58   C86   S    
C24   C28   A    
O8    C4    A    
C7    C10   S    
C16   N8    S    
N9    H42   S    
C21   C25   A    
O9    C5    A    
N3    H14   S    
C26   C30   A    
O11   V3    S    
C48   C80   S    
C84   O44   S    
O14   V2    S    
C63   N11   S    
O6    V2    S    
O18   V2    S    
C57   C85   S    
C74   O23   D    
C78   O32   S    
C12   C20   A    
C27   C35   A    
O22   H25   S    
C61   C65   A    
O34   H31   S    
C29   C41   A    
C60   C88   S    
C74   O24   S    
C73   O21   D    
O16   V4    S    
O9    V1    S    
C3    O13   A    
N8    H24   S    
C49   C81   S    
C61   N9    S    
C52   C56   A    
N10   H43   S    
C51   C55   A    
O6    C2    A    
C31   C43   A    
O26   H27   S    
N2    H12   S    
C64   N12   S    
C30   C42   A    
O12   V4    S    
C75   O25   D    
C22   C26   A    
C8    C9    S    
C4    C54   S    
C9    C17   A    
O10   C6    A    
N5    H18   S    
C14   N6    S    
O50   H39   S    
O44   H36   S    
C32   C44   A    
N5    H17   S    
C1    C55   S    
C50   C54   A    
C87   O49   D    
C42   H2    S    
C45   C77   S    
C3    C53   S    
N8    H23   S    
C41   H1    S    
C51   C83   S    
O20   V2    S    
C85   O46   S    
C12   C24   A    
C27   C31   A    
C13   C17   A    
C88   O51   D    
C18   N1    S    
C49   C53   A    
O38   H33   S    
N7    H22   S    
C59   C63   A    
O46   H37   S    
C47   C51   A    
C20   N3    S    
C37   C41   A    
C82   O39   D    
C16   C20   A    
C13   N5    S    
C15   C19   A    
C82   O40   S    
C85   O45   D    
C4    O14   A    
C71   C72   T    
N11   H46   S    
C88   O52   S    
C79   O33   D    
C76   O27   D    
C50   C82   S    
C22   H5    S    
O4    V2    S    
C28   C32   A    
C46   C78   S    
C73   O22   S    
C83   O42   S    
