data_mof_unit_9314.cif
_audit_creation_date              2012-12-11T14:08:20-0500
_audit_creation_method            fapswitch 2.2
_symmetry_space_group_name_H-M    P1
_symmetry_Int_Tables_number       1
_space_group_crystal_system       triclinic
_cell_length_a                    10.979539
_cell_length_b                    10.970539
_cell_length_c                    18.725438
_cell_angle_alpha                 90.436542
_cell_angle_beta                  90.048071
_cell_angle_gamma                 60.426919
_cell_volume                      1961.60655151

loop_
_atom_site_label
_atom_site_type_symbol
_atom_type_description
_atom_site_fract_x
_atom_site_fract_y
_atom_site_fract_z
_atom_type_partial_charge
C1    C     C_R   0.236365 0.644759 0.608721 0.603108
C2    C     C_3   0.677073 0.543527 0.800440 0.403177
C3    C     C_3   0.701241 0.671371 0.812246 -0.037671
C4    C     C_3   0.668509 0.650640 0.675740 -0.066811
C5    C     C_3   0.802613 0.661551 0.687227 0.239499
C6    C     C_3   0.682322 0.520150 0.718124 0.120597
C7    C     C_2   0.679277 0.151400 0.668812 0.234870
C8    C     C_2   0.685694 0.176116 0.831178 0.280223
C9    C     C_2   0.795670 0.132215 0.784966 0.374753
C10   C     C_2   0.776333 0.164015 0.707924 -0.048050
C11   C     C_2   0.180954 0.657608 0.681273 0.476923
C12   C     C_R   0.653921 0.623664 0.600541 0.625342
C13   C     C_2   0.200277 0.666973 0.842144 0.297596
C14   C     C_2   0.212484 0.557894 0.803379 -0.075930
C15   C     C_2   0.234847 0.543680 0.724958 0.234557
C16   C     C_2   0.652044 0.648265 0.318543 0.355667
C17   C     C_2   0.633899 0.665333 0.158997 -0.080384
C18   C     C_2   0.707204 0.549041 0.196967 0.471844
C19   C     C_2   0.677043 0.543929 0.271876 0.389377
C20   C     C_2   0.635257 0.184049 0.321989 0.374562
C21   C     C_2   0.638469 0.204511 0.163018 0.433500
C22   C     C_2   0.525039 0.236884 0.202294 0.188337
C23   C     C_R   0.628446 0.227595 0.601706 0.638830
C24   C     C_2   0.528950 0.267616 0.277624 -0.062488
C25   C     C_2   0.141521 0.674565 0.336577 0.357078
C26   C     C_2   0.004263 0.746963 0.194232 0.358912
C27   C     C_2   0.020882 0.835103 0.238274 0.418774
C28   C     C_2   0.054229 0.805504 0.314215 0.449387
C29   C     C_R   0.703725 0.101767 0.897821 0.633856
C30   C     C_R   0.724767 0.688128 0.888213 0.616806
C31   C     C_R   0.120607 0.706262 0.908452 0.632203
C32   C     C_R   0.673206 0.114384 0.101109 0.561617
C33   C     C_R   0.692843 0.688686 0.094637 0.568506
C34   C     C_R   0.219195 0.649817 0.402422 0.580407
C35   C     C_R   0.015214 0.753997 0.116934 0.571906
C36   C     C_R   0.642155 0.622277 0.393458 0.610095
C37   C     C_R   0.616297 0.228729 0.395259 0.624556
C38   C     C_3   0.570113 0.807991 0.783914 0.310951
C39   C     C_3   0.542048 0.790530 0.704774 0.506638
C40   C     C_3   0.833904 0.650745 0.767868 0.445661
Cr1   Cr    Cr6+3 0.393010 0.398050 0.501480 1.148564
Cr2   Cr    Cr6+3 0.398820 0.707980 0.501630 1.138653
Cr3   Cr    Cr6+3 0.708140 0.393940 0.496850 1.169128
Cr4   Cr    Cr6+3 0.937950 0.938450 0.008940 1.197671
Cr5   Cr    Cr6+3 0.626180 0.937030 0.994750 1.138138
Cr6   Cr    Cr6+3 0.937790 0.625760 0.001410 1.144830
H1    H     H_    0.591201 0.896541 0.789576 0.169345
H2    H     H_    0.787220 0.432018 0.703827 0.192438
H3    H     H_    0.839341 0.204004 0.683974 0.148294
H4    H     H_    0.205897 0.474522 0.830570 0.117413
H5    H     H_    0.539266 0.752902 0.181036 0.119231
H6    H     H_    0.438530 0.361812 0.298001 0.165977
H7    H     H_    0.786570 0.763439 0.666926 0.191230
O1    O     O_R   0.507110 0.256280 0.580300 -0.416678
O2    O     O_R   0.524640 0.695370 0.425100 -0.504192
O3    O     O_R   0.735890 0.504390 0.415980 -0.456459
O4    O     O_R   0.690560 0.277820 0.422350 -0.423729
O5    O     O_3   0.499990 0.499990 0.499980 -0.327008
O6    O     O_R   0.089190 0.825870 0.932320 -0.401523
O7    O     O_R   0.819070 0.053960 0.931440 -0.458680
O8    O     O_R   0.607070 0.076440 0.916460 -0.477509
O9    O     O_R   0.647110 0.806550 0.917690 -0.466071
O10   O     O_R   0.837080 0.593860 0.915300 -0.484803
O11   O     O_R   0.064770 0.636080 0.932550 -0.546899
O12   O     O_R   0.280830 0.527190 0.577940 -0.465376
O13   O     O_R   0.068250 0.829200 0.092940 -0.469822
O14   O     O_R   0.799650 0.057040 0.080330 -0.471817
O15   O     O_R   0.586130 0.079760 0.077080 -0.478775
O16   O     O_R   0.627700 0.809630 0.066580 -0.503830
O17   O     O_R   0.816140 0.597180 0.075920 -0.411549
O18   O     O_R   0.045360 0.639170 0.081440 -0.447653
O19   O     O_3   0.833980 0.833750 0.001700 -0.358089
O20   O     O_R   0.261360 0.738990 0.584270 -0.446231
O21   O     O_R   0.532590 0.694780 0.574370 -0.479125
O22   O     O_R   0.744470 0.503750 0.577000 -0.447151
O23   O     O_R   0.698520 0.277230 0.571620 -0.522301
O24   O     O_R   0.498530 0.256920 0.419280 -0.550440
O25   O     O_R   0.272880 0.527780 0.428680 -0.482856
O26   O     O_R   0.252780 0.739630 0.423250 -0.476588
O27   O     O_3   0.950587 0.517807 0.779463 -0.617446
H8    H     H_    0.994332 0.521618 0.824547 0.370728
F1    F     F_    0.916404 0.558384 0.649525 -0.567554
F2    F     F_    0.928781 0.044096 0.806987 -0.515774
O28   O     O_3   0.549478 0.272748 0.813683 -0.702141
H9    H     H_    0.550726 0.333196 0.775488 0.377111
O29   O     O_3   0.608967 0.086621 0.695237 -0.622938
H10   H     H_    0.673264 0.011232 0.727554 0.342923
O30   O     O_3   0.311316 0.410375 0.695967 -0.639229
H11   H     H_    0.331453 0.340464 0.733873 0.385255
O31   O     O_3   0.240843 0.759762 0.817221 -0.485825
H12   H     H_    0.311099 0.712494 0.779411 0.397932
F3    F     F_    0.451326 0.844368 0.824703 -0.514021
F4    F     F_    0.088544 0.788202 0.705962 -0.541191
F5    F     F_    0.818006 0.432809 0.168285 -0.471707
F6    F     F_    0.694299 0.419599 0.295408 -0.576599
F7    F     F_    0.637417 0.773415 0.297860 -0.654350
O32   O     O_3   0.410815 0.232582 0.173994 -0.641460
H13   H     H_    0.340373 0.256993 0.212534 0.383477
F8    F     F_    0.740781 0.228324 0.189217 -0.494805
O33   O     O_3   0.747204 0.055116 0.303878 -0.578889
H14   H     H_    0.722336 0.017307 0.261613 0.323281
F9    F     F_    0.020578 0.950993 0.212532 -0.518443
F10   F     F_    0.417083 0.788684 0.699452 -0.569829
F11   F     F_    0.021593 0.916778 0.358352 -0.545710
F12   F     F_    0.972633 0.650448 0.220545 -0.568381
F13   F     F_    0.183410 0.561088 0.292915 -0.625168
O34   O     O_3   0.529396 0.905472 0.665869 -0.673442
H15   H     H_    0.455068 0.931714 0.629446 0.398541
F14   F     F_    0.867210 0.753862 0.786542 -0.641227
O35   O     O_3   0.777470 0.422427 0.836984 -0.656420
H16   H     H_    0.861558 0.365632 0.807299 0.360037
O36   O     O_3   0.544756 0.575223 0.826772 -0.627509
H17   H     H_    0.548117 0.578312 0.879719 0.371663
O37   O     O_3   0.586933 0.477629 0.694940 -0.723216
H18   H     H_    0.490710 0.555274 0.702175 0.377788

loop_
_geom_bond_atom_site_label_1
_geom_bond_atom_site_label_2
_ccdc_geom_bond_type
C24   H6    S    
C7    C10   D    
C5    F1    S    
C12   O21   A    
C13   O31   S    
Cr4   O13   S    
Cr3   O3    S    
C1    C11   S    
C23   O23   A    
C17   H5    S    
O32   H13   S    
C25   C28   D    
C39   O34   S    
C2    O36   S    
C26   C27   D    
C16   C36   S    
C6    H2    S    
C8    C29   S    
C5    H7    S    
Cr1   O5    S    
Cr1   O24   S    
C38   C39   S    
Cr2   O2    S    
C7    C23   S    
C7    O29   S    
Cr4   O6    S    
C38   F3    S    
Cr5   O9    S    
C18   C19   S    
C31   O6    A    
O35   H16   S    
C6    O37   S    
Cr3   O5    S    
C11   C15   D    
C20   C24   D    
C3    C38   S    
C8    C9    D    
C1    O12   A    
O34   H15   S    
C40   O27   S    
C4    C12   S    
C9    C10   S    
Cr6   O19   S    
C33   O16   A    
C25   C34   S    
C32   O15   A    
C11   F4    S    
C35   O18   A    
Cr2   O26   S    
C22   O32   S    
C13   C14   D    
Cr5   O19   S    
Cr2   O5    S    
C2    C6    S    
C17   C33   S    
C30   O10   A    
C26   F12   S    
O36   H17   S    
C25   F13   S    
O37   H18   S    
Cr3   O22   S    
C21   C32   S    
C29   O8    A    
Cr2   O21   S    
C16   F7    S    
Cr5   O16   S    
O28   H9    S    
C4    C6    S    
Cr1   O25   S    
O29   H10   S    
O27   H8    S    
Cr1   O12   S    
C35   O13   A    
C37   O24   A    
Cr6   O11   S    
C3    C30   S    
C36   O3    A    
C34   O26   A    
C28   F11   S    
C20   O33   S    
C29   O7    A    
Cr5   O15   S    
C17   C18   D    
Cr6   O18   S    
C38   H1    S    
C33   O17   A    
C9    F2    S    
C32   O14   A    
C3    C40   S    
C30   O9    A    
C18   F5    S    
C22   C24   S    
C12   O22   A    
C19   F6    S    
C23   O1    A    
Cr3   O23   S    
C2    O35   S    
Cr2   O20   S    
C27   F9    S    
C8    O28   S    
C31   O11   A    
C13   C31   S    
C4    C5    S    
C39   F10   S    
C40   F14   S    
C4    C39   S    
Cr6   O10   S    
C1    O20   A    
C2    C3    S    
C36   O2    A    
C34   O25   A    
C20   C37   S    
O31   H12   S    
C14   H4    S    
Cr4   O7    S    
C16   C19   D    
C21   F8    S    
Cr5   O8    S    
O33   H14   S    
Cr4   O19   S    
Cr1   O1    S    
Cr6   O17   S    
Cr3   O4    S    
C26   C35   S    
O30   H11   S    
C5    C40   S    
C27   C28   S    
C14   C15   S    
Cr4   O14   S    
C21   C22   D    
C10   H3    S    
C37   O4    A    
C15   O30   S    
