data_mof_unit_38266.cif
_audit_creation_date              2013-03-05T15:40:19-0500
_audit_creation_method            fapswitch 2.2
_symmetry_space_group_name_H-M    P1
_symmetry_Int_Tables_number       1
_space_group_crystal_system       triclinic
_cell_length_a                    10.869894
_cell_length_b                    10.893208
_cell_length_c                    17.750923
_cell_angle_alpha                 97.934781
_cell_angle_beta                  72.801632
_cell_angle_gamma                 98.317834
_cell_volume                      1976.63259655

loop_
_atom_site_label
_atom_site_type_symbol
_atom_site_description
_atom_site_fract_x
_atom_site_fract_y
_atom_site_fract_z
_atom_type_partial_charge
Zn1   Zn    Zn3+2 0.577310 0.422690 0.565550 0.999512
Zn2   Zn    Zn3+2 0.403760 0.371330 0.445150 1.056236
Zn3   Zn    Zn3+2 0.634990 0.589920 0.423760 0.998124
Zn4   Zn    Zn3+2 0.383940 0.616050 0.565540 1.119530
O1    O     O_3   0.500000 0.500000 0.500000 -0.530374
O2    O     O_R   0.209690 0.568800 0.556400 -0.593023
O3    O     O_R   0.763190 0.458310 0.535350 -0.647157
O4    O     O_R   0.414000 0.207090 0.472140 -0.633700
O5    O     O_R   0.613120 0.765800 0.436110 -0.635180
O6    O     O_R   0.470800 0.371790 0.332500 -0.590639
O7    O     O_R   0.380610 0.619380 0.674980 -0.579095
O8    O     O_R   0.632640 0.524780 0.317540 -0.674657
O9    O     O_R   0.515950 0.484050 0.674980 -0.639566
O10   O     O_R   0.535460 0.243030 0.556410 -0.629269
O11   O     O_R   0.437420 0.784080 0.535340 -0.580134
O12   O     O_R   0.223560 0.397520 0.472140 -0.611712
O13   O     O_R   0.803560 0.575360 0.436110 -0.625858
C1    C     C_R   0.157170 0.478226 0.518808 0.961505
C2    C     C_R   0.843369 0.523123 0.483181 0.781510
C3    C     C_R   0.470189 0.168866 0.517280 0.787915
C4    C     C_R   0.529974 0.833001 0.482855 0.958788
C5    C     C_R   0.566987 0.434518 0.287831 0.885261
C6    C     C_R   0.432838 0.560332 0.713016 0.840311
C7    C     C_R   0.390180 0.572253 0.800846 -0.184765
C8    C     C_R   0.599710 0.405224 0.201830 -0.206488
C9    C     C_R   0.246839 0.640788 0.928565 -0.260367
C10   C     C_R   0.276400 0.626465 0.845804 0.283694
C11   C     C_R   0.462208 0.522066 0.840599 -0.224081
C12   C     C_R   0.420288 0.518190 0.923290 0.088432
C13   C     C_R   0.318221 0.587959 0.967315 0.052097
C14   C     C_R   0.478805 0.449298 0.963433 -0.092608
C15   C     C_R   0.455043 0.474365 0.047198 -0.051960
C16   C     C_R   0.348895 0.542927 0.090184 0.305547
C17   C     C_R   0.283173 0.598608 0.049679 -0.278030
C18   C     C_R   0.551161 0.348485 0.924036 0.470769
C19   C     C_R   0.616803 0.291577 0.963606 -0.227892
C20   C     C_R   0.612779 0.330222 0.042551 -0.104024
C21   C     C_R   0.534587 0.424849 0.084417 0.048446
C22   C     C_R   0.685138 0.273678 0.080014 0.444402
C23   C     C_R   0.677778 0.309814 0.160663 0.391595
C24   C     C_R   0.540312 0.468131 0.161636 -0.216768
H1    H     H_    0.200990 0.647811 0.083209 0.174752
H2    H     H_    0.497410 0.550685 0.192745 0.209214
H3    H     H_    0.670901 0.215462 0.931380 0.201742
H4    H     H_    0.162639 0.686511 0.962931 0.184066
H5    H     H_    0.552495 0.487616 0.806243 0.232676
C25   C     C_2   0.981820 0.538215 0.477478 0.124098
C26   C     C_2   0.022458 0.472302 0.522403 -0.398211
H6    H     H_    0.955989 0.406587 0.560159 0.162261
C27   C     C_2   0.534613 0.964674 0.474415 -0.458989
H7    H     H_    0.600021 0.001064 0.421052 0.144329
C28   C     C_2   0.456983 0.039446 0.528965 0.214437
O14   O     O_3   0.748038 0.171261 0.039820 -0.617576
C29   C     C_3   0.884551 0.199356 0.019578 0.106768
H8    H     H_    0.926867 0.110795 0.993671 0.190777
H9    H     H_    0.919334 0.230101 0.072355 0.170553
C30   C     C_3   0.936246 0.294015 0.957633 -0.410130
H10   H     H_    0.901572 0.260385 0.904694 0.252653
H11   H     H_    0.900834 0.385868 0.982794 0.218547
C31   C     C_3   0.084072 0.311543 0.931765 -0.907778
H12   H     H_    0.121875 0.346466 0.983406 0.255539
H13   H     H_    0.118753 0.380310 0.887283 0.290317
H14   H     H_    0.122289 0.221715 0.904308 0.262546
N1    N     N_R   0.069731 0.623622 0.425306 0.215171
O15   O     O_R   0.030196 0.723984 0.412540 -0.334991
O16   O     O_R   0.186467 0.598196 0.386500 -0.344196
N2    N     N_R   0.385319 0.004718 0.606559 0.230958
O17   O     O_R   0.271099 0.041299 0.639617 -0.384921
O18   O     O_R   0.445571 0.966351 0.650810 -0.395920
O19   O     O_3   0.742572 0.244656 0.196606 -0.629425
C32   C     C_3   0.826021 0.322280 0.236448 0.078596
H15   H     H_    0.889246 0.260746 0.248861 0.178316
H16   H     H_    0.770718 0.358628 0.296264 0.135228
C33   C     C_3   0.917462 0.425774 0.189036 -0.512903
H17   H     H_    0.004002 0.385627 0.147908 0.232299
H18   H     H_    0.870567 0.468703 0.153092 0.216112
C34   C     C_3   0.963249 0.530352 0.244180 -0.644875
H19   H     H_    0.880277 0.578201 0.282751 0.278609
H20   H     H_    0.031480 0.600495 0.208471 0.268725
H21   H     H_    0.012105 0.492945 0.281501 0.294827
N3    N     N_R   0.185392 0.659344 0.809545 0.229183
O20   O     O_R   0.137618 0.575718 0.762915 -0.375698
O21   O     O_R   0.127221 0.759152 0.837556 -0.385769
N4    N     N_R   0.292716 0.541853 0.173982 0.178974
O22   O     O_R   0.257195 0.436452 0.205150 -0.387666
O23   O     O_R   0.266590 0.645683 0.218250 -0.355090
O24   O     O_3   0.550774 0.296156 0.848453 -0.648164
C35   C     C_3   0.434540 0.216341 0.851653 0.090491
H22   H     H_    0.404538 0.225777 0.798246 0.200417
H23   H     H_    0.351875 0.240793 0.903917 0.124452
C36   C     C_3   0.457971 0.080704 0.850069 -0.379524
H24   H     H_    0.533606 0.054356 0.794752 0.268373
H25   H     H_    0.492642 0.070012 0.901447 0.223576
C37   C     C_3   0.334282 0.992663 0.854014 -0.753922
H26   H     H_    0.259783 0.013314 0.910978 0.242399
H27   H     H_    0.356161 0.895226 0.850100 0.271383
H28   H     H_    0.295319 0.002048 0.804139 0.316058

loop_
_geom_bond_atom_site_label_1
_geom_bond_atom_site_label_2
_geom_bond_distance
_ccdc_geom_bond_type
O24   C35   1.417332 S    
C18   C19   1.389732 A    
C17   H1    1.084240 S    
C7    C10   1.418706 A    
N3    O20   1.301457 A    
O14   C29   1.417162 S    
O6    C5    1.281182 A    
C11   H5    1.079516 S    
C9    C10   1.399240 A    
C12   C13   1.409424 A    
C33   H18   1.108727 S    
C31   H14   1.110771 S    
Zn1   O1    1.955213 S    
C19   C20   1.396110 A    
N4    O23   1.301142 A    
C8    C23   1.418834 A    
C2    C25   1.464600 S    
C30   H11   1.111382 S    
O8    C5    1.276921 A    
O9    C6    1.290003 A    
C31   H13   1.110087 S    
Zn3   O8    1.926947 S    
C9    H4    1.084309 S    
C18   O24   1.384385 S    
C25   C26   1.343414 D    
C5    C8    1.461540 S    
C27   C28   1.345737 D    
C6    C7    1.482075 S    
O19   C32   1.424885 S    
C15   C21   1.430447 A    
Zn2   O12   1.927859 S    
C24   H2    1.078454 S    
C4    C27   1.454740 S    
N3    O21   1.301096 A    
C16   C17   1.394546 A    
C34   H20   1.107890 S    
O2    C1    1.274833 A    
C29   H9    1.104083 S    
C33   H17   1.110801 S    
C13   C17   1.390240 A    
N2    O17   1.300907 A    
O10   C3    1.268532 A    
C10   N3    1.436601 S    
N4    O22   1.301628 A    
C21   C24   1.403036 A    
Zn4   O2    1.937883 S    
C8    C24   1.389569 A    
C25   N1    1.446963 S    
C32   H16   1.104946 S    
C30   C31   1.525902 S    
C37   H28   1.110352 S    
C34   H19   1.107332 S    
C33   C34   1.523098 S    
C31   H12   1.111348 S    
N2    O18   1.301795 A    
N1    O16   1.301328 A    
C20   C21   1.416207 A    
Zn3   O5    1.939133 S    
C36   H25   1.110240 S    
C14   C15   1.425959 A    
C35   C36   1.530329 S    
O11   C4    1.261660 A    
C27   H7    1.087997 S    
O4    C3    1.282010 A    
Zn4   O7    1.927668 S    
C37   H27   1.109443 S    
C28   N2    1.439146 S    
C23   O19   1.393662 S    
C26   H6    1.086324 S    
C35   H23   1.116731 S    
C9    C13   1.400157 A    
O3    C2    1.280944 A    
C14   C18   1.423466 A    
C19   H3    1.082437 S    
Zn2   O1    1.951467 S    
Zn1   O9    1.915523 S    
Zn2   O6    1.915622 S    
C36   H24   1.111553 S    
C34   H21   1.110008 S    
C29   H8    1.111089 S    
C11   C12   1.407112 A    
Zn1   O3    1.926242 S    
Zn2   O4    1.941290 S    
C7    C11   1.402461 A    
Zn4   O1    1.931462 S    
Zn3   O1    1.928688 S    
C1    C26   1.439082 S    
C32   C33   1.552514 S    
C3    C28   1.433790 S    
C15   C16   1.429218 A    
Zn4   O11   1.937623 S    
C32   H15   1.110755 S    
C12   C14   1.424534 A    
N1    O15   1.301215 A    
C36   C37   1.523860 S    
O5    C4    1.273364 A    
C30   H10   1.110747 S    
C22   O14   1.390558 S    
O7    C6    1.282238 A    
O13   C2    1.274956 A    
Zn3   O13   1.939565 S    
C37   H26   1.111081 S    
C16   N4    1.432210 S    
C22   C23   1.413011 A    
C20   C22   1.415208 A    
C35   H22   1.111349 S    
O12   C1    1.268418 A    
Zn1   O10   1.939535 S    
C29   C30   1.538862 S    
