data_mof_unit_8051.cif
_audit_creation_date              2012-12-10T18:42:34-0500
_audit_creation_method            fapswitch 2.2
_symmetry_space_group_name_H-M    P1
_symmetry_Int_Tables_number       1
_space_group_crystal_system       triclinic
_cell_length_a                    8.594612
_cell_length_b                    10.706696
_cell_length_c                    9.873272
_cell_angle_alpha                 90.731034
_cell_angle_beta                  98.421519
_cell_angle_gamma                 90.224194
_cell_volume                      898.652579863

loop_
_atom_site_label
_atom_site_type_symbol
_atom_type_description
_atom_site_fract_x
_atom_site_fract_y
_atom_site_fract_z
_atom_type_partial_charge
C1    C     C_R   0.497930 0.259827 0.498267 0.927402
C2    C     C_R   0.424308 0.066256 0.596094 -0.343578
C3    C     C_R   0.490884 0.871709 0.499738 -0.213965
C4    C     C_R   0.489591 0.126991 0.493145 -0.230071
C5    C     C_R   0.615255 0.560967 0.087320 -0.066523
C6    C     C_R   0.384328 0.439543 0.912627 -0.081414
C7    C     C_R   0.615079 0.561091 0.943649 -0.049784
C8    C     C_R   0.383863 0.440242 0.056190 -0.103274
C9    C     C_3   0.467458 0.130389 0.169629 0.126383
C10   C     C_3   0.425802 0.009329 0.087112 -0.396631
C11   C     C_3   0.286050 0.029088 0.975934 -0.925187
C12   C     C_R   0.498417 0.739696 0.500645 0.904539
C13   C     C_3   0.195891 0.831963 0.637309 0.113842
C14   C     C_3   0.070787 0.934530 0.627537 -0.417780
C15   C     C_3   0.905584 0.879474 0.595152 -0.909551
C16   C     C_R   0.201267 0.500486 0.464270 0.938371
C17   C     C_R   0.798751 0.500863 0.535765 0.974938
C18   C     C_2   0.036256 0.501592 0.445041 -0.381505
C19   C     C_2   0.963798 0.502241 0.555078 -0.397278
C20   C     C_R   0.544224 0.059379 0.386336 0.508174
C21   C     C_R   0.416520 0.937788 0.595710 0.518539
C22   C     C_R   0.555063 0.932259 0.396910 -0.369347
H1    H     H_    0.974799 0.501106 0.340536 0.179833
H2    H     H_    0.360984 0.167141 0.208891 0.130174
H3    H     H_    0.528759 0.977338 0.040015 0.244569
H4    H     H_    0.391840 0.934726 0.154012 0.226373
H5    H     H_    0.183356 0.064417 0.021077 0.249359
H6    H     H_    0.252749 0.938197 0.924723 0.300717
H7    H     H_    0.316656 0.096843 0.899843 0.262700
H8    H     H_    0.163948 0.757894 0.706280 0.177154
H9    H     H_    0.195468 0.786472 0.535082 0.111104
H10   H     H_    0.080004 0.987416 0.725682 0.238283
H11   H     H_    0.089607 0.000922 0.545792 0.220575
H12   H     H_    0.025262 0.503094 0.659590 0.172353
H13   H     H_    0.889743 0.831364 0.493661 0.260273
H14   H     H_    0.818969 0.956138 0.593583 0.277566
H15   H     H_    0.883483 0.812003 0.674857 0.257644
H16   H     H_    0.611356 0.880768 0.322295 0.193940
H17   H     H_    0.374888 0.118449 0.674069 0.182847
H18   H     H_    0.707505 0.609905 0.153864 0.121186
H19   H     H_    0.292029 0.390620 0.846121 0.125551
H20   H     H_    0.707156 0.610143 0.901863 0.124354
H21   H     H_    0.291092 0.391987 0.097834 0.121733
H22   H     H_    0.502373 0.201293 0.098641 0.173402
N1    N     N_R   0.499960 0.499970 0.857200 -0.078238
N2    N     N_R   0.500040 0.500030 0.142800 -0.077838
O1    O     O_R   0.499990 0.316750 0.614620 -0.625034
O2    O     O_3   0.345731 0.878975 0.694996 -0.637944
O3    O     O_R   0.500010 0.683250 0.385380 -0.634539
O4    O     O_R   0.499990 0.316780 0.385290 -0.599216
O5    O     O_R   0.500010 0.683220 0.614710 -0.582939
O6    O     O_R   0.271750 0.499990 0.587840 -0.627845
O7    O     O_R   0.728250 0.500010 0.412160 -0.613393
O8    O     O_R   0.271750 0.500010 0.358510 -0.633522
O9    O     O_R   0.728250 0.499990 0.641490 -0.634435
O10   O     O_3   0.596443 0.115502 0.275588 -0.626471
Zn1   Zn    Zn3+2 0.500000 0.499980 0.653120 0.948857
Zn2   Zn    Zn3+2 0.500000 0.500020 0.346880 0.944567

loop_
_geom_bond_atom_site_label_1
_geom_bond_atom_site_label_2
_ccdc_geom_bond_type
C13   O2    S    
C2    C4    A    
O7    Zn2   S    
C19   H12   S    
C9    H2    S    
O5    Zn1   S    
C6    N1    A    
O1    Zn1   S    
C9    C10   S    
C17   O9    A    
C8    H21   S    
C11   H5    S    
C20   O10   S    
C1    C4    S    
C21   O2    S    
C2    C21   A    
C12   O3    A    
C9    O10   S    
C13   C14   S    
N2    Zn2   S    
N1    Zn1   S    
C5    N2    A    
C11   H6    S    
C14   H11   S    
C22   H16   S    
C7    N1    A    
C10   H3    S    
C15   H13   S    
C17   C19   S    
C20   C22   A    
C16   O8    A    
O9    Zn1   S    
O8    Zn2   S    
C8    N2    A    
C3    C21   A    
C10   C11   S    
C18   H1    S    
O4    Zn2   S    
C17   O7    A    
C15   H14   S    
C12   O5    A    
O6    Zn1   S    
C11   H7    S    
C16   C18   S    
C18   C19   D    
C1    O4    A    
C7    H20   S    
C5    C7    A    
C14   C15   S    
C15   H15   S    
C9    H22   S    
C6    C8    A    
C3    C12   S    
C5    H18   S    
C13   H8    S    
C2    H17   S    
C13   H9    S    
C10   H4    S    
C1    O1    A    
O3    Zn2   S    
C16   O6    A    
C14   H10   S    
C3    C22   A    
C6    H19   S    
C4    C20   A    
