data_mof_unit_65070.cif
_audit_creation_date              2012-12-10T17:00:48-0500
_audit_creation_method            fapswitch 2.2
_symmetry_space_group_name_H-M    P1
_symmetry_Int_Tables_number       1
_space_group_crystal_system       triclinic
_cell_length_a                    13.009252
_cell_length_b                    13.134985
_cell_length_c                    19.449224
_cell_angle_alpha                 100.481038
_cell_angle_beta                  81.064689
_cell_angle_gamma                 91.166241
_cell_volume                      3228.19574981

loop_
_atom_site_label
_atom_site_type_symbol
_atom_type_description
_atom_site_fract_x
_atom_site_fract_y
_atom_site_fract_z
_atom_type_partial_charge
C1    C     C_R   0.221955 0.533018 0.527640 0.847519
C2    C     C_2   0.518753 0.553911 0.984190 -0.271156
C3    C     C_2   0.451067 0.506688 0.026914 -0.240546
C4    C     C_R   0.776950 0.465582 0.474785 0.840290
C5    C     C_R   0.501605 0.492027 0.236330 -0.030311
C6    C     C_2   0.890015 0.459801 0.469939 -0.314838
C7    C     C_2   0.934221 0.467449 0.528475 -0.155681
C8    C     C_2   0.106996 0.536631 0.540980 -0.390339
C9    C     C_2   0.047476 0.452764 0.522671 0.176502
C10   C     C_2   0.544796 0.887908 0.529765 -0.288709
C11   C     C_2   0.505913 0.940153 0.486840 -0.154604
C12   C     C_R   0.509894 0.543335 0.909271 0.205041
C13   C     C_2   0.457337 0.109866 0.466519 -0.340889
C14   C     C_2   0.511173 0.053346 0.499541 -0.143762
C15   C     C_R   0.466765 0.222877 0.478731 0.861576
C16   C     C_R   0.533455 0.776352 0.521016 0.843717
C17   C     C_R   0.509625 0.486441 0.309476 0.802229
C18   C     C_R   0.490034 0.513639 0.690468 0.784382
C19   C     C_R   0.492509 0.523643 0.766178 0.011367
C20   C     C_R   0.503390 0.435120 0.795300 -0.212073
C21   C     C_R   0.510687 0.444858 0.866819 -0.159133
C22   C     C_3   0.093657 0.344219 0.495535 -0.306962
C23   C     C_R   0.500537 0.631914 0.880178 -0.174556
C24   C     C_3   0.014994 0.256684 0.501163 -0.884960
C25   C     C_3   0.472679 0.707397 0.133836 -0.446039
C26   C     C_3   0.386504 0.769319 0.186283 -0.864398
C27   C     C_R   0.490066 0.622085 0.809035 -0.202615
C28   C     C_R   0.483037 0.598794 0.148810 0.211356
C29   C     C_R   0.507572 0.588373 0.214940 -0.218634
C30   C     C_R   0.474643 0.404165 0.190730 -0.203949
C31   C     C_R   0.457440 0.411750 0.123109 -0.205219
C32   C     C_R   0.463376 0.507721 0.100903 0.149225
H1    H     H_    0.505858 0.358652 0.762783 0.150345
H2    H     H_    0.392112 0.456615 0.004887 0.162446
H3    H     H_    0.500006 0.708243 0.912720 0.130290
H4    H     H_    0.483024 0.691238 0.787034 0.150893
H5    H     H_    0.580281 0.601958 0.004390 0.157822
H6    H     H_    0.518674 0.375902 0.888859 0.135809
H7    H     H_    0.973745 0.263712 0.556313 0.265334
H8    H     H_    0.957611 0.257797 0.464609 0.268902
H9    H     H_    0.056504 0.180959 0.486252 0.245447
H10   H     H_    0.129861 0.337791 0.439268 0.221529
H11   H     H_    0.154619 0.331064 0.527278 0.200029
H12   H     H_    0.440179 0.342064 0.087605 0.139998
H13   H     H_    0.577508 0.928256 0.575236 0.128936
H14   H     H_    0.524951 0.656589 0.251733 0.154107
H15   H     H_    0.311593 0.727249 0.185689 0.266779
H16   H     H_    0.405940 0.783320 0.240782 0.250893
H17   H     H_    0.376923 0.845644 0.171030 0.249123
H18   H     H_    0.547878 0.748336 0.136891 0.202741
H19   H     H_    0.452624 0.707212 0.080611 0.224754
H20   H     H_    0.887276 0.481795 0.580656 0.151951
H21   H     H_    0.069682 0.610546 0.565138 0.145345
H22   H     H_    0.938019 0.452691 0.418291 0.152606
H23   H     H_    0.559600 0.091100 0.537399 0.185495
H24   H     H_    0.467710 0.899447 0.443960 0.150711
H25   H     H_    0.407398 0.072614 0.429591 0.152615
H26   H     H_    0.467746 0.329600 0.207327 0.149884
O1    O     O_3   0.500000 0.500000 0.500000 -0.478532
O2    O     O_R   0.441420 0.437150 0.344000 -0.641410
O3    O     O_R   0.438960 0.578560 0.667440 -0.644964
O4    O     O_R   0.575450 0.541060 0.341470 -0.642707
O5    O     O_R   0.544160 0.443230 0.647100 -0.645531
O6    O     O_R   0.530110 0.266880 0.518530 -0.641015
O7    O     O_R   0.465470 0.738830 0.563940 -0.637324
O8    O     O_R   0.266890 0.467300 0.476120 -0.652445
O9    O     O_R   0.737530 0.526990 0.441410 -0.636150
O10   O     O_R   0.276880 0.592620 0.567490 -0.630142
O11   O     O_R   0.718700 0.413090 0.514970 -0.632957
O12   O     O_R   0.414920 0.276880 0.447500 -0.651690
O13   O     O_R   0.589510 0.717410 0.470040 -0.633007
Zn1   Zn    Zn3+2 0.571990 0.407410 0.544380 0.959852
Zn2   Zn    Zn3+2 0.407420 0.421690 0.442900 0.953242
Zn3   Zn    Zn3+2 0.598910 0.570150 0.439280 0.968906
Zn4   Zn    Zn3+2 0.421690 0.600750 0.573440 0.967259

loop_
_geom_bond_atom_site_label_1
_geom_bond_atom_site_label_2
_ccdc_geom_bond_type
C8    H21   S    
C19   C20   A    
O11   Zn1   S    
O4    Zn3   S    
C15   O6    A    
C25   H19   S    
C18   O3    A    
C6    C7    D    
C23   C27   A    
C17   O4    A    
C4    O9    A    
C1    C8    S    
C19   C27   A    
C29   H14   S    
C23   H3    S    
C22   H11   S    
O1    Zn3   S    
C26   H16   S    
O1    Zn1   S    
C2    C12   S    
C31   H12   S    
C24   H7    S    
C10   H13   S    
O6    Zn1   S    
C2    C3    D    
C25   C26   S    
C1    O8    A    
O9    Zn3   S    
C10   C16   S    
C13   C14   D    
O3    Zn4   S    
C25   C28   S    
C24   H9    S    
C2    H5    S    
C22   H10   S    
C16   O13   A    
C26   H15   S    
O12   Zn2   S    
C20   H1    S    
C30   H26   S    
C28   C29   A    
C24   H8    S    
C6    H22   S    
C7    H20   S    
C14   H23   S    
C5    C29   A    
C13   C15   S    
C3    C32   S    
C27   H4    S    
C11   C14   S    
C22   C24   S    
C18   O5    A    
C5    C17   S    
C10   C11   D    
C21   H6    S    
C17   O2    A    
O1    Zn4   S    
O2    Zn2   S    
C28   C32   A    
C1    O10   A    
C13   H25   S    
O5    Zn1   S    
C4    C6    S    
C18   C19   S    
C5    C30   A    
C26   H17   S    
C7    C9    S    
C15   O12   A    
O1    Zn2   S    
C9    C22   S    
C4    O11   A    
C3    H2    S    
C12   C23   A    
C16   O7    A    
O13   Zn3   S    
C20   C21   A    
C25   H18   S    
O8    Zn2   S    
C12   C21   A    
C30   C31   A    
C11   H24   S    
C31   C32   A    
C8    C9    D    
O10   Zn4   S    
O7    Zn4   S    
