data_mof_unit_37889.cif
_audit_creation_date              2012-12-11T15:17:47-0500
_audit_creation_method            fapswitch 2.2
_symmetry_space_group_name_H-M    P1
_symmetry_Int_Tables_number       1
_space_group_crystal_system       triclinic
_cell_length_a                    15.679928
_cell_length_b                    15.679449
_cell_length_c                    34.320219
_cell_angle_alpha                 89.998704
_cell_angle_beta                  89.998853
_cell_angle_gamma                 120.000506
_cell_volume                      7307.23927179

loop_
_atom_site_label
_atom_site_type_symbol
_atom_type_description
_atom_site_fract_x
_atom_site_fract_y
_atom_site_fract_z
_atom_type_partial_charge
C1    C     C_R   0.576395 0.443063 0.554219 0.562292
C2    C     C_R   0.556938 0.133331 0.554218 0.562285
C3    C     C_R   0.866665 0.423603 0.554219 0.562290
C4    C     C_R   0.443051 0.576410 0.054230 0.562236
C5    C     C_R   0.133354 0.556946 0.054229 0.562239
C6    C     C_R   0.423585 0.866636 0.054232 0.562230
C7    C     C_R   0.979300 0.507156 0.711784 0.394924
C8    C     C_R   0.492877 0.472146 0.711788 0.394884
C9    C     C_R   0.528090 0.020947 0.711802 0.394436
C10   C     C_R   0.507697 0.978787 0.211839 0.394797
C11   C     C_R   0.471206 0.492403 0.211838 0.394791
C12   C     C_R   0.021313 0.529000 0.211840 0.394531
C13   C     C_R   0.005940 0.436307 0.850957 0.093751
C14   C     C_R   0.563742 0.569615 0.850966 0.093769
C15   C     C_R   0.430257 0.993932 0.850933 0.093784
C16   C     C_R   0.436719 0.006301 0.350832 0.093687
C17   C     C_R   0.569566 0.563376 0.350855 0.093704
C18   C     C_R   0.993598 0.430348 0.350812 0.093694
C19   C     C_R   0.036324 0.444929 0.889954 0.204095
C20   C     C_R   0.555096 0.591390 0.889960 0.204002
C21   C     C_R   0.408465 0.963538 0.889929 0.203968
C22   C     C_R   0.445142 0.036778 0.389810 0.203763
C23   C     C_R   0.591602 0.554897 0.389831 0.203700
C24   C     C_R   0.963123 0.408285 0.389792 0.203648
C25   C     C_R   0.058058 0.610437 0.892607 0.187557
C26   C     C_R   0.389586 0.447607 0.892610 0.187524
C27   C     C_R   0.552566 0.942363 0.892686 0.187571
C28   C     C_R   0.610192 0.057355 0.392797 0.187795
C29   C     C_R   0.447232 0.389798 0.392773 0.187745
C30   C     C_R   0.942836 0.552919 0.392828 0.187792
C31   C     C_R   0.026686 0.600993 0.853734 0.098221
C32   C     C_R   0.399056 0.425662 0.853742 0.098234
C33   C     C_R   0.574629 0.973897 0.853832 0.098320
C34   C     C_R   0.600952 0.025920 0.353937 0.098246
C35   C     C_R   0.425050 0.399096 0.353917 0.098250
C36   C     C_R   0.974365 0.575187 0.353977 0.098298
C37   C     C_R   0.006240 0.516448 0.832442 -0.057575
C38   C     C_R   0.483610 0.489764 0.832450 -0.057566
C39   C     C_R   0.510381 0.994031 0.832474 -0.057699
C40   C     C_R   0.516755 0.005966 0.332489 -0.057623
C41   C     C_R   0.489264 0.483346 0.332491 -0.057595
C42   C     C_R   0.994151 0.510865 0.332496 -0.057668
C43   C     C_R   0.072026 0.535877 0.909900 -0.028096
C44   C     C_R   0.464137 0.536145 0.909903 -0.028096
C45   C     C_R   0.463854 0.928061 0.909917 -0.028129
C46   C     C_R   0.535832 0.071946 0.409914 -0.028251
C47   C     C_R   0.536125 0.464170 0.409911 -0.028203
C48   C     C_R   0.928080 0.463882 0.409917 -0.028233
C49   C     C_R   0.576819 0.442874 0.445571 0.590785
C50   C     C_R   0.557124 0.133938 0.445573 0.590764
C51   C     C_R   0.866066 0.423186 0.445573 0.590777
C52   C     C_R   0.442865 0.576815 0.945571 0.590901
C53   C     C_R   0.133950 0.557136 0.945572 0.590925
C54   C     C_R   0.423185 0.866062 0.945574 0.590908
C55   C     C_R   0.927719 0.461595 0.590079 -0.053726
C56   C     C_R   0.538401 0.466126 0.590078 -0.053716
C57   C     C_R   0.533889 0.072264 0.590076 -0.053725
C58   C     C_R   0.461553 0.927599 0.090117 -0.053755
C59   C     C_R   0.466056 0.538442 0.090113 -0.053749
C60   C     C_R   0.072370 0.533951 0.090108 -0.053752
C61   C     C_R   0.954878 0.401247 0.611402 0.072810
C62   C     C_R   0.598741 0.553644 0.611398 0.072799
C63   C     C_R   0.446402 0.045098 0.611412 0.072781
C64   C     C_R   0.401033 0.954279 0.111587 0.072710
C65   C     C_R   0.553292 0.598952 0.111565 0.072711
C66   C     C_R   0.045665 0.446747 0.111580 0.072697
C67   C     C_R   0.973493 0.417289 0.651601 0.059379
C68   C     C_R   0.582711 0.556218 0.651598 0.059370
C69   C     C_R   0.443874 0.026509 0.651613 0.059509
C70   C     C_R   0.417278 0.972770 0.151787 0.059365
C71   C     C_R   0.555576 0.582743 0.151766 0.059352
C72   C     C_R   0.027182 0.444514 0.151782 0.059436
C73   C     C_R   0.972528 0.497461 0.669433 -0.012802
C74   C     C_R   0.502556 0.475073 0.669436 -0.012799
C75   C     C_R   0.525063 0.027556 0.669440 -0.012894
C76   C     C_R   0.497757 0.972117 0.169487 -0.012904
C77   C     C_R   0.474440 0.502300 0.169485 -0.012896
C78   C     C_R   0.027895 0.525682 0.169483 -0.012956
C79   C     C_R   0.965580 0.568206 0.646799 0.217537
C80   C     C_R   0.431815 0.397368 0.646806 0.217565
C81   C     C_R   0.602721 0.034471 0.646788 0.217539
C82   C     C_R   0.568579 0.965641 0.146717 0.217532
C83   C     C_R   0.397100 0.431475 0.146733 0.217562
C84   C     C_R   0.034365 0.602974 0.146705 0.217545
C85   C     C_R   0.945979 0.551969 0.606761 0.082018
C86   C     C_R   0.448041 0.394005 0.606766 0.082017
C87   C     C_R   0.606011 0.054004 0.606745 0.082023
C88   C     C_R   0.552158 0.946199 0.106674 0.082059
C89   C     C_R   0.394044 0.447863 0.106688 0.082054
C90   C     C_R   0.053775 0.605964 0.106660 0.082068
C91   C     C_R   0.994498 0.515734 0.790169 0.360798
C92   C     C_R   0.484319 0.478749 0.790176 0.360749
C93   C     C_R   0.521595 0.005875 0.790198 0.360443
C94   C     C_R   0.516303 0.994050 0.290228 0.360692
C95   C     C_R   0.477864 0.483833 0.290228 0.360677
C96   C     C_R   0.006123 0.522422 0.290234 0.360505
Cr1   Cr    Cr6+3 0.522350 0.263930 0.500020 1.174895
Cr2   Cr    Cr6+3 0.736070 0.258420 0.500020 1.174894
Cr3   Cr    Cr6+3 0.741580 0.477650 0.500020 1.174909
Cr4   Cr    Cr6+3 0.263930 0.522350 0.000020 1.174873
Cr5   Cr    Cr6+3 0.258420 0.736070 0.000020 1.174870
Cr6   Cr    Cr6+3 0.477650 0.741580 0.000020 1.174884
N1    N     N_R   0.908115 0.451306 0.772914 -0.161103
N2    N     N_R   0.548786 0.456853 0.772911 -0.161016
N3    N     N_R   0.541989 0.091805 0.772906 -0.161092
N4    N     N_R   0.451519 0.907793 0.272977 -0.161191
N5    N     N_R   0.456378 0.548600 0.272969 -0.161129
N6    N     N_R   0.092124 0.543038 0.272963 -0.161177
N7    N     N_R   0.900724 0.447012 0.734263 -0.167513
N8    N     N_R   0.553070 0.453766 0.734259 -0.167430
N9    N     N_R   0.545020 0.099132 0.734254 -0.167717
N10   N     N_R   0.447214 0.900371 0.234328 -0.167819
N11   N     N_R   0.453262 0.552889 0.234318 -0.167754
N12   N     N_R   0.099510 0.546114 0.234313 -0.167922
N13   N     N_R   0.065235 0.572482 0.729014 -0.140735
N14   N     N_R   0.427512 0.492695 0.729028 -0.140676
N15   N     N_R   0.509121 0.935503 0.729067 -0.139894
N16   N     N_R   0.573421 0.064571 0.229067 -0.140322
N17   N     N_R   0.491290 0.426704 0.229074 -0.140329
N18   N     N_R   0.935803 0.509834 0.229087 -0.139871
N19   N     N_R   0.072685 0.576589 0.767644 -0.173248
N20   N     N_R   0.423416 0.496030 0.767659 -0.173207
N21   N     N_R   0.505817 0.928107 0.767699 -0.172990
N22   N     N_R   0.577542 0.072053 0.267698 -0.173175
N23   N     N_R   0.494652 0.422600 0.267705 -0.173166
N24   N     N_R   0.928351 0.506497 0.267719 -0.173035
O1    O     O_R   0.498680 0.159540 0.541860 -0.475932
O2    O     O_R   0.840460 0.339140 0.541860 -0.475957
O3    O     O_R   0.660860 0.501320 0.541860 -0.475942
O4    O     O_R   0.159540 0.498680 0.041860 -0.475897
O5    O     O_R   0.339140 0.840460 0.041860 -0.475920
O6    O     O_R   0.501320 0.660860 0.041860 -0.475907
O7    O     O_R   0.532760 0.358060 0.540030 -0.487947
O8    O     O_R   0.641940 0.174700 0.540030 -0.487951
O9    O     O_R   0.825300 0.467240 0.540030 -0.487931
O10   O     O_R   0.358060 0.532760 0.040030 -0.488046
O11   O     O_R   0.174700 0.641940 0.040030 -0.488058
O12   O     O_R   0.467240 0.825300 0.040030 -0.488029
O13   O     O_R   0.498590 0.161190 0.456930 -0.432069
O14   O     O_R   0.838810 0.337400 0.456930 -0.432106
O15   O     O_R   0.662600 0.501410 0.456930 -0.432148
O16   O     O_R   0.161190 0.498590 0.956930 -0.431899
O17   O     O_R   0.337400 0.838810 0.956930 -0.431902
O18   O     O_R   0.501410 0.662600 0.956930 -0.431995
O19   O     O_R   0.532680 0.359580 0.461300 -0.457682
O20   O     O_R   0.640420 0.173100 0.461300 -0.457703
O21   O     O_R   0.826900 0.467320 0.461300 -0.457696
O22   O     O_R   0.359580 0.532680 0.961300 -0.457712
O23   O     O_R   0.173100 0.640420 0.961300 -0.457708
O24   O     O_R   0.467320 0.826900 0.961300 -0.457705
O25   O     O_3   0.666667 0.333333 0.499990 -0.315251
O26   O     O_3   0.333333 0.666667 0.999990 -0.315263
I1    I     I_    0.979799 0.293621 0.583058 -0.050523
I2    I     I_    0.706321 0.686196 0.583042 -0.050513
I3    I     I_    0.313840 0.020134 0.583075 -0.050531
I4    I     I_    0.292769 0.978638 0.083477 -0.049926
I5    I     I_    0.685902 0.707143 0.083424 -0.049891
I6    I     I_    0.021257 0.314114 0.083466 -0.049870
I7    I     I_    0.954574 0.669592 0.571956 -0.029909
I8    I     I_    0.330420 0.284968 0.571968 -0.030046
I9    I     I_    0.714951 0.045329 0.571913 -0.029949
I10   I     I_    0.669811 0.955566 0.071656 -0.029984
I11   I     I_    0.285697 0.330199 0.071695 -0.030175
I12   I     I_    0.044374 0.714215 0.071629 -0.030108
Cl1   Cl    Cl    0.028065 0.340027 0.913091 -0.384583
Cl2   Cl    Cl    0.659981 0.688063 0.913095 -0.384798
Cl3   Cl    Cl    0.311600 0.971520 0.913013 -0.384506
Cl4   Cl    Cl    0.340300 0.029325 0.412704 -0.384430
Cl5   Cl    Cl    0.688920 0.659711 0.412753 -0.384685
Cl6   Cl    Cl    0.970430 0.310786 0.412663 -0.384499
I13   I     I_    0.001692 0.320343 0.686366 -0.042309
I14   I     I_    0.679650 0.681381 0.686355 -0.042271
I15   I     I_    0.318620 0.998017 0.686367 -0.042251
I16   I     I_    0.320241 0.000450 0.186740 -0.042512
I17   I     I_    0.680345 0.679778 0.186692 -0.042445
I18   I     I_    0.999320 0.319718 0.186722 -0.042440
Cl7   Cl    Cl    0.976235 0.674726 0.669257 -0.430846
Cl8   Cl    Cl    0.325322 0.301483 0.669273 -0.430760
Cl9   Cl    Cl    0.698711 0.023998 0.669226 -0.430714
Cl10  Cl    Cl    0.675421 0.976630 0.169002 -0.430578
Cl11  Cl    Cl    0.301244 0.324674 0.169042 -0.430531
Cl12  Cl    Cl    0.023483 0.698899 0.168982 -0.430491
I19   I     I_    0.969292 0.304903 0.818893 -0.021288
I20   I     I_    0.695172 0.664364 0.818909 -0.021129
I21   I     I_    0.334998 0.029823 0.818808 -0.020726
I22   I     I_    0.305834 0.970503 0.318530 -0.021621
I23   I     I_    0.664581 0.694349 0.318590 -0.021583
I24   I     I_    0.028981 0.334987 0.318479 -0.021347
Cl13  Cl    Cl    0.078720 0.716619 0.918697 -0.403732
Cl14  Cl    Cl    0.283373 0.362101 0.918693 -0.403905
Cl15  Cl    Cl    0.638168 0.921953 0.918845 -0.403956
Cl16  Cl    Cl    0.715810 0.077194 0.419119 -0.403567
Cl17  Cl    Cl    0.361528 0.284067 0.419054 -0.403686
Cl18  Cl    Cl    0.923083 0.638712 0.419178 -0.403777
I25   I     I_    0.012029 0.715969 0.826372 0.017319
I26   I     I_    0.284109 0.295989 0.826385 0.017359
I27   I     I_    0.704794 0.989407 0.826624 0.017593
I28   I     I_    0.715701 0.010393 0.326834 0.017858
I29   I     I_    0.294836 0.284349 0.326787 0.017849
I30   I     I_    0.990353 0.705748 0.326953 0.017955

loop_
_geom_bond_atom_site_label_1
_geom_bond_atom_site_label_2
_ccdc_geom_bond_type
C25   C31   A    
C31   I25   S    
C26   C32   A    
N13   N19   A    
Cr5   O17   S    
C9    N15   A    
C6    C58   S    
C36   C42   A    
C9    N9    A    
Cr1   O7    S    
Cr1   O1    S    
C11   N17   A    
C25   C43   A    
C62   C68   A    
C26   Cl14  S    
C2    C57   S    
C26   C44   A    
C54   O24   A    
N4    N10   A    
Cr4   O26   S    
C18   I24   S    
C15   I21   S    
C28   C46   A    
C33   C39   A    
C84   C90   A    
C29   C47   A    
C30   Cl18  S    
C42   C96   S    
C30   C48   A    
C1    C56   S    
Cr6   O6    S    
C1    O3    A    
C18   C42   A    
Cr6   O12   S    
Cr4   O4    S    
C55   C85   A    
C77   C83   A    
C68   C74   A    
C7    N7    A    
C38   C92   S    
C34   I28   S    
C83   Cl11  S    
C53   O16   A    
C59   C89   A    
N6    N12   A    
C95   N23   A    
C39   C93   S    
C72   C78   A    
C96   N24   A    
C11   C77   S    
C93   N3    A    
C12   N18   A    
C82   C88   A    
C10   C76   S    
C43   C53   S    
C48   C51   S    
N5    N11   A    
C63   C69   A    
C13   I19   S    
C49   O15   A    
C80   C86   A    
C79   Cl7   S    
C10   N10   A    
C58   C88   A    
C67   C73   A    
C32   C38   A    
C24   Cl6   S    
C13   C37   A    
C7    N13   A    
C32   I26   S    
C4    O10   A    
C56   C62   A    
C22   Cl4   S    
C2    O1    A    
C27   C45   A    
Cr2   O2    S    
C54   O17   A    
C96   N6    A    
C28   C34   A    
C52   O22   A    
C74   C80   A    
C8    N8    A    
C17   I23   S    
C53   O23   A    
C9    C75   S    
Cr6   O18   S    
C1    O7    A    
C28   Cl16  S    
C20   C44   A    
C19   C43   A    
C46   C50   S    
C57   C63   A    
C21   C45   A    
Cr2   O25   S    
C58   C64   A    
C83   C89   A    
C90   I12   S    
C66   C72   A    
C3    O9    A    
C23   C47   A    
Cr3   O3    S    
C35   I29   S    
C24   C48   A    
C14   C20   A    
C81   Cl9   S    
C65   I5    S    
C76   C82   A    
Cr5   O11   S    
C50   O13   A    
C75   C81   A    
C13   C19   A    
N16   N22   A    
Cr2   O20   S    
C67   I13   S    
C65   C71   A    
C8    N14   A    
Cr3   O25   S    
Cr4   O16   S    
C69   I15   S    
C27   C33   A    
C57   C87   A    
C12   C78   S    
C80   Cl8   S    
C6    O12   A    
C10   N16   A    
C92   N20   A    
C4    O6    A    
C14   C38   A    
C61   C67   A    
C56   C86   A    
C23   Cl5   S    
C33   I27   S    
C16   I22   S    
C7    C73   S    
C8    C74   S    
Cr1   O25   S    
C49   O19   A    
Cr6   O24   S    
C17   C23   A    
C70   I16   S    
C66   I6    S    
C15   C39   A    
C51   O21   A    
C81   C87   A    
C35   C41   A    
C95   N5    A    
C27   Cl15  S    
C12   N12   A    
N17   N23   A    
C5    O4    A    
C22   C46   A    
C16   C40   A    
C45   C54   S    
C64   C70   A    
C52   O18   A    
C70   C76   A    
C18   C24   A    
C82   Cl10  S    
Cr5   O5    S    
C40   C94   S    
C71   C77   A    
Cr1   O13   S    
N14   N20   A    
Cr3   O21   S    
C88   I10   S    
C94   N4    A    
C16   C22   A    
C5    C60   S    
C87   I9    S    
C3    O2    A    
Cr1   O19   S    
Cr3   O15   S    
C93   N21   A    
C91   N1    A    
C6    O5    A    
C73   C79   A    
C61   I1    S    
Cr2   O8    S    
C14   I20   S    
C2    O8    A    
C5    O11   A    
C36   I30   S    
C44   C52   S    
C60   C90   A    
C47   C49   S    
C20   Cl2   S    
C29   C35   A    
C64   I4    S    
Cr5   O26   S    
C3    C55   S    
Cr3   O9    S    
C30   C36   A    
N1    N7    A    
C84   Cl12  S    
N15   N21   A    
C63   I3    S    
C25   Cl13  S    
C51   O14   A    
N2    N8    A    
C68   I14   S    
C50   O20   A    
C41   C95   S    
Cr4   O22   S    
C29   Cl17  S    
C55   C61   A    
C4    C59   S    
Cr5   O23   S    
C79   C85   A    
C71   I17   S    
C69   C75   A    
N18   N24   A    
C21   Cl3   S    
C72   I18   S    
N3    N9    A    
C11   N11   A    
C17   C41   A    
C78   C84   A    
C92   N2    A    
C60   C66   A    
C31   C37   A    
C15   C21   A    
C19   Cl1   S    
C91   N19   A    
Cr2   O14   S    
C34   C40   A    
C62   I2    S    
C85   I7    S    
C86   I8    S    
C89   I11   S    
C59   C65   A    
Cr4   O10   S    
C37   C91   S    
Cr6   O26   S    
C94   N22   A    
