data_mof_unit_67851.cif
_audit_creation_date              2013-03-05T15:41:50-0500
_audit_creation_method            fapswitch 2.2
_symmetry_space_group_name_H-M    P1
_symmetry_Int_Tables_number       1
_space_group_crystal_system       triclinic
_cell_length_a                    7.942664
_cell_length_b                    8.752236
_cell_length_c                    10.554085
_cell_angle_alpha                 92.933063
_cell_angle_beta                  86.40244
_cell_angle_gamma                 93.803369
_cell_volume                      729.80559522

loop_
_atom_site_label
_atom_site_type_symbol
_atom_site_description
_atom_site_fract_x
_atom_site_fract_y
_atom_site_fract_z
_atom_type_partial_charge
O1    O     O_R   0.389250 0.738570 0.508410 -0.667984
O2    O     O_R   0.610750 0.261430 0.491590 -0.645540
O3    O     O_R   0.678390 0.711620 0.486450 -0.564700
O4    O     O_R   0.321610 0.288380 0.513550 -0.534906
C1    C     C_R   0.544835 0.793414 0.492263 0.876806
C2    C     C_R   0.454568 0.206054 0.493480 0.947766
O5    O     O_R   0.355460 0.513510 0.697030 -0.641557
O6    O     O_R   0.644540 0.486490 0.302970 -0.642585
O7    O     O_R   0.644600 0.486560 0.675070 -0.547786
O8    O     O_R   0.355400 0.513440 0.324930 -0.567893
C3    C     C_R   0.502188 0.495878 0.740947 0.950712
C4    C     C_R   0.497125 0.499079 0.258474 0.957427
Zn1   Zn    Zn3+2 0.306940 0.517990 0.514670 1.015794
Zn2   Zn    Zn3+2 0.693060 0.482010 0.485330 1.024813
N1    N     N_2   0.950320 0.457950 0.465730 -0.126130
N2    N     N_2   0.049680 0.542050 0.534270 -0.117875
C5    C     C_3   0.420971 0.613047 0.961481 -0.054821
C6    C     C_3   0.578020 0.375302 0.036834 -0.067948
C7    C     C_3   0.576207 0.625782 0.042521 -0.100682
C8    C     C_3   0.422939 0.362835 0.955332 -0.113903
C9    C     C_3   0.492175 0.497302 0.123486 -0.086467
C10   C     C_3   0.506885 0.491485 0.875147 -0.091564
C11   C     C_3   0.336771 0.484460 0.042666 -0.083638
C12   C     C_3   0.662290 0.503981 0.955597 -0.102741
C13   C     C_2   0.567848 0.956239 0.477264 0.229800
C14   C     C_2   0.430603 0.042052 0.472747 0.244572
C15   C     C_2   0.658796 0.775444 0.088039 0.460158
H1    H     H_    0.720304 0.852343 0.019671 0.099320
O9    O     O_2   0.656744 0.812001 0.201014 -0.579444
C16   C     C_2   0.337626 0.214864 0.907865 0.463441
H2    H     H_    0.275568 0.137227 0.975421 0.107522
O10   O     O_2   0.336905 0.181151 0.794347 -0.586895
C17   C     C_2   0.338261 0.742557 0.907958 0.372893
H3    H     H_    0.212994 0.723449 0.872545 0.075473
O11   O     O_2   0.412893 0.868438 0.900752 -0.593318
C18   C     C_2   0.662501 0.242799 0.083954 0.420840
H4    H     H_    0.798513 0.238326 0.072140 0.056191
O12   O     O_2   0.578995 0.142194 0.139681 -0.580912
C19   C     C_2   0.155586 0.466862 0.089720 0.434769
H5    H     H_    0.080770 0.362323 0.066574 0.045690
O13   O     O_2   0.092048 0.567896 0.156251 -0.623709
C20   C     C_2   0.843968 0.517512 0.908645 0.470512
H6    H     H_    0.920574 0.621781 0.929635 0.050867
O14   O     O_2   0.905986 0.412831 0.845276 -0.596766
C21   C     C_2   0.995303 0.344878 0.372107 0.595230
H7    H     H_    0.895045 0.282054 0.322589 0.062180
O15   O     O_2   0.138788 0.317178 0.342615 -0.613124
C22   C     C_2   0.004033 0.671634 0.611212 0.543015
H8    H     H_    0.100836 0.761908 0.628829 0.063030
O16   O     O_2   0.868079 0.680352 0.668168 -0.603983
O17   O     O_3   0.730442 0.021482 0.451762 -0.638879
C23   C     C_3   0.838021 0.019746 0.554147 0.103225
H9    H     H_    0.934956 0.115862 0.542033 0.187030
H10   H     H_    0.908798 0.916593 0.542157 0.188043
C24   C     C_3   0.755377 0.039796 0.690149 -0.367507
H11   H     H_    0.687896 0.147232 0.699656 0.260293
H12   H     H_    0.663550 0.941981 0.711501 0.240967
C25   C     C_3   0.888757 0.047885 0.788797 -0.801688
H13   H     H_    0.950722 0.938152 0.789087 0.253254
H14   H     H_    0.827858 0.070561 0.884540 0.247777
H15   H     H_    0.986933 0.141015 0.768650 0.311420
O18   O     O_3   0.264655 0.980925 0.464720 -0.675141
C26   C     C_3   0.239451 0.905557 0.343856 0.118349
H16   H     H_    0.161476 0.797480 0.360518 0.199954
H17   H     H_    0.357699 0.873084 0.289841 0.181414
C27   C     C_3   0.143144 0.003746 0.262159 -0.343474
H18   H     H_    0.035980 0.048884 0.320806 0.267971
H19   H     H_    0.231127 0.096892 0.224837 0.261770
C28   C     C_3   0.069238 0.913607 0.150366 -0.877590
H20   H     H_    0.170799 0.858783 0.093263 0.287364
H21   H     H_    0.007174 0.991380 0.090488 0.237710
H22   H     H_    0.974719 0.824728 0.185242 0.325787

loop_
_geom_bond_atom_site_label_1
_geom_bond_atom_site_label_2
_geom_bond_distance
_ccdc_geom_bond_type
C28   H22   1.105146 S    
C27   H19   1.109439 S    
C24   H11   1.109938 S    
C13   O17   1.393044 S    
O18   C26   1.425057 S    
C6    C12   1.542176 S    
C15   O9    1.218010 D    
C6    C9    1.536169 S    
C7    C15   1.496007 S    
C3    C10   1.421735 S    
C5    C10   1.531974 S    
C23   C24   1.547017 S    
O6    C4    1.301929 A    
O7    Zn2   2.014203 S    
C13   C14   1.368749 D    
C26   H17   1.113334 S    
N2    C22   1.414395 S    
C25   H15   1.109174 S    
C18   O12   1.219718 D    
C27   H18   1.103235 S    
C2    C14   1.442667 S    
C26   C27   1.520820 S    
O17   C23   1.420306 S    
C5    C17   1.498788 S    
C24   H12   1.109919 S    
C8    C16   1.499047 S    
C21   H7    1.083661 S    
C16   O10   1.219402 D    
C12   C20   1.495145 S    
O7    C3    1.295087 A    
C17   O11   1.219544 D    
C6    C18   1.498864 S    
C5    C11   1.541077 S    
O3    Zn2   2.020068 S    
C20   O14   1.218682 D    
C1    C13   1.440213 S    
O8    C4    1.298287 A    
C10   C12   1.536414 S    
C22   O16   1.207470 D    
C18   H4    1.082741 S    
C7    C9    1.538609 S    
C8    C10   1.534822 S    
O5    C3    1.302229 A    
C6    C8    1.540965 S    
C28   H20   1.097677 S    
C21   O15   1.199535 D    
C9    C11   1.538726 S    
C14   O18   1.395183 S    
C16   H2    1.083551 S    
O2    Zn2   1.999763 S    
O1    C1    1.299922 A    
Zn1   N2    2.064440 S    
C27   C28   1.513044 S    
O1    Zn1   1.999763 S    
C20   H6    1.083820 S    
N1    C21   1.409221 S    
C25   H14   1.106930 S    
N1    N2    1.275916 D    
O3    C1    1.315144 A    
O5    Zn1   1.989251 S    
C17   H3    1.084332 S    
C23   H9    1.108841 S    
C19   O13   1.216904 D    
O4    C2    1.317772 A    
C24   C25   1.527158 S    
C19   H5    1.083114 S    
C28   H21   1.110560 S    
Zn2   N1    2.064440 S    
C22   H8    1.082737 S    
O6    Zn2   1.989249 S    
C5    C7    1.539023 S    
C25   H13   1.108075 S    
C8    C11   1.538900 S    
C7    C12   1.537339 S    
C4    C9    1.426943 S    
C11   C19   1.493335 S    
O2    C2    1.300865 A    
O4    Zn1   2.020068 S    
C23   H10   1.092625 S    
C26   H16   1.111252 S    
C15   H1    1.083579 S    
O8    Zn1   2.014203 S    
