data_mof_unit_47432.cif
_audit_creation_date              2012-12-11T15:07:00-0500
_audit_creation_method            fapswitch 2.2
_symmetry_space_group_name_H-M    P1
_symmetry_Int_Tables_number       1
_space_group_crystal_system       triclinic
_cell_length_a                    19.693683
_cell_length_b                    11.414176
_cell_length_c                    18.717073
_cell_angle_alpha                 89.978318
_cell_angle_beta                  90.380455
_cell_angle_gamma                 90.006921
_cell_volume                      4207.26466917

loop_
_atom_site_label
_atom_site_type_symbol
_atom_type_description
_atom_site_fract_x
_atom_site_fract_y
_atom_site_fract_z
_atom_type_partial_charge
C1    C     C_R   0.760997 0.523604 0.639677 0.538853
C2    C     C_3   0.251575 0.056434 0.564100 0.037739
C3    C     C_R   0.739320 0.033702 0.151128 0.533705
C4    C     C_R   0.774248 0.133272 0.858860 0.530588
C5    C     C_R   0.225745 0.133315 0.141126 0.530558
C6    C     C_R   0.274248 0.633272 0.858860 0.530635
C7    C     C_R   0.725746 0.633313 0.141126 0.530572
C8    C     C_R   0.968180 0.353085 0.853997 0.529242
C9    C     C_R   0.031820 0.353100 0.146006 0.525891
C10   C     C_R   0.468181 0.853085 0.853997 0.529114
C11   C     C_R   0.531817 0.853100 0.146009 0.529103
C12   C     C_3   0.686973 0.120382 0.466324 -0.259593
C13   C     C_3   0.248410 0.556255 0.435952 0.037487
C14   C     C_3   0.313041 0.120587 0.533678 -0.259776
C15   C     C_3   0.186904 0.620258 0.466379 -0.259603
C16   C     C_3   0.812900 0.620791 0.533862 -0.259716
C17   C     C_3   0.697865 0.149312 0.544771 -0.268305
C18   C     C_3   0.302169 0.149330 0.455185 -0.268378
C19   C     C_3   0.197889 0.649312 0.544789 -0.268460
C20   C     C_3   0.802228 0.649158 0.455300 -0.267687
C21   C     C_3   0.762540 0.941662 0.479133 -0.176363
C22   C     C_3   0.237604 0.941763 0.520986 -0.176269
C23   C     C_3   0.262417 0.441644 0.479132 -0.176370
C24   C     C_3   0.751381 0.556759 0.564250 0.037713
C25   C     C_3   0.737226 0.442107 0.521249 -0.177034
C26   C     C_3   0.880674 0.885279 0.592021 -0.299763
C27   C     C_3   0.119512 0.885031 0.408080 -0.299743
C28   C     C_3   0.380589 0.385167 0.592010 -0.299870
C29   C     C_3   0.619060 0.385463 0.408452 -0.300001
C30   C     C_3   0.891222 0.461130 0.329473 -0.307825
C31   C     C_3   0.101280 0.470665 0.670524 -0.287345
C32   C     C_3   0.398059 0.969268 0.328944 -0.288900
C33   C     C_3   0.601916 0.969189 0.670948 -0.288875
C34   C     C_3   0.764072 0.093842 0.572804 0.083504
C35   C     C_3   0.235978 0.093769 0.427201 0.083289
C36   C     C_3   0.264078 0.593776 0.572811 0.083310
C37   C     C_3   0.735858 0.593993 0.427308 0.085224
C38   C     C_3   0.759113 0.960928 0.560408 0.007871
C39   C     C_3   0.241033 0.960864 0.439689 0.007404
C40   C     C_3   0.259043 0.460864 0.560415 0.008039
C41   C     C_R   0.238883 0.523201 0.360481 0.538840
C42   C     C_3   0.740542 0.461204 0.440017 0.007495
C43   C     C_3   0.823812 0.141640 0.526791 -0.221277
C44   C     C_3   0.176224 0.141459 0.473221 -0.221624
C45   C     C_3   0.323845 0.641474 0.526769 -0.221213
C46   C     C_3   0.676130 0.642023 0.473231 -0.221581
C47   C     C_3   0.004957 0.202352 0.458845 -0.276252
C48   C     C_3   0.995748 0.202801 0.541168 -0.277675
C49   C     C_3   0.504307 0.702821 0.458844 -0.276858
C50   C     C_3   0.495506 0.702846 0.541179 -0.276832
C51   C     C_3   0.063212 0.404161 0.474896 -0.197898
C52   C     C_R   0.261091 0.023339 0.639564 0.538983
C53   C     C_3   0.935928 0.403576 0.524111 -0.198095
C54   C     C_3   0.563624 0.903882 0.475223 -0.196817
C55   C     C_3   0.436293 0.903943 0.524713 -0.196970
C56   C     C_3   0.938413 0.378335 0.443308 -0.007079
C57   C     C_3   0.060608 0.381298 0.555924 -0.007926
C58   C     C_3   0.438963 0.880712 0.443729 -0.008246
C59   C     C_3   0.560952 0.880678 0.556207 -0.008330
C60   C     C_3   0.009841 0.330151 0.430401 0.065556
C61   C     C_3   0.989680 0.330836 0.569078 0.064554
C62   C     C_3   0.509980 0.830661 0.430639 0.065252
C63   C     C_R   0.738899 0.023216 0.360473 0.538850
C64   C     C_3   0.489919 0.830708 0.569325 0.065131
C65   C     C_3   0.813824 0.015954 0.045445 -0.225850
C66   C     C_3   0.186180 0.015949 0.954572 -0.225895
C67   C     C_3   0.313824 0.515953 0.045445 -0.225874
C68   C     C_3   0.686180 0.515948 0.954572 -0.225879
C69   C     C_R   0.776068 0.124929 0.648077 0.539949
C70   C     C_R   0.223948 0.124870 0.351917 0.539952
C71   C     C_R   0.276067 0.624906 0.648081 0.539913
C72   C     C_R   0.723989 0.624781 0.351911 0.542599
C73   C     C_3   0.819576 0.032091 0.966234 -0.226804
C74   C     C_3   0.808605 0.138499 0.446276 -0.276443
C75   C     C_3   0.180421 0.032125 0.033777 -0.226694
C76   C     C_3   0.319577 0.532091 0.966234 -0.226780
C77   C     C_3   0.680421 0.532124 0.033778 -0.226703
C78   C     C_3   0.683721 0.029828 0.030397 -0.214032
C79   C     C_3   0.316281 0.029856 0.969634 -0.214012
C80   C     C_3   0.183721 0.529828 0.030397 -0.214018
C81   C     C_3   0.816281 0.529855 0.969634 -0.214034
C82   C     C_3   0.753730 0.202472 0.061656 -0.261556
C83   C     C_3   0.246284 0.202468 0.938263 -0.261488
C84   C     C_3   0.253729 0.702472 0.061656 -0.261567
C85   C     C_3   0.191393 0.138601 0.553715 -0.276685
C86   C     C_3   0.746285 0.702467 0.938263 -0.261515
C87   C     C_3   0.747287 0.070454 0.074598 0.061911
C88   C     C_3   0.252721 0.070445 0.925395 0.061960
C89   C     C_3   0.247286 0.570453 0.074598 0.061943
C90   C     C_3   0.752721 0.570444 0.925396 0.061992
C91   C     C_3   0.759732 0.105550 0.935842 0.063080
C92   C     C_3   0.240268 0.105603 0.064143 0.063028
C93   C     C_3   0.259732 0.605550 0.935842 0.063081
C94   C     C_3   0.740269 0.605602 0.064143 0.063100
C95   C     C_3   0.696132 0.031323 0.948480 -0.261410
C96   C     C_3   0.308589 0.638481 0.446277 -0.276454
C97   C     C_3   0.303864 0.031386 0.051550 -0.261341
C98   C     C_3   0.196133 0.531322 0.948480 -0.261429
C99   C     C_3   0.803864 0.531384 0.051550 -0.261439
C100  C     C_3   0.748931 0.221610 0.979498 -0.215865
C101  C     C_3   0.251071 0.221648 0.020413 -0.215950
C102  C     C_3   0.248931 0.721610 0.979497 -0.215866
C103  C     C_3   0.751071 0.721646 0.020414 -0.215922
C104  C     C_3   0.004622 0.476905 0.040032 -0.227257
C105  C     C_3   0.995378 0.476894 0.959925 -0.227573
C106  C     C_3   0.504621 0.976906 0.040033 -0.227502
C107  C     C_3   0.691240 0.638995 0.553790 -0.276741
C108  C     C_3   0.495378 0.976894 0.959925 -0.227428
C109  C     C_3   0.063918 0.275747 0.026869 -0.210756
C110  C     C_3   0.936070 0.275728 0.973178 -0.211097
C111  C     C_3   0.563917 0.775748 0.026870 -0.211036
C112  C     C_3   0.436071 0.775728 0.973177 -0.211105
C113  C     C_3   0.941737 0.292946 0.055062 -0.264747
C114  C     C_3   0.058253 0.292937 0.944977 -0.264684
C115  C     C_3   0.441736 0.792946 0.055061 -0.264578
C116  C     C_3   0.558253 0.792938 0.944978 -0.264600
C117  C     C_R   0.967870 0.341761 0.644622 0.559089
C118  C     C_3   0.748460 0.056259 0.435940 0.037635
C119  C     C_R   0.031737 0.341553 0.355068 0.555341
C120  C     C_R   0.468104 0.841701 0.644805 0.559275
C121  C     C_R   0.531844 0.841669 0.355168 0.559185
C122  C     C_3   0.010748 0.350169 0.069353 0.065154
C123  C     C_3   0.989247 0.350144 0.930658 0.064700
C124  C     C_3   0.510746 0.850170 0.069354 0.064764
C125  C     C_3   0.489248 0.850145 0.930658 0.064751
C126  C     C_R   0.760687 0.533676 0.848877 0.533508
C127  C     C_R   0.239319 0.533701 0.151128 0.533470
C128  C     C_R   0.260687 0.033676 0.848877 0.533597
Cr1   Cr    Cr6+3 0.885690 0.492860 0.745310 0.977257
Cr2   Cr    Cr6+3 0.111880 0.178590 0.246990 0.980125
Cr3   Cr    Cr6+3 0.388120 0.678590 0.753010 0.979609
Cr4   Cr    Cr6+3 0.611880 0.678590 0.246990 0.979708
Cr5   Cr    Cr6+3 0.114310 0.492860 0.254690 0.978817
Cr6   Cr    Cr6+3 0.385690 0.992860 0.745310 0.977195
Cr7   Cr    Cr6+3 0.614310 0.992860 0.254690 0.977202
Cr8   Cr    Cr6+3 0.729880 0.332270 0.748190 0.981425
Cr9   Cr    Cr6+3 0.270120 0.332270 0.251810 0.981523
Cr10  Cr    Cr6+3 0.229880 0.832270 0.748190 0.981431
Cr11  Cr    Cr6+3 0.770120 0.832270 0.251810 0.981189
Cr12  Cr    Cr6+3 0.888120 0.178590 0.753010 0.979643
H1    H     H_    0.641291 0.071935 0.458872 0.131303
H2    H     H_    0.185701 0.915663 0.535697 0.144905
H3    H     H_    0.884706 0.286353 0.953122 0.112117
H4    H     H_    0.599896 0.848971 0.925084 0.106067
H5    H     H_    0.400096 0.848981 0.074920 0.106057
H6    H     H_    0.099896 0.348969 0.925083 0.106081
H7    H     H_    0.900098 0.348980 0.074923 0.105782
H8    H     H_    0.938134 0.207225 0.082942 0.108790
H9    H     H_    0.061847 0.207206 0.917148 0.108516
H10   H     H_    0.438132 0.707226 0.082940 0.108539
H11   H     H_    0.561848 0.707208 0.917149 0.108512
H12   H     H_    0.949200 0.183227 0.962522 0.121758
H13   H     H_    0.314305 0.415563 0.464406 0.144897
H14   H     H_    0.050779 0.183245 0.037580 0.121887
H15   H     H_    0.449201 0.683227 0.962522 0.121750
H16   H     H_    0.550779 0.683246 0.037581 0.121810
H17   H     H_    0.654337 0.125492 0.576634 0.153412
H18   H     H_    0.345709 0.125435 0.423386 0.153451
H19   H     H_    0.154353 0.625692 0.576696 0.153840
H20   H     H_    0.845837 0.624221 0.423914 0.152845
H21   H     H_    0.725950 0.873917 0.463450 0.090337
H22   H     H_    0.274284 0.874186 0.536748 0.090078
H23   H     H_    0.225683 0.374059 0.463471 0.090010
H24   H     H_    0.685349 0.415968 0.536063 0.145281
H25   H     H_    0.773923 0.374481 0.536957 0.090258
H26   H     H_    0.707790 0.932143 0.576562 0.134446
H27   H     H_    0.292374 0.932160 0.423571 0.134709
H28   H     H_    0.207709 0.432124 0.576575 0.133540
H29   H     H_    0.791757 0.432563 0.424140 0.140027
H30   H     H_    0.853346 0.106337 0.416256 0.115171
H31   H     H_    0.146727 0.106312 0.583800 0.114722
H32   H     H_    0.353249 0.606238 0.416188 0.114687
H33   H     H_    0.646545 0.606695 0.583818 0.114550
H34   H     H_    0.796212 0.227146 0.425902 0.122782
H35   H     H_    0.047612 0.151249 0.441745 0.129411
H36   H     H_    0.203586 0.227350 0.573992 0.124517
H37   H     H_    0.296302 0.727178 0.425944 0.124727
H38   H     H_    0.703493 0.727662 0.574140 0.124187
H39   H     H_    0.840914 0.227308 0.544868 0.100988
H40   H     H_    0.158829 0.226976 0.455043 0.101311
H41   H     H_    0.341093 0.727059 0.544851 0.101242
H42   H     H_    0.658964 0.727516 0.454966 0.101201
H43   H     H_    0.792592 0.875911 0.654852 0.260233
H44   H     H_    0.901590 0.809394 0.622094 0.124895
H45   H     H_    0.907366 0.962737 0.613613 0.173724
H46   H     H_    0.953502 0.150406 0.558367 0.128874
H47   H     H_    0.894368 0.872174 0.535419 0.112848
H48   H     H_    0.207609 0.875743 0.345322 0.260268
H49   H     H_    0.098555 0.809392 0.377835 0.125416
H50   H     H_    0.092864 0.962634 0.386610 0.173797
H51   H     H_    0.105795 0.871575 0.464657 0.112809
H52   H     H_    0.292515 0.375781 0.654824 0.260250
H53   H     H_    0.401533 0.309347 0.622123 0.124828
H54   H     H_    0.407256 0.462660 0.613586 0.173705
H55   H     H_    0.394290 0.372023 0.535411 0.112747
H56   H     H_    0.707164 0.375833 0.345696 0.260230
H57   H     H_    0.546522 0.650566 0.441481 0.129054
H58   H     H_    0.592473 0.462957 0.386733 0.173603
H59   H     H_    0.605340 0.372504 0.465067 0.113065
H60   H     H_    0.598088 0.309581 0.378447 0.124787
H61   H     H_    0.953675 0.552207 0.403950 0.261905
H62   H     H_    0.861880 0.539705 0.313398 0.149349
H63   H     H_    0.856328 0.384769 0.329485 0.114313
H64   H     H_    0.929619 0.446550 0.287618 0.184759
H65   H     H_    0.044822 0.558663 0.589411 0.254800
H66   H     H_    0.070907 0.522756 0.708867 0.173486
H67   H     H_    0.154077 0.502822 0.674249 0.130188
H68   H     H_    0.453223 0.650717 0.558553 0.129224
H69   H     H_    0.100828 0.377403 0.687616 0.135342
H70   H     H_    0.454448 0.057961 0.409747 0.254733
H71   H     H_    0.428981 0.019766 0.290279 0.174299
H72   H     H_    0.345598 0.002983 0.324987 0.131268
H73   H     H_    0.397605 0.875709 0.312497 0.134362
H74   H     H_    0.545560 0.057932 0.590110 0.254712
H75   H     H_    0.570998 0.019673 0.709594 0.174344
H76   H     H_    0.654377 0.002909 0.674916 0.131164
H77   H     H_    0.602358 0.875624 0.687423 0.134349
H78   H     H_    0.962194 0.154493 0.433569 0.100355
H79   H     H_    0.039018 0.156804 0.566691 0.100198
H80   H     H_    0.460988 0.656429 0.433694 0.099705
H81   H     H_    0.358776 0.072297 0.541282 0.131273
H82   H     H_    0.538778 0.656364 0.566363 0.099778
H83   H     H_    0.615245 0.891523 0.455114 0.093106
H84   H     H_    0.384681 0.891526 0.544836 0.093068
H85   H     H_    0.114902 0.391533 0.454942 0.094018
H86   H     H_    0.884372 0.391806 0.544519 0.093295
H87   H     H_    0.600848 0.815636 0.568992 0.131074
H88   H     H_    0.399016 0.815714 0.430977 0.130871
H89   H     H_    0.100713 0.316608 0.568847 0.130820
H90   H     H_    0.899328 0.311379 0.432015 0.134596
H91   H     H_    0.950138 0.496585 0.531439 0.131555
H92   H     H_    0.141230 0.571621 0.459117 0.131791
H93   H     H_    0.048854 0.496911 0.466222 0.130861
H94   H     H_    0.450482 0.996760 0.532986 0.131543
H95   H     H_    0.549455 0.996707 0.466905 0.131614
H96   H     H_    0.817599 0.922443 0.057299 0.137277
H97   H     H_    0.182401 0.922439 0.942771 0.137110
H98   H     H_    0.317599 0.422443 0.057299 0.137204
H99   H     H_    0.682400 0.422439 0.942771 0.137105
H100  H     H_    0.678727 0.199142 0.435796 0.178423
H101  H     H_    0.321142 0.199437 0.564066 0.178665
H102  H     H_    0.178582 0.698928 0.435818 0.178530
H103  H     H_    0.858744 0.572785 0.541890 0.131368
H104  H     H_    0.820798 0.699857 0.564067 0.178718
H105  H     H_    0.858615 0.056028 0.072496 0.116158
H106  H     H_    0.141396 0.056003 0.927489 0.116020
H107  H     H_    0.358615 0.556027 0.072496 0.116007
H108  H     H_    0.641396 0.556003 0.927490 0.116005
H109  H     H_    0.868726 0.071659 0.955084 0.133532
H110  H     H_    0.131276 0.071708 0.044890 0.133501
H111  H     H_    0.368727 0.571659 0.955084 0.133517
H112  H     H_    0.631276 0.571708 0.044890 0.133458
H113  H     H_    0.821220 0.944830 0.939795 0.116533
H114  H     H_    0.865312 0.080158 0.532869 0.140783
H115  H     H_    0.178759 0.944875 0.060269 0.116639
H116  H     H_    0.321221 0.444830 0.939795 0.116521
H117  H     H_    0.678758 0.444874 0.060270 0.116579
H118  H     H_    0.663526 0.946986 0.049132 0.111596
H119  H     H_    0.336479 0.947006 0.950968 0.111546
H120  H     H_    0.163525 0.446986 0.049132 0.111610
H121  H     H_    0.836480 0.447006 0.950968 0.111556
H122  H     H_    0.703391 0.941290 0.927887 0.106996
H123  H     H_    0.296599 0.941358 0.072198 0.106993
H124  H     H_    0.203392 0.441290 0.927887 0.107014
H125  H     H_    0.135006 0.079358 0.467407 0.140952
H126  H     H_    0.796599 0.441356 0.072198 0.106954
H127  H     H_    0.712410 0.250595 0.089217 0.108714
H128  H     H_    0.287610 0.250591 0.910679 0.108741
H129  H     H_    0.212409 0.750595 0.089216 0.108799
H130  H     H_    0.787611 0.750590 0.910680 0.108732
H131  H     H_    0.802583 0.235781 0.083138 0.106758
H132  H     H_    0.197435 0.235761 0.916752 0.106656
H133  H     H_    0.302583 0.735780 0.083138 0.106669
H134  H     H_    0.697436 0.735761 0.916752 0.106643
H135  H     H_    0.780755 0.293146 0.961807 0.107689
H136  H     H_    0.365284 0.579828 0.532739 0.140760
H137  H     H_    0.219227 0.293164 0.038037 0.107626
H138  H     H_    0.280755 0.793145 0.961806 0.107677
H139  H     H_    0.719227 0.793162 0.038038 0.107635
H140  H     H_    0.696206 0.249626 0.968295 0.116921
H141  H     H_    0.303792 0.249710 0.031602 0.116875
H142  H     H_    0.196207 0.749626 0.968294 0.116935
H143  H     H_    0.803792 0.749709 0.031603 0.116985
H144  H     H_    0.643906 0.095718 0.040872 0.118899
H145  H     H_    0.356106 0.095745 0.959124 0.118884
H146  H     H_    0.143906 0.595718 0.040871 0.118981
H147  H     H_    0.634635 0.580515 0.467239 0.140845
H148  H     H_    0.856107 0.595744 0.959125 0.118910
H149  H     H_    0.699172 0.242181 0.552124 0.137286
H150  H     H_    0.300843 0.242165 0.447636 0.137242
H151  H     H_    0.199296 0.742154 0.552099 0.137211
H152  H     H_    0.801377 0.742023 0.447404 0.136578
H153  H     H_    0.651821 0.069821 0.919938 0.107031
H154  H     H_    0.348177 0.069905 0.080070 0.107036
H155  H     H_    0.151821 0.569821 0.919938 0.107047
H156  H     H_    0.848177 0.569902 0.080070 0.107375
H157  H     H_    0.048616 0.530337 0.053854 0.134338
H158  H     H_    0.814435 0.915621 0.464421 0.144805
H159  H     H_    0.951379 0.530306 0.946083 0.134102
H160  H     H_    0.548616 0.030337 0.053855 0.134057
H161  H     H_    0.451378 0.030306 0.946084 0.134107
H162  H     H_    0.961108 0.522477 0.065312 0.113313
H163  H     H_    0.038890 0.522482 0.934621 0.112938
H164  H     H_    0.461107 0.022479 0.065313 0.112889
H165  H     H_    0.538890 0.022483 0.934622 0.112914
H166  H     H_    0.615285 0.786363 0.046919 0.112104
H167  H     H_    0.384707 0.786354 0.953120 0.112109
H168  H     H_    0.115286 0.286361 0.046917 0.112189
N1    N     N_2   0.807208 0.890300 0.602739 -0.535212
N2    N     N_2   0.192993 0.890006 0.397440 -0.535254
N3    N     N_2   0.307118 0.390117 0.602702 -0.535066
N4    N     N_2   0.692523 0.390331 0.397783 -0.535928
N5    N     N_2   0.922284 0.480215 0.399603 -0.554016
N6    N     N_2   0.074607 0.485645 0.598131 -0.552549
N7    N     N_2   0.424772 0.984740 0.401258 -0.553045
N8    N     N_2   0.575216 0.984696 0.598621 -0.553034
O1    O     O_R   0.957210 0.449410 0.665480 -0.525024
O2    O     O_R   0.167480 0.095300 0.164000 -0.534975
O3    O     O_R   0.332520 0.595300 0.836000 -0.535088
O4    O     O_R   0.667480 0.595300 0.164000 -0.535036
O5    O     O_R   0.946380 0.253940 0.826940 -0.512489
O6    O     O_R   0.053620 0.253940 0.173060 -0.512644
O7    O     O_R   0.446380 0.753940 0.826940 -0.512507
O8    O     O_R   0.553620 0.753940 0.173060 -0.512573
O9    O     O_3   0.834560 0.334570 0.748840 -0.274160
O10   O     O_3   0.165440 0.334570 0.251160 -0.273995
O11   O     O_3   0.334560 0.834570 0.748840 -0.274124
O12   O     O_R   0.042790 0.449410 0.334520 -0.532197
O13   O     O_3   0.665440 0.834570 0.251160 -0.274064
O14   O     O_R   0.820730 0.541240 0.668250 -0.516557
O15   O     O_R   0.179270 0.541240 0.331750 -0.515815
O16   O     O_R   0.320730 0.041240 0.668250 -0.516441
O17   O     O_R   0.679270 0.041240 0.331750 -0.516543
O18   O     O_R   0.714240 0.455060 0.663710 -0.536076
O19   O     O_R   0.285760 0.455060 0.336290 -0.536070
O20   O     O_R   0.214240 0.955060 0.663710 -0.536001
O21   O     O_R   0.785760 0.955060 0.336290 -0.535724
O22   O     O_R   0.736780 0.204870 0.675910 -0.527373
O23   O     O_R   0.457210 0.949410 0.665480 -0.525860
O24   O     O_R   0.263220 0.204870 0.324090 -0.527399
O25   O     O_R   0.236780 0.704870 0.675910 -0.527394
O26   O     O_R   0.763220 0.704870 0.324090 -0.530103
O27   O     O_R   0.833070 0.087590 0.673490 -0.520934
O28   O     O_R   0.166930 0.087590 0.326510 -0.520977
O29   O     O_R   0.333070 0.587590 0.673490 -0.521006
O30   O     O_R   0.666930 0.587590 0.326510 -0.520700
O31   O     O_R   0.946890 0.246800 0.676300 -0.525255
O32   O     O_R   0.053110 0.246800 0.323700 -0.523881
O33   O     O_R   0.446890 0.746800 0.676300 -0.525345
O34   O     O_R   0.542790 0.949410 0.334520 -0.525825
O35   O     O_R   0.553110 0.746800 0.323700 -0.525366
O36   O     O_R   0.956650 0.457120 0.827980 -0.539676
O37   O     O_R   0.043350 0.457120 0.172020 -0.539576
O38   O     O_R   0.456650 0.957120 0.827980 -0.539802
O39   O     O_R   0.543350 0.957120 0.172020 -0.539764
O40   O     O_R   0.820220 0.548390 0.818890 -0.509383
O41   O     O_R   0.179780 0.548390 0.181110 -0.508847
O42   O     O_R   0.320220 0.048390 0.818890 -0.509313
O43   O     O_R   0.679780 0.048390 0.181110 -0.509298
O44   O     O_R   0.713680 0.462770 0.826210 -0.533401
O45   O     O_R   0.736260 0.212010 0.826560 -0.512522
O46   O     O_R   0.286320 0.462770 0.173790 -0.533436
O47   O     O_R   0.213680 0.962770 0.826210 -0.533365
O48   O     O_R   0.786320 0.962770 0.173790 -0.533019
O49   O     O_R   0.263740 0.212010 0.173440 -0.512575
O50   O     O_R   0.236260 0.712010 0.826560 -0.512532
O51   O     O_R   0.763740 0.712010 0.173440 -0.512820
O52   O     O_R   0.832520 0.095300 0.836000 -0.535104

loop_
_geom_bond_atom_site_label_1
_geom_bond_atom_site_label_2
_ccdc_geom_bond_type
C111  H166  S    
C79   H145  S    
C15   H92   S    
C72   O30   A    
C76   C93   S    
C120  O23   A    
C109  H168  S    
C27   H51   S    
Cr1   O36   S    
C33   N8    S    
C110  H12   S    
C89   C127  S    
C26   H45   S    
C25   H24   S    
C82   C87   S    
C28   H55   S    
C105  C123  S    
Cr4   O8    S    
C37   C42   S    
C9    O37   A    
C113  C122  S    
C29   H59   S    
C112  H15   S    
C2    C22   S    
C68   C90   S    
C82   H127  S    
C51   C57   S    
C91   C100  S    
C10   C125  S    
C36   C71   S    
C83   C88   S    
C15   H102  S    
Cr7   O13   S    
C57   N6    S    
Cr7   O39   S    
C104  C105  S    
C65   C87   S    
Cr5   O12   S    
C30   H62   S    
C105  H159  S    
C100  H135  S    
C97   H154  S    
C99   H156  S    
C86   C90   S    
C63   C118  S    
C127  O46   A    
C128  O42   A    
C81   C99   S    
C52   O20   A    
C25   C42   S    
C121  O34   A    
H74   N8    S    
C110  C123  S    
C31   H69   S    
C16   C20   S    
C70   O28   A    
C90   C126  S    
C27   N2    S    
C24   C107  S    
C10   O7    A    
C109  H14   S    
C34   C69   S    
C73   C91   S    
C112  C125  S    
C2    C52   S    
C81   C90   S    
C23   H13   S    
Cr6   O11   S    
C17   C34   S    
C30   N5    S    
C115  C124  S    
Cr9   O10   S    
C66   H106  S    
C86   H130  S    
C68   C77   S    
C10   O38   A    
C9    O6    A    
C50   H82   S    
C49   C62   S    
C111  C124  S    
C79   C97   S    
C126  O44   A    
C8    C123  S    
C57   C61   S    
C44   H125  S    
C33   H77   S    
C45   H136  S    
C67   H98   S    
C80   H146  S    
C64   C120  S    
C51   H93   S    
C79   H119  S    
Cr3   O33   S    
Cr8   O44   S    
Cr4   O13   S    
C28   N3    S    
Cr5   O37   S    
C110  H3    S    
C2    C14   S    
C97   H123  S    
C98   H124  S    
C12   H100  S    
C20   H20   S    
C106  C124  S    
Cr6   O23   S    
C55   H84   S    
Cr2   O6    S    
C48   H79   S    
C50   H68   S    
C78   C87   S    
C81   H121  S    
C41   O15   A    
C84   C102  S    
C65   H96   S    
C11   C124  S    
C33   H75   S    
C49   H57   S    
C68   H108  S    
C18   H150  S    
C85   H31   S    
C84   H129  S    
C113  H8    S    
C74   H34   S    
C75   H115  S    
Cr6   O42   S    
C66   C88   S    
C104  C122  S    
C119  O12   A    
C26   N1    S    
C77   C94   S    
C12   H1    S    
C13   C23   S    
C60   C119  S    
C105  H163  S    
Cr11  O48   S    
C106  H164  S    
C116  H4    S    
C67   H107  S    
C21   C38   S    
C72   O26   A    
C29   N4    S    
C75   H110  S    
C17   H17   S    
C18   C35   S    
C4    C91   S    
Cr8   O45   S    
C77   H117  S    
C55   C64   S    
C83   H132  S    
C5    O49   A    
Cr1   O14   S    
C7    O51   A    
C92   C97   S    
C73   H109  S    
C54   C59   S    
C74   C118  S    
C13   C96   S    
C20   H152  S    
Cr9   O19   S    
C32   H71   S    
C82   H131  S    
Cr12  O52   S    
Cr7   O17   S    
C22   H2    S    
C77   H112  S    
Cr7   O43   S    
C109  C114  S    
C63   O21   A    
C114  C123  S    
C16   H104  S    
C31   N6    S    
Cr4   O30   S    
C116  C125  S    
C55   C58   S    
C55   H94   S    
Cr11  O51   S    
C44   C85   S    
Cr11  O13   S    
C53   C56   S    
H56   N4    S    
C83   C101  S    
C71   O25   A    
C34   C43   S    
Cr5   O15   S    
C127  O41   A    
Cr3   O11   S    
Cr4   O35   S    
C70   O24   A    
C114  H9    S    
C101  H141  S    
C46   H42   S    
C4    O52   A    
C59   N8    S    
C107  H38   S    
C20   C37   S    
C6    O50   A    
C106  C108  S    
C22   C39   S    
H48   N2    S    
C76   H116  S    
C91   C95   S    
C1    C24   S    
C29   H58   S    
C51   C60   S    
C54   H83   S    
C116  H11   S    
C126  O40   A    
C58   C62   S    
C99   H126  S    
Cr6   O16   S    
Cr3   O3    S    
Cr12  O5    S    
Cr4   O4    S    
C14   H81   S    
C71   O29   A    
Cr3   O29   S    
C44   H40   S    
C13   C41   S    
Cr8   O9    S    
C45   H41   S    
C15   C19   S    
C30   H63   S    
C43   H39   S    
C46   H147  S    
C101  H137  S    
C83   H128  S    
Cr10  O50   S    
C22   H22   S    
C23   C40   S    
C85   H36   S    
C2    C85   S    
C63   O17   A    
C3    O43   A    
C80   C89   S    
C14   C18   S    
Cr2   O10   S    
C98   H155  S    
C12   C17   S    
C41   O19   A    
C111  C116  S    
C27   H50   S    
C96   H37   S    
C59   H87   S    
C4    O45   A    
C108  H161  S    
C19   H151  S    
C84   H133  S    
Cr11  O21   S    
Cr8   O22   S    
Cr6   O38   S    
C79   C88   S    
C5    O2    A    
C119  O32   A    
C47   H78   S    
C7    O4    A    
C61   C117  S    
C54   C62   S    
C25   H25   S    
C56   C60   S    
C35   C39   S    
Cr2   O28   S    
C21   C118  S    
C18   H18   S    
C42   H29   S    
C53   H86   S    
C57   H89   S    
C78   C95   S    
C29   H60   S    
C9    C122  S    
C78   H118  S    
C56   H90   S    
C78   H144  S    
Cr10  O47   S    
C120  O33   A    
C92   C101  S    
C12   C118  S    
C1    O14   A    
Cr1   O40   S    
C108  H165  S    
Cr9   O49   S    
C40   H28   S    
C95   H153  S    
C56   N5    S    
C11   O39   A    
C38   H26   S    
C7    C94   S    
C65   H105  S    
C69   O22   A    
C80   C98   S    
Cr1   O9    S    
C68   H99   S    
C93   C102  S    
C115  H5    S    
Cr11  O26   S    
C19   H19   S    
C113  H7    S    
C121  O35   A    
C8    O5    A    
Cr2   O32   S    
C112  H167  S    
C66   C75   S    
C37   C72   S    
Cr7   O34   S    
Cr12  O27   S    
C37   C46   S    
C76   H111  S    
Cr3   O7    S    
Cr1   O1    S    
C6    O3    A    
H65   N6    S    
C50   C64   S    
C102  H142  S    
C103  H139  S    
C40   N3    S    
C128  O47   A    
C31   H67   S    
C59   C64   S    
C117  O1    A    
C86   H134  S    
C117  O31   A    
C19   C36   S    
C32   H72   S    
C109  C122  S    
Cr9   O24   S    
C67   C89   S    
C65   C73   S    
C11   O8    A    
C46   C107  S    
C47   C60   S    
C95   H122  S    
Cr2   O2    S    
C35   C70   S    
C104  H157  S    
C52   O16   A    
C8    O36   A    
C51   H85   S    
Cr12  O9    S    
Cr10  O25   S    
C80   H120  S    
C108  C125  S    
C111  H16   S    
Cr12  O31   S    
H70   N7    S    
C6    C93   S    
C43   C74   S    
C16   C24   S    
C100  H140  S    
C38   N1    S    
C53   C61   S    
C54   H95   S    
C102  H138  S    
C86   C103  S    
C103  H143  S    
C33   H76   S    
C23   H23   S    
C21   H21   S    
C49   H80   S    
C3    C87   S    
C21   H158  S    
C36   C40   S    
C24   C25   S    
C114  H6    S    
C31   H66   S    
C81   H148  S    
C107  H33   S    
C32   N7    S    
C28   H54   S    
C48   H46   S    
C14   H101  S    
C26   H47   S    
H61   N5    S    
C47   C48   S    
Cr10  O11   S    
C28   H53   S    
H43   N1    S    
C36   C45   S    
Cr8   O18   S    
C35   C44   S    
C110  C113  S    
C75   C92   S    
C53   H91   S    
C32   H73   S    
C49   C50   S    
C13   C15   S    
C66   H97   S    
C3    O48   A    
Cr5   O41   S    
C39   N2    S    
C84   C89   S    
C58   H88   S    
C43   H114  S    
Cr10  O20   S    
C104  H162  S    
C42   N4    S    
Cr9   O46   S    
C34   C38   S    
H52   N3    S    
C82   C100  S    
C94   C103  S    
Cr5   O10   S    
C30   H64   S    
C69   O27   A    
C73   H113  S    
C88   C128  S    
C1    O18   A    
C48   C61   S    
C17   H149  S    
C94   C99   S    
C115  H10   S    
C62   C121  S    
C39   H27   S    
C47   H35   S    
C74   H30   S    
C5    C92   S    
C16   H103  S    
C96   H32   S    
C67   C76   S    
C27   H49   S    
C58   N7    S    
C45   C96   S    
C106  H160  S    
C93   C98   S    
C112  C115  S    
C26   H44   S    
