data_mof_unit_38170.cif
_audit_creation_date              2012-10-26T20:19:17-0400
_audit_creation_method            fapswitch 2.2
_symmetry_space_group_name_H-M    P1
_symmetry_Int_Tables_number       1
_space_group_crystal_system       triclinic
_cell_length_a                    15.070045
_cell_length_b                    13.031444
_cell_length_c                    11.668926
_cell_angle_alpha                 100.541385
_cell_angle_beta                  93.919624
_cell_angle_gamma                 90.521265
_cell_volume                      2247.10535881

loop_
_atom_site_label
_atom_site_type_symbol
_atom_type_description
_atom_site_fract_x
_atom_site_fract_y
_atom_site_fract_z
_atom_type_partial_charge
C1    C     C_R   0.500351 0.299075 0.477965 0.614235
C2    C     C_R   0.554373 0.874135 0.628601 0.218532
C3    C     C_R   0.546015 0.135750 0.545328 0.041845
C4    C     C_R   0.453762 0.863850 0.453150 0.051308
C5    C     C_R   0.529437 0.028983 0.543666 -0.016507
C6    C     C_R   0.469146 0.971075 0.456145 -0.015656
C7    C     C_R   0.410773 0.407576 0.021486 0.018265
C8    C     C_R   0.589995 0.591747 0.978316 0.024235
C9    C     C_R   0.421118 0.415350 0.143526 0.060707
C10   C     C_R   0.580492 0.582921 0.856035 0.073937
C11   C     C_R   0.538742 0.539074 0.157821 0.081805
C12   C     C_R   0.499430 0.700949 0.522000 0.597782
C13   C     C_R   0.460715 0.461809 0.842358 0.077321
C14   C     C_R   0.532735 0.533446 0.034627 0.009313
C15   C     C_R   0.467200 0.466964 0.965408 0.012430
C16   C     C_R   0.328767 0.501114 0.500577 0.616900
C17   C     C_R   0.670934 0.497458 0.499421 0.598846
C18   C     C_R   0.815941 0.582588 0.559430 0.236374
C19   C     C_R   0.182630 0.415291 0.443537 0.232413
C20   C     C_R   0.767202 0.494839 0.499486 0.010027
C21   C     C_R   0.232152 0.502649 0.503167 0.011706
C22   C     C_R   0.809575 0.404707 0.445312 0.065836
C23   C     C_R   0.043323 0.316335 0.411188 -0.087942
C24   C     C_R   0.190781 0.588196 0.569472 0.064745
C25   C     C_R   0.903845 0.401203 0.456693 0.027765
C26   C     C_R   0.096993 0.585143 0.576841 0.030412
C27   C     C_R   0.953233 0.492005 0.514717 -0.054759
C28   C     C_R   0.047310 0.495351 0.516569 -0.054054
C29   C     C_R   0.908826 0.580454 0.569167 -0.020715
C30   C     C_R   0.091145 0.409007 0.456233 -0.025392
C31   C     C_R   0.951381 0.310329 0.414489 0.284037
C32   C     C_R   0.050308 0.667124 0.642891 0.283065
C33   C     C_3   0.758916 0.736036 0.526409 -0.086928
C34   C     C_R   0.957656 0.665699 0.633936 -0.085530
C35   C     C_3   0.210217 0.339189 0.258549 -0.075035
C36   C     C_3   0.912585 0.158563 0.467929 -0.076688
C37   C     C_3   0.093810 0.736534 0.831105 -0.078640
C38   C     C_3   0.555228 0.854730 0.817965 -0.078299
C39   C     C_3   0.435194 0.146068 0.183593 -0.102203
C40   C     C_R   0.501305 0.814592 0.535609 0.030746
C41   C     C_R   0.497488 0.185509 0.464299 0.041309
C42   C     C_R   0.426958 0.021175 0.371736 -0.082031
C43   C     C_R   0.570120 0.979528 0.629657 -0.099373
C44   C     C_R   0.442105 0.126751 0.373343 0.252858
Cu1   Cu    Cu3+1 0.506660 0.507730 0.615930 1.045691
Cu2   Cu    Cu3+1 0.493340 0.492270 0.384070 1.023939
H1    H     H_    0.077212 0.246383 0.373990 0.178055
H2    H     H_    0.708492 0.701301 0.455574 0.129799
H3    H     H_    0.822052 0.753289 0.488543 0.114740
H4    H     H_    0.234202 0.415199 0.240304 0.137533
H5    H     H_    0.138844 0.327146 0.227834 0.122456
H6    H     H_    0.246878 0.275838 0.206329 0.185931
H7    H     H_    0.878687 0.201330 0.543760 0.149721
H8    H     H_    0.982165 0.141253 0.495516 0.123402
H9    H     H_    0.876480 0.082868 0.437578 0.169267
H10   H     H_    0.126427 0.662288 0.842370 0.137146
H11   H     H_    0.025397 0.738266 0.861609 0.124869
H12   H     H_    0.924167 0.732313 0.680298 0.179238
H13   H     H_    0.132902 0.801380 0.887669 0.172999
H14   H     H_    0.484514 0.826973 0.806355 0.148940
H15   H     H_    0.559461 0.940274 0.851946 0.122599
H16   H     H_    0.589284 0.816223 0.885303 0.164820
H17   H     H_    0.431680 0.060300 0.150965 0.118938
H18   H     H_    0.505377 0.175233 0.190440 0.154822
H19   H     H_    0.397646 0.182545 0.117263 0.157290
H20   H     H_    0.381095 0.980244 0.303260 0.168466
H21   H     H_    0.614574 0.021162 0.699466 0.170738
H22   H     H_    0.411538 0.411488 0.787154 0.172848
H23   H     H_    0.587459 0.589990 0.213163 0.160818
H24   H     H_    0.624867 0.626935 0.813209 0.190046
H25   H     H_    0.379201 0.368896 0.186008 0.151175
H26   H     H_    0.733626 0.811728 0.570084 0.181512
I1    I     I_    0.308225 0.305607 0.929852 -0.442316
I2    I     I_    0.693108 0.692910 0.069824 -0.406160
I3    I     I_    0.726686 0.282062 0.339834 -0.263948
I4    I     I_    0.274222 0.723165 0.642441 -0.265847
I5    I     I_    0.353403 0.777911 0.330518 -0.327713
I6    I     I_    0.650691 0.219859 0.661647 -0.347062
N1    N     N_R   0.516670 0.519360 0.790130 -0.257927
N2    N     N_R   0.483330 0.480640 0.209870 -0.247866
O1    O     O_R   0.504720 0.354460 0.582000 -0.490865
O2    O     O_3   0.225467 0.333378 0.378021 -0.546025
O3    O     O_3   0.909922 0.214367 0.374917 -0.530072
O4    O     O_3   0.093236 0.751613 0.714291 -0.530810
O5    O     O_3   0.598082 0.827485 0.713164 -0.546970
O6    O     O_3   0.396155 0.174186 0.291199 -0.543016
O7    O     O_R   0.495280 0.645540 0.418000 -0.501950
O8    O     O_R   0.493480 0.341410 0.386200 -0.464769
O9    O     O_R   0.506520 0.658590 0.613800 -0.462041
O10   O     O_R   0.375880 0.506510 0.597910 -0.504358
O11   O     O_R   0.624120 0.493490 0.402090 -0.513109
O12   O     O_R   0.364640 0.493450 0.402110 -0.481170
O13   O     O_R   0.635360 0.506550 0.597890 -0.463685
O14   O     O_3   0.772071 0.670716 0.609948 -0.549124

loop_
_geom_bond_atom_site_label_1
_geom_bond_atom_site_label_2
_ccdc_geom_bond_type
C25   C31   A    
C13   N1    A    
C26   C32   A    
C16   C21   S    
C27   C29   A    
C17   O11   A    
Cu1   O13   S    
C33   O14   S    
C7    I1    S    
Cu1   Cu2   S    
C16   O10   A    
C39   H18   S    
C19   C21   A    
C24   C26   A    
C5    C6    A    
C11   C14   A    
Cu2   O12   S    
C36   O3    S    
C1    O1    A    
C17   C20   S    
C31   O3    S    
C2    O5    S    
C36   H7    S    
C33   H26   S    
C37   H10   S    
C4    C40   A    
C22   C25   A    
C37   O4    S    
C19   O2    S    
Cu1   O9    S    
C38   H15   S    
C1    O8    A    
C7    C15   A    
C5    C43   A    
C39   H19   S    
C42   C44   A    
C22   I3    S    
C44   O6    S    
C35   O2    S    
Cu2   O8    S    
C32   O4    S    
C23   H1    S    
C38   O5    S    
C23   C30   A    
C12   O9    A    
C4    C6    A    
C24   I4    S    
Cu2   O11   S    
C29   C34   A    
C9    N2    A    
C32   C34   A    
C12   C40   S    
C43   H21   S    
C2    C43   A    
C35   H4    S    
C8    I2    S    
Cu1   N1    S    
C18   C29   A    
Cu1   O10   S    
C37   H13   S    
C38   H14   S    
C10   H24   S    
C1    C41   S    
C20   C22   A    
C16   O12   A    
C13   C15   A    
C35   H5    S    
C18   O14   S    
C41   C44   A    
C17   O13   A    
C35   H6    S    
C34   H12   S    
Cu2   O7    S    
C7    C9    A    
C3    C41   A    
C8    C14   A    
C12   O7    A    
Cu1   O1    S    
C9    H25   S    
C3    C5    A    
C10   N1    A    
C11   H23   S    
C25   C27   A    
C39   H17   S    
C26   C28   A    
C28   C30   A    
C4    I5    S    
C36   H9    S    
Cu2   N2    S    
C19   C30   A    
C18   C20   A    
C36   H8    S    
C11   N2    A    
C2    C40   A    
C8    C10   A    
C6    C42   A    
C21   C24   A    
C27   C28   A    
C42   H20   S    
C33   H2    S    
C14   C15   A    
C39   O6    S    
C3    I6    S    
C33   H3    S    
C37   H11   S    
C23   C31   A    
C38   H16   S    
C13   H22   S    
