data_mof_unit_63387.cif
_audit_creation_date              2012-10-26T18:21:08-0400
_audit_creation_method            fapswitch 2.2
_symmetry_space_group_name_H-M    P1
_symmetry_Int_Tables_number       1
_space_group_crystal_system       triclinic
_cell_length_a                    18.379354
_cell_length_b                    18.37916
_cell_length_c                    32.00721
_cell_angle_alpha                 90.00048
_cell_angle_beta                  89.999041
_cell_angle_gamma                 89.998411
_cell_volume                      10811.9423226

loop_
_atom_site_label
_atom_site_type_symbol
_atom_type_description
_atom_site_fract_x
_atom_site_fract_y
_atom_site_fract_z
_atom_type_partial_charge
Br1   Br    Br    0.630575 0.392995 0.715350 -0.519540
Br2   Br    Br    0.646835 0.416821 0.284754 -0.514027
Br3   Br    Br    0.348874 0.424980 0.715165 -0.513043
Br4   Br    Br    0.363817 0.400298 0.284711 -0.518991
Br5   Br    Br    0.153010 0.928963 0.215136 -0.512683
Br6   Br    Br    0.129877 0.892139 0.784644 -0.519632
Br7   Br    Br    0.872244 0.889627 0.215372 -0.519626
Br8   Br    Br    0.848394 0.925965 0.784840 -0.512935
C1    C     C_R   0.639862 0.500018 1.000000 0.559483
C2    C     C_1   0.500054 0.499725 0.162722 0.038973
C3    C     C_3   0.235098 0.122312 0.732812 -0.360784
C4    C     C_3   0.819717 0.065915 0.249977 -0.000913
C5    C     C_3   0.762814 0.118053 0.267121 -0.360816
C6    C     C_3   0.842465 0.109821 0.750053 -0.005204
C7    C     C_3   0.799166 0.173523 0.732664 -0.352925
C8    C     C_3   0.521425 0.689905 0.750268 -0.010351
C9    C     C_3   0.533448 0.763986 0.730322 -0.371635
C10   C     C_3   0.488834 0.690801 0.249764 -0.009983
C11   C     C_3   0.486492 0.765779 0.269756 -0.372247
C12   C     C_3   0.973639 0.189290 0.250287 -0.010211
C13   C     C_1   0.000111 0.999718 0.337278 0.038965
C14   C     C_3   0.957705 0.262689 0.230413 -0.371225
C15   C     C_3   0.022674 0.189758 0.749735 -0.010374
C16   C     C_3   0.035192 0.263757 0.769682 -0.371558
C17   C     C_1   0.999894 0.999716 0.662722 0.038988
C18   C     C_1   0.499955 0.499150 0.662715 0.063200
C19   C     C_1   0.500029 0.499143 0.337285 0.063249
C20   C     C_1   0.000044 0.999156 0.162715 0.063138
C21   C     C_1   0.999957 0.999148 0.837285 0.063197
C22   C     C_1   0.717327 0.500050 0.000000 -0.034083
C23   C     C_1   0.282673 0.500055 1.000000 -0.034015
C24   C     C_1   0.217327 0.000050 0.500002 -0.034028
C25   C     C_R   0.360137 0.500020 0.000000 0.559450
C26   C     C_1   0.782673 0.000055 0.499998 -0.034086
C27   C     C_1   0.782570 0.500043 0.000000 -0.035108
C28   C     C_1   0.217430 0.500046 1.000000 -0.034975
C29   C     C_1   0.282570 0.000043 0.500001 -0.035010
C30   C     C_1   0.717430 0.000047 0.499999 -0.035078
C31   C     C_R   0.500001 0.360016 0.500000 0.563208
C32   C     C_R   0.000001 0.860016 0.000000 0.563183
C33   C     C_R   0.499999 0.499846 0.580210 0.550305
C34   C     C_R   0.500001 0.499843 0.419790 0.550309
C35   C     C_R   0.999999 0.999846 0.080210 0.550304
C36   C     C_R   0.139862 0.000018 0.500001 0.559450
C37   C     C_R   0.000000 0.999846 0.919790 0.550307
C38   C     C_R   0.499999 0.639715 0.500000 0.554426
C39   C     C_R   0.999999 0.139715 1.000000 0.554441
C40   C     C_R   0.000000 0.639923 0.000000 0.560082
C41   C     C_R   0.500001 0.139923 0.500000 0.560126
C42   C     C_R   0.860035 0.500017 0.000000 0.558755
C43   C     C_R   0.139965 0.500018 1.000000 0.558802
C44   C     C_R   0.360035 0.000017 0.500000 0.558805
C45   C     C_R   0.639964 0.000018 0.500000 0.558789
C46   C     C_R   0.499992 0.500001 0.919788 0.550206
C47   C     C_R   0.860137 0.000020 0.499999 0.559441
C48   C     C_R   0.500006 0.500002 0.080212 0.550230
C49   C     C_R   0.000007 0.000001 0.419788 0.550191
C50   C     C_R   0.999992 0.000001 0.580212 0.550199
C51   C     C_R   0.999999 0.360019 1.000000 0.557420
C52   C     C_R   0.499999 0.860019 0.500000 0.557412
C53   C     C_1   0.500002 0.282583 0.500000 -0.026212
C54   C     C_1   0.000002 0.782583 0.000000 -0.026253
C55   C     C_1   0.000002 0.717357 0.000000 -0.029284
C56   C     C_1   0.500002 0.217357 0.500000 -0.029245
C57   C     C_1   0.499998 0.717230 0.500000 -0.037385
C58   C     C_3   0.507688 0.567225 0.736400 0.219592
C59   C     C_1   0.999998 0.217230 1.000000 -0.037357
C60   C     C_1   0.999998 0.282503 1.000000 -0.038564
C61   C     C_1   0.499998 0.782503 0.499999 -0.038598
C62   C     C_3   0.555253 0.457313 0.736207 0.122557
C63   C     C_3   0.561745 0.467397 0.263822 0.122023
C64   C     C_3   0.436511 0.470921 0.736164 0.121323
C65   C     C_3   0.442425 0.460506 0.263803 0.121898
C66   C     C_3   0.064230 0.972635 0.236157 0.121041
C67   C     C_3   0.054977 0.956949 0.763791 0.122551
C68   C     C_3   0.945895 0.955857 0.236209 0.122726
C69   C     C_3   0.496104 0.567563 0.263607 0.219537
C70   C     C_3   0.936327 0.971335 0.763838 0.121312
C71   C     C_3   0.563019 0.525960 0.763616 0.252845
C72   C     C_3   0.557721 0.536380 0.236417 0.253012
C73   C     C_3   0.444391 0.539589 0.763578 0.252921
C74   C     C_3   0.438507 0.529513 0.236397 0.252743
C75   C     C_3   0.054520 0.041076 0.263574 0.252898
C76   C     C_3   0.063191 0.025544 0.736382 0.252847
C77   C     C_3   0.936303 0.024261 0.263621 0.252917
C78   C     C_3   0.944655 0.039951 0.736425 0.252920
C79   C     C_1   0.499946 0.499942 0.874943 0.014263
C80   C     C_3   0.990499 0.067001 0.236401 0.219657
C81   C     C_1   0.500031 0.499946 0.125058 0.014251
C82   C     C_1   0.000056 0.999942 0.374943 0.014266
C83   C     C_1   0.999945 0.999944 0.625057 0.014264
C84   C     C_1   0.499992 0.499544 0.625053 0.034637
C85   C     C_1   0.500007 0.499536 0.374947 0.034654
C86   C     C_1   0.000004 0.999546 0.125053 0.034621
C87   C     C_1   0.999995 0.999543 0.874947 0.034634
C88   C     C_3   0.491947 0.430007 0.764291 -0.124294
C89   C     C_3   0.504081 0.429681 0.235705 -0.124294
C90   C     C_3   0.009914 0.930252 0.264287 -0.124359
C91   C     C_3   0.008133 0.067171 0.763601 0.219598
C92   C     C_3   0.991492 0.930059 0.735708 -0.124300
C93   C     C_3   0.499843 0.499301 0.791450 0.004501
C94   C     C_3   0.500071 0.499314 0.208551 0.004509
C95   C     C_3   0.000174 0.999309 0.291449 0.004491
C96   C     C_3   0.999841 0.999301 0.708550 0.004507
C97   C     C_3   0.499868 0.498561 0.708555 0.001980
C98   C     C_3   0.500076 0.498559 0.291445 0.002035
C99   C     C_3   0.000146 0.998572 0.208554 0.001927
C100  C     C_3   0.999865 0.998559 0.791445 0.001980
C101  C     C_3   0.678490 0.570599 0.749984 -0.001228
C102  C     C_1   0.499896 0.499716 0.837278 0.038985
C103  C     C_3   0.734294 0.623847 0.767190 -0.360673
C104  C     C_3   0.663920 0.599991 0.250088 -0.004205
C105  C     C_3   0.710152 0.661728 0.232862 -0.353836
C106  C     C_3   0.341741 0.608784 0.749954 -0.005190
C107  C     C_3   0.298056 0.672229 0.767335 -0.352978
C108  C     C_3   0.325571 0.580225 0.249992 -0.002553
C109  C     C_3   0.271995 0.635597 0.232650 -0.359143
C110  C     C_3   0.155369 0.112864 0.249965 -0.005334
C111  C     C_3   0.197644 0.177229 0.267377 -0.352783
C112  C     C_3   0.178957 0.069413 0.750012 -0.001183
Cu1   Cu    Cu3+1 0.500000 0.427500 0.000000 0.987748
Cu2   Cu    Cu3+1 0.000000 0.500000 0.041440 0.989478
Cu3   Cu    Cu3+1 0.500000 0.000000 0.458560 0.989275
Cu4   Cu    Cu3+1 0.500000 0.000000 0.541440 0.989399
Cu5   Cu    Cu3+1 1.000000 0.927500 0.500000 0.987658
Cu6   Cu    Cu3+1 0.500000 0.572500 0.000000 0.998403
Cu7   Cu    Cu3+1 0.000000 0.072500 0.500000 0.998596
Cu8   Cu    Cu3+1 0.572520 0.499840 0.500000 1.005074
Cu9   Cu    Cu3+1 0.427480 0.499840 0.500000 1.006434
Cu10  Cu    Cu3+1 0.072520 0.999840 0.000000 1.005969
Cu11  Cu    Cu3+1 0.927480 0.999840 0.000000 1.005513
Cu12  Cu    Cu3+1 0.000000 0.500000 0.958560 0.989409
H1    H     H_    0.485496 0.373833 0.776488 0.169770
H2    H     H_    0.700970 0.555240 0.259490 0.195697
H3    H     H_    0.634811 0.620654 0.278215 0.167019
H4    H     H_    0.674890 0.708025 0.223531 0.161615
H5    H     H_    0.748954 0.680636 0.257141 0.129829
H6    H     H_    0.741365 0.642737 0.205220 0.184665
H7    H     H_    0.302848 0.565784 0.740336 0.196474
H8    H     H_    0.371903 0.628473 0.721963 0.165864
H9    H     H_    0.335173 0.716855 0.776966 0.160289
H10   H     H_    0.260292 0.693097 0.743045 0.131423
H11   H     H_    0.265835 0.654229 0.794814 0.185992
H12   H     H_    0.507350 0.373236 0.223505 0.169852
H13   H     H_    0.351940 0.604533 0.278048 0.166856
H14   H     H_    0.294362 0.531296 0.259507 0.195158
H15   H     H_    0.243314 0.612629 0.205099 0.180090
H16   H     H_    0.231208 0.649749 0.256924 0.121655
H17   H     H_    0.301197 0.685833 0.223143 0.164783
H18   H     H_    0.124736 0.131917 0.221997 0.165431
H19   H     H_    0.195220 0.070774 0.240312 0.196741
H20   H     H_    0.230305 0.159886 0.294824 0.186185
H21   H     H_    0.234895 0.198996 0.243086 0.131358
H22   H     H_    0.159557 0.220992 0.277066 0.160251
H23   H     H_    0.017870 0.874270 0.276480 0.169633
H24   H     H_    0.207729 0.018884 0.759318 0.194395
H25   H     H_    0.153948 0.094676 0.778201 0.167896
H26   H     H_    0.208319 0.174038 0.723578 0.164999
H27   H     H_    0.276641 0.134135 0.757073 0.120066
H28   H     H_    0.262486 0.098333 0.705111 0.179201
H29   H     H_    0.791709 0.014910 0.240755 0.194096
H30   H     H_    0.844291 0.091424 0.221735 0.168255
H31   H     H_    0.788836 0.170212 0.276261 0.165393
H32   H     H_    0.721070 0.129145 0.242860 0.120059
H33   H     H_    0.735820 0.093801 0.294871 0.178948
H34   H     H_    0.984672 0.873929 0.723511 0.169747
H35   H     H_    0.872763 0.129342 0.778033 0.165829
H36   H     H_    0.803310 0.067071 0.759688 0.196523
H37   H     H_    0.766824 0.155703 0.705194 0.186140
H38   H     H_    0.761540 0.194640 0.756955 0.131517
H39   H     H_    0.836555 0.217912 0.723019 0.160167
H40   H     H_    0.568049 0.678791 0.771386 0.175610
H41   H     H_    0.470755 0.692593 0.769070 0.172873
H42   H     H_    0.487068 0.777540 0.709477 0.167850
H43   H     H_    0.537751 0.806271 0.754982 0.117058
H44   H     H_    0.584529 0.763568 0.711774 0.171582
H45   H     H_    0.653311 0.595721 0.721803 0.167873
H46   H     H_    0.439125 0.684262 0.230431 0.174510
H47   H     H_    0.537362 0.688420 0.229152 0.174123
H48   H     H_    0.536189 0.774653 0.288836 0.167344
H49   H     H_    0.483780 0.808200 0.245100 0.115828
H50   H     H_    0.437762 0.770580 0.290098 0.171819
H51   H     H_    0.024865 0.194194 0.268426 0.172432
H52   H     H_    0.928352 0.176350 0.272020 0.175900
H53   H     H_    0.905981 0.260000 0.212528 0.171406
H54   H     H_    0.952556 0.304878 0.255073 0.117475
H55   H     H_    0.002641 0.278102 0.208961 0.168242
H56   H     H_    0.707585 0.520263 0.740662 0.194432
H57   H     H_    0.972017 0.192782 0.730938 0.172850
H58   H     H_    0.069218 0.178337 0.728612 0.175652
H59   H     H_    0.086274 0.263001 0.788224 0.171665
H60   H     H_    0.039767 0.306015 0.745023 0.117194
H61   H     H_    0.988908 0.277616 0.790532 0.167803
H62   H     H_    0.761850 0.600021 0.794880 0.179292
H63   H     H_    0.775748 0.635963 0.742926 0.120169
H64   H     H_    0.707183 0.675389 0.776445 0.164949
O1    O     O_R   0.605840 0.438770 0.000000 -0.502009
O2    O     O_R   0.394240 0.561230 0.000000 -0.499786
O3    O     O_R   0.105760 0.061230 0.500000 -0.499805
O4    O     O_R   0.894240 0.061230 0.500000 -0.499868
O5    O     O_R   0.500000 0.438780 0.939540 -0.504163
O6    O     O_R   0.500000 0.438780 0.060460 -0.504179
O7    O     O_R   0.000000 0.938780 0.439540 -0.504186
O8    O     O_R   0.000000 0.938780 0.560460 -0.504171
O9    O     O_R   0.500000 0.561230 0.939540 -0.498873
O10   O     O_R   0.500000 0.561230 0.060460 -0.498903
O11   O     O_R   0.000000 0.061230 0.439540 -0.498819
O12   O     O_R   0.394160 0.438770 0.000000 -0.502138
O13   O     O_R   0.000000 0.061230 0.560460 -0.498861
O14   O     O_R   0.561200 0.394070 0.500000 -0.498154
O15   O     O_R   0.438800 0.394070 0.500000 -0.498090
O16   O     O_R   0.061200 0.894070 0.000000 -0.498148
O17   O     O_R   0.938800 0.894070 0.000000 -0.498195
O18   O     O_R   0.561230 0.499860 0.560460 -0.500195
O19   O     O_R   0.561230 0.499860 0.439540 -0.498583
O20   O     O_R   0.438770 0.499860 0.560460 -0.498048
O21   O     O_R   0.438770 0.499860 0.439540 -0.499667
O22   O     O_R   0.061230 0.999860 0.060460 -0.497809
O23   O     O_R   0.105840 0.938770 0.500000 -0.502096
O24   O     O_R   0.061230 0.999860 0.939540 -0.500252
O25   O     O_R   0.938770 0.999860 0.060460 -0.500431
O26   O     O_R   0.938770 0.999860 0.939540 -0.497989
O27   O     O_R   0.561270 0.605640 0.500000 -0.503805
O28   O     O_R   0.438730 0.605640 0.500000 -0.503694
O29   O     O_R   0.061270 0.105640 0.000000 -0.503698
O30   O     O_R   0.938730 0.105640 0.000000 -0.503717
O31   O     O_R   1.000000 0.605780 0.965000 -0.499332
O32   O     O_R   0.000000 0.605780 0.035000 -0.499374
O33   O     O_R   0.500000 0.105780 0.465000 -0.499344
O34   O     O_R   0.894160 0.938770 0.500000 -0.502113
O35   O     O_R   0.500000 0.105780 0.535000 -0.499323
O36   O     O_R   0.894200 0.500000 0.965010 -0.502171
O37   O     O_R   0.894200 0.500000 0.034990 -0.501215
O38   O     O_R   0.105800 0.500000 0.965010 -0.501074
O39   O     O_R   0.105800 0.500000 0.034990 -0.501998
O40   O     O_R   0.394200 0.000000 0.465010 -0.500981
O41   O     O_R   0.394200 0.000000 0.534990 -0.502220
O42   O     O_R   0.605800 0.000000 0.465010 -0.502282
O43   O     O_R   0.605800 0.000000 0.534990 -0.501006
O44   O     O_3   0.627216 0.554487 0.781483 -0.555349
O45   O     O_R   1.000000 0.394210 0.965010 -0.503549
O46   O     O_3   0.616118 0.575474 0.218575 -0.555193
O47   O     O_3   0.388334 0.581953 0.781440 -0.555007
O48   O     O_3   0.376052 0.561663 0.218516 -0.555263
O49   O     O_3   0.109399 0.084946 0.281440 -0.554873
O50   O     O_3   0.127572 0.053652 0.718514 -0.555362
O51   O     O_3   0.871357 0.051053 0.281483 -0.555382
O52   O     O_3   0.888876 0.082679 0.718565 -0.554986
O53   O     O_3   0.515908 0.636972 0.718508 -0.577661
O54   O     O_3   0.492163 0.637670 0.281514 -0.577637
O55   O     O_3   0.980292 0.136494 0.218522 -0.577626
O56   O     O_R   0.000000 0.394210 0.034990 -0.503503
O57   O     O_3   0.016814 0.136861 0.781493 -0.577664
O58   O     O_R   0.500000 0.894210 0.465010 -0.503559
O59   O     O_R   0.500000 0.894210 0.534990 -0.503542
O60   O     O_R   0.605760 0.561230 0.000000 -0.499944

loop_
_geom_bond_atom_site_label_1
_geom_bond_atom_site_label_2
_ccdc_geom_bond_type
C8    H41   S    
C18   C84   T    
C108  O48   S    
C25   O12   A    
C41   O35   A    
Cu4   O41   S    
Cu11  O17   S    
C34   C85   S    
Cu10  O16   S    
Cu1   O5    S    
C92   C96   S    
C66   C75   S    
C15   O57   S    
C34   O21   A    
C78   C96   S    
Cu8   Cu9   S    
C45   O43   A    
C107  H9    S    
C106  C107  S    
C110  O49   S    
C38   O28   A    
Cu3   Cu4   S    
C66   C90   S    
C79   C102  T    
C73   C93   S    
C65   C89   S    
C91   C100  S    
C63   C89   S    
C75   C95   S    
C22   C27   T    
C43   O38   A    
C37   O26   A    
C69   C74   S    
C43   O39   A    
C69   C98   S    
C35   O25   A    
C104  H3    S    
C31   O15   A    
Cu1   O6    S    
C101  C103  S    
C14   H53   S    
C108  H13   S    
C40   O32   A    
C67   C76   S    
C77   C80   S    
C48   O6    A    
Cu11  O26   S    
Cu6   O9    S    
C68   C90   S    
C90   C95   S    
C112  H24   S    
C35   C86   S    
C32   C54   S    
C108  C109  S    
C7    H37   S    
C92   H34   S    
C10   C11   S    
C80   C99   S    
Cu2   Cu12  S    
Br5   C66   S    
Cu10  O22   S    
Cu7   O11   S    
C110  C111  S    
C63   C72   S    
Cu3   O58   S    
Cu9   O21   S    
C34   O19   A    
C101  O44   S    
Cu8   O14   S    
C66   C99   S    
Cu7   O13   S    
C4    O51   S    
C68   C77   S    
C10   O54   S    
Cu10  O29   S    
C8    C9    S    
C105  H4    S    
Cu9   O28   S    
C32   O17   A    
C15   C16   S    
C23   C25   S    
C21   C100  S    
C42   O36   A    
Cu8   O18   S    
C42   O37   A    
C106  H8    S    
Cu9   O15   S    
C9    H43   S    
C50   C83   S    
C105  H6    S    
Br7   C68   S    
C64   C73   S    
C77   C95   S    
C9    H44   S    
C103  H64   S    
C12   H52   S    
Cu3   O42   S    
C70   C78   S    
C104  O46   S    
C75   C80   S    
C4    H29   S    
C107  H10   S    
C50   O8    A    
C26   C47   S    
C111  H21   S    
C41   C56   S    
C88   C93   S    
Cu7   O4    S    
C70   C100  S    
Br8   C70   S    
C47   O34   A    
C11   H49   S    
C36   O23   A    
C112  O50   S    
C71   O44   S    
Cu4   O59   S    
C3    C112  S    
Cu12  O36   S    
Cu8   O27   S    
C39   C59   S    
C104  C105  S    
C1    O1    A    
C3    H28   S    
C5    H31   S    
C6    O52   S    
C13   C82   T    
C101  H56   S    
C74   C94   S    
C31   C53   S    
C107  H11   S    
C17   C83   T    
C76   O50   S    
C49   C82   S    
C29   C44   S    
C74   O48   S    
C59   C60   T    
Br6   C67   S    
C2    C81   T    
C38   C57   S    
Cu11  O25   S    
Cu5   O34   S    
Cu12  O31   S    
C21   C87   T    
Cu4   O43   S    
C20   C86   T    
C109  H16   S    
Cu8   O19   S    
C19   C98   S    
C93   C102  S    
C24   C29   T    
Cu2   O56   S    
C52   O59   A    
C38   O27   A    
C40   C55   S    
C7    H38   S    
C106  O47   S    
Br3   C64   S    
C13   C95   S    
C14   H54   S    
C53   C56   T    
C62   C88   S    
C25   O2    A    
C89   H12   S    
C54   C55   T    
C58   C71   S    
C51   C60   S    
C30   C45   S    
C8    H40   S    
C111  H20   S    
C5    H33   S    
C47   O4    A    
C39   O29   A    
C2    C94   S    
C46   O9    A    
Cu2   O32   S    
C49   O7    A    
C27   C42   S    
C52   O58   A    
C24   C36   S    
C7    H39   S    
C109  H15   S    
C16   H60   S    
C106  H7    S    
C64   C97   S    
Cu10  O24   S    
C78   C91   S    
Cu1   O1    S    
Br4   C65   S    
C14   H55   S    
C28   C43   S    
C1    C22   S    
C80   O55   S    
C44   O41   A    
C52   C61   S    
C48   C81   S    
C6    C7    S    
C12   C14   S    
C10   H47   S    
C68   C99   S    
C12   H51   S    
C70   C92   S    
C112  H25   S    
C76   C96   S    
Cu5   O8    S    
C105  H5    S    
C19   C85   T    
C35   O22   A    
C58   C97   S    
C6    H36   S    
Br2   C63   S    
C37   C87   S    
Cu5   O23   S    
C65   C74   S    
C15   H57   S    
C9    H42   S    
C44   O40   A    
C5    H32   S    
Cu5   Cu7   S    
C50   O13   A    
C1    O60   A    
C33   O20   A    
C49   O11   A    
C90   H23   S    
Cu5   O7    S    
C78   O52   S    
C62   C71   S    
C26   C30   T    
C76   C91   S    
C3    H27   S    
C89   C94   S    
C104  H2    S    
C12   O55   S    
C62   C97   S    
Cu7   O3    S    
C45   O42   A    
C109  H17   S    
C8    O53   S    
C17   C96   S    
C88   H1    S    
C111  H22   S    
C46   O5    A    
C32   O16   A    
Br1   C62   S    
C18   C97   S    
C51   O45   A    
C73   O47   S    
Cu9   O20   S    
Cu10  Cu11  S    
C110  H18   S    
Cu1   Cu6   S    
C91   O57   S    
C58   C73   S    
C108  H14   S    
C33   O18   A    
C69   C72   S    
Cu11  O30   S    
Cu6   O2    S    
C65   C98   S    
C46   C79   S    
C39   O30   A    
C16   H61   S    
Cu6   O10   S    
C57   C61   T    
C11   H48   S    
C67   C92   S    
C72   O46   S    
Cu2   O37   S    
Cu2   O39   S    
C16   H59   S    
C75   O49   S    
C41   O33   A    
C110  H19   S    
C58   O53   S    
Cu4   O35   S    
C103  H62   S    
C4    H30   S    
Cu3   O40   S    
C64   C88   S    
C11   H50   S    
C101  H45   S    
Cu12  O45   S    
C67   C100  S    
C33   C84   S    
C48   O10   A    
C4    C5    S    
C10   H46   S    
C36   O3    A    
C63   C98   S    
C72   C94   S    
C51   O56   A    
C77   O51   S    
C37   O24   A    
C23   C28   T    
C71   C93   S    
Cu6   O60   S    
C69   O54   S    
C20   C99   S    
Cu1   O12   S    
C6    H35   S    
C40   O31   A    
Cu12  O38   S    
Cu3   O33   S    
C15   H58   S    
C31   O14   A    
C3    H26   S    
C103  H63   S    
