data_mof_unit_64571.cif
_audit_creation_date              2013-03-05T15:46:07-0500
_audit_creation_method            fapswitch 2.2
_symmetry_space_group_name_H-M    P1
_symmetry_Int_Tables_number       1
_space_group_crystal_system       triclinic
_cell_length_a                    21.727036
_cell_length_b                    21.654851
_cell_length_c                    22.150569
_cell_angle_alpha                 60.594057
_cell_angle_beta                  119.336297
_cell_angle_gamma                 89.56884
_cell_volume                      7480.54776705

loop_
_atom_site_label
_atom_site_type_symbol
_atom_site_description
_atom_site_fract_x
_atom_site_fract_y
_atom_site_fract_z
_atom_type_partial_charge
O1    O     O_R   0.591660 0.448290 0.500000 -0.619367
O2    O     O_R   0.591590 0.551700 0.500020 -0.587815
C1    C     C_R   0.620416 0.499476 0.501074 0.936339
O3    O     O_R   0.438430 0.509910 0.376770 -0.625561
O4    O     O_R   0.438360 0.613320 0.376790 -0.592862
C2    C     C_R   0.418618 0.581525 0.337436 0.915651
Zn1   Zn    Zn3+2 0.500040 0.430950 0.499990 1.017263
Zn2   Zn    Zn3+2 0.499960 0.569050 0.500010 1.098794
O5    O     O_R   0.408410 0.448300 0.499980 -0.616252
O6    O     O_R   0.408340 0.551710 0.500000 -0.597076
O7    O     O_R   0.561640 0.386680 0.623210 -0.631519
O8    O     O_R   0.561570 0.490090 0.623230 -0.585447
C3    C     C_R   0.380079 0.500517 0.499764 0.940540
C4    C     C_R   0.581493 0.418514 0.662475 0.916845
C5    C     C_3   0.284669 0.731067 0.972900 -0.148815
C6    C     C_3   0.317042 0.761852 0.028059 -0.131422
H1    H     H_    0.372620 0.769656 0.052710 0.169932
H2    H     H_    0.312131 0.715223 0.949145 0.159945
H3    H     H_    0.232354 0.884311 0.946193 0.149394
C7    C     C_1   0.374041 0.626635 0.248318 -0.116679
C8    C     C_1   0.126160 0.874658 0.751588 -0.161007
C9    C     C_3   0.259586 0.678764 0.028555 -0.157766
C10   C     C_3   0.291159 0.710331 0.082125 0.176637
C11   C     C_3   0.183412 0.740854 0.971853 -0.156139
C12   C     C_3   0.209279 0.792372 0.917769 0.180243
C13   C     C_3   0.215773 0.771642 0.027006 -0.156533
C14   C     C_3   0.240839 0.823977 0.971307 -0.159744
C15   C     C_1   0.336527 0.664592 0.173163 -0.038278
C16   C     C_1   0.163822 0.837545 0.826735 -0.053414
H4    H     H_    0.188322 0.787462 0.050785 0.153984
H5    H     H_    0.127846 0.733023 0.947242 0.153472
H6    H     H_    0.268044 0.618448 0.053598 0.155778
C17   C     C_R   0.754258 0.372212 0.635514 -0.101944
H7    H     H_    0.712376 0.376076 0.647738 0.137878
C18   C     C_R   0.813701 0.305642 0.692229 -0.165359
H8    H     H_    0.816484 0.259604 0.745779 0.179519
C19   C     C_R   0.866434 0.296378 0.676630 -0.173772
H9    H     H_    0.907767 0.241563 0.716617 0.190235
C20   C     C_R   0.862770 0.355434 0.606730 0.364488
C21   C     C_R   0.809353 0.427831 0.556696 -0.050314
C22   C     C_R   0.749995 0.432881 0.565398 0.020454
C23   C     C_R   0.687532 0.498525 0.503509 -0.259381
C24   C     C_R   0.688228 0.563427 0.442244 0.251184
C25   C     C_R   0.752205 0.563020 0.442626 0.284304
C26   C     C_R   0.812268 0.495254 0.498445 -0.237115
C27   C     C_3   0.706740 0.227087 0.027711 -0.168223
C28   C     C_3   0.699053 0.310191 0.970614 -0.228541
H10   H     H_    0.657025 0.360589 0.945878 0.203911
H11   H     H_    0.671438 0.207841 0.051751 0.183624
C29   C     C_1   0.626169 0.373505 0.751425 -0.098066
C30   C     C_1   0.874155 0.125228 0.248701 -0.076612
C31   C     C_3   0.716085 0.208361 0.972775 -0.187234
C32   C     C_3   0.709363 0.290530 0.917360 0.040329
C33   C     C_3   0.802121 0.188930 0.029153 -0.226013
C34   C     C_3   0.792029 0.208300 0.082758 0.009047
C35   C     C_3   0.794155 0.271711 0.972332 0.370070
C36   C     C_3   0.784334 0.289756 0.026324 0.283239
C37   C     C_1   0.663816 0.335775 0.826476 0.062819
C38   C     C_1   0.836918 0.162668 0.173659 0.090546
H12   H     H_    0.844864 0.138989 0.054081 0.212052
H13   H     H_    0.686921 0.175475 0.949063 0.178300
C39   C     C_R   0.244733 0.521777 0.358657 -0.122120
H14   H     H_    0.287608 0.537469 0.348415 0.129006
C40   C     C_R   0.183848 0.518734 0.297328 -0.200137
H15   H     H_    0.180845 0.531041 0.242123 0.167918
C41   C     C_R   0.129958 0.494166 0.310245 -0.170662
H16   H     H_    0.087435 0.484190 0.266437 0.197502
C42   C     C_R   0.134231 0.476735 0.382446 0.370996
C43   C     C_R   0.189252 0.492516 0.438003 -0.037775
C44   C     C_R   0.249282 0.506061 0.430993 0.024704
C45   C     C_R   0.312887 0.503034 0.496867 -0.245233
C46   C     C_R   0.313098 0.500927 0.561206 0.211787
C47   C     C_R   0.248739 0.501183 0.560264 0.200681
C48   C     C_R   0.187472 0.494942 0.500390 -0.264476
O9    O     O_R   0.051700 0.908270 0.500000 -0.613106
O10   O     O_R   0.948250 0.908380 0.499990 -0.618879
C49   C     C_R   0.998574 0.881586 0.496796 0.843767
O11   O     O_R   0.113330 0.938270 0.623230 -0.615347
O12   O     O_R   0.009880 0.938380 0.623210 -0.614322
C50   C     C_R   0.081350 0.918659 0.662475 0.873530
Zn3   Zn    Zn3+2 0.069070 0.999850 0.500010 1.046451
Zn4   Zn    Zn3+2 0.930930 0.000000 0.499990 1.052893
O13   O     O_R   0.051750 0.091470 0.500010 -0.617021
O14   O     O_R   0.948300 0.091580 0.500000 -0.571937
O15   O     O_R   0.990120 0.061470 0.376790 -0.597117
O16   O     O_R   0.886670 0.061580 0.376770 -0.594031
C51   C     C_R   0.998927 0.120507 0.498381 0.920652
C52   C     C_R   0.918719 0.081016 0.337624 0.901863
O17   O     O_R   0.965170 0.626380 0.430470 -0.623129
O18   O     O_R   0.034730 0.556800 0.569600 -0.601266
C53   C     C_R   0.002724 0.620432 0.499650 0.895803
O19   O     O_R   0.873600 0.534810 0.430420 -0.558295
O20   O     O_R   0.943150 0.465220 0.569550 -0.633745
C54   C     C_R   0.879388 0.498062 0.499717 1.005196
Zn5   Zn    Zn3+2 0.953560 0.546470 0.407100 1.092477
Zn6   Zn    Zn3+2 0.046440 0.453550 0.592900 1.072892
O21   O     O_R   0.965270 0.443220 0.430400 -0.588499
O22   O     O_R   0.034830 0.373630 0.569530 -0.625007
O23   O     O_R   0.056850 0.534790 0.430450 -0.641878
O24   O     O_R   0.126400 0.465210 0.569580 -0.588011
C55   C     C_R   0.004452 0.379267 0.500586 1.032372
C56   C     C_R   0.120609 0.497473 0.500114 0.961708
H17   H     H_    0.981688 0.759546 0.592919 0.164497
C57   C     C_R   0.008580 0.878649 0.371275 -0.252078
H18   H     H_    0.997091 0.932631 0.361378 0.181823
C58   C     C_R   0.023266 0.873534 0.318555 0.361907
C59   C     C_R   0.037234 0.804157 0.329913 -0.197908
H19   H     H_    0.050527 0.797924 0.291644 0.189771
C60   C     C_R   0.033331 0.742065 0.390033 -0.190646
H20   H     H_    0.045692 0.689713 0.396827 0.174555
C61   C     C_R   0.015146 0.747678 0.440692 0.113676
C62   C     C_R   0.007206 0.815374 0.434691 0.045010
C63   C     C_R   0.996878 0.818018 0.491760 -0.069546
C64   C     C_R   0.989563 0.757118 0.549334 -0.178863
H21   H     H_    0.986073 0.645944 0.596171 0.168978
C65   C     C_R   0.993502 0.692237 0.552273 -0.165266
C66   C     C_R   0.005591 0.687318 0.498267 -0.062730
C67   C     C_R   0.115721 0.107664 0.646164 -0.123996
H22   H     H_    0.110927 0.055743 0.651724 0.128220
C68   C     C_R   0.178051 0.103143 0.713320 -0.126952
H23   H     H_    0.219640 0.049167 0.768104 0.144956
C69   C     C_R   0.187767 0.168145 0.709030 -0.132561
H24   H     H_    0.237495 0.164844 0.760021 0.154441
C70   C     C_R   0.133763 0.237579 0.639046 -0.052380
H25   H     H_    0.146309 0.286095 0.637852 0.170470
C71   C     C_R   0.067768 0.243188 0.571900 0.129891
C72   C     C_R   0.061081 0.177877 0.573561 0.051864
C73   C     C_R   0.000405 0.184396 0.502133 -0.218975
C74   C     C_R   0.945509 0.253744 0.430703 0.271945
H26   H     H_    0.905945 0.369401 0.377982 0.213686
C75   C     C_R   0.950111 0.316552 0.431927 -0.124191
C76   C     C_R   0.008933 0.311881 0.501918 -0.081906
N1    N     N_R   0.903165 0.337394 0.579090 0.186595
O25   O     O_R   0.868641 0.363468 0.499834 -0.432479
O26   O     O_R   0.964723 0.280575 0.633520 -0.410601
Cl1   Cl    Cl    0.755400 0.648912 0.372342 -0.496130
N2    N     N_R   0.821306 0.335360 0.054165 0.242380
O27   O     O_R   0.808750 0.404721 0.998851 -0.306836
O28   O     O_R   0.866389 0.307544 0.133850 -0.310238
Cl2   Cl    Cl    0.851560 0.302143 0.934748 -0.518039
N3    N     N_R   0.377998 0.500799 0.626161 0.242109
O29   O     O_R   0.441095 0.447016 0.674910 -0.391696
O30   O     O_R   0.373741 0.553485 0.637946 -0.298352
N4    N     N_R   0.093657 0.429705 0.406853 0.187405
O31   O     O_R   0.129563 0.369759 0.483224 -0.470325
O32   O     O_R   0.029601 0.434476 0.349657 -0.382445
N5    N     N_R   0.245765 0.508234 0.620055 0.248947
O33   O     O_R   0.199013 0.567371 0.594344 -0.380364
O34   O     O_R   0.292988 0.458080 0.700319 -0.308464
N6    N     N_R   0.024463 0.938392 0.254221 0.215166
O35   O     O_R   0.010401 0.003236 0.242667 -0.379415
O36   O     O_R   0.038926 0.933393 0.205984 -0.365835
N7    N     N_R   0.886067 0.261976 0.355489 0.204487
O37   O     O_R   0.843640 0.220120 0.359060 -0.349409
O38   O     O_R   0.866522 0.319321 0.282231 -0.306270
N8    N     N_R   0.623676 0.629851 0.379390 0.247329
O39   O     O_R   0.561583 0.628752 0.325639 -0.390627
O40   O     O_R   0.626002 0.690580 0.377885 -0.303338

loop_
_geom_bond_atom_site_label_1
_geom_bond_atom_site_label_2
_geom_bond_distance
_ccdc_geom_bond_type
C25   Cl1   1.775499 S    
C5    H2    1.110145 S    
C41   C42   1.403563 A    
C1    C23   1.432200 S    
C71   C72   1.407103 A    
C58   N6    1.440657 S    
C34   C38   1.445447 S    
C47   C48   1.413488 A    
O13   C51   1.280673 A    
C61   C62   1.406691 A    
O14   C51   1.276944 A    
C73   C74   1.404204 A    
C57   C58   1.403336 A    
C33   H12   1.110356 S    
C35   C36   1.528476 S    
Zn1   O7    1.997925 S    
N2    O28   1.300276 A    
C27   H11   1.110232 S    
C13   C14   1.548483 S    
C39   H14   1.082057 S    
C9    H6    1.110164 S    
C47   N5    1.436611 S    
C9    C11   1.547841 S    
N8    O39   1.300986 A    
N5    O34   1.301096 A    
C11   C13   1.548092 S    
C31   H13   1.110181 S    
N3    O30   1.301113 A    
O4    C2    1.282717 A    
C35   Cl2   1.781586 S    
O7    C4    1.281937 A    
Zn5   O23   2.023239 S    
C32   C35   1.531685 S    
C28   C36   1.537135 S    
C58   C59   1.399870 A    
C5    C6    1.548152 S    
C27   C31   1.553026 S    
C65   C66   1.394283 A    
C39   C44   1.414823 A    
C22   C23   1.405761 A    
C10   C13   1.533674 S    
O5    C3    1.280176 A    
C67   H22   1.080978 S    
C62   C63   1.414375 A    
C39   C40   1.388548 A    
C33   C34   1.541677 S    
C5    C9    1.547921 S    
N5    O33   1.301334 A    
C68   C69   1.388426 A    
C42   C43   1.427524 A    
Zn6   O22   2.021173 S    
C27   C34   1.540671 S    
C59   H19   1.082533 S    
C53   C66   1.436087 S    
C42   N4    1.430548 S    
C44   C45   1.404307 A    
N7    O38   1.301400 A    
H3    C14   1.110236 S    
Zn3   O15   1.993508 S    
C48   C56   1.450261 S    
C6    C14   1.548442 S    
C41   H16   1.082702 S    
C59   C60   1.393760 A    
C46   N3    1.437536 S    
O3    Zn1   1.991926 S    
C49   C63   1.433962 S    
C26   C54   1.447033 S    
O24   C56   1.274704 A    
C51   C73   1.425848 S    
Zn3   O13   2.016606 S    
C31   C33   1.554233 S    
C12   C16   1.447561 S    
C21   C26   1.425520 A    
C33   C35   1.547203 S    
O16   C52   1.285124 A    
C29   C37   1.193306 T    
H17   C64   1.084287 S    
C11   C12   1.533738 S    
N4    O32   1.301659 A    
O10   Zn4   2.016608 S    
C20   C21   1.427968 A    
C57   C62   1.415335 A    
C6    H1    1.110169 S    
C7    C15   1.194954 T    
Zn4   O16   1.996825 S    
C8    C16   1.194991 T    
O19   Zn5   2.026480 S    
O1    C1    1.281125 A    
C18   H8    1.082649 S    
C40   C41   1.387097 A    
O17   Zn5   2.020964 S    
C24   C25   1.385823 A    
C24   N8    1.436727 S    
C19   H9    1.082645 S    
O12   Zn4   1.993507 S    
C28   H10   1.110253 S    
C71   C76   1.419547 A    
Zn2   O8    1.991927 S    
O19   C54   1.270857 A    
C17   H7    1.082090 S    
C68   H23   1.082628 S    
C36   N2    1.457873 S    
C43   C48   1.427437 A    
O20   C54   1.273907 A    
C10   C15   1.447540 S    
O10   C49   1.282085 A    
O9    C49   1.281122 A    
O3    C2    1.282591 A    
C21   C22   1.405183 A    
O8    C4    1.282002 A    
C75   C76   1.396321 A    
C13   H4    1.110150 S    
C6    C10   1.533781 S    
Zn4   O14   2.021617 S    
C34   C36   1.525619 S    
N1    O25   1.301297 A    
N6    O36   1.301595 A    
O17   C53   1.268842 A    
C67   C72   1.417167 A    
C69   C70   1.393887 A    
C72   C73   1.412526 A    
C2    C7    1.416974 S    
C31   C32   1.539414 S    
C70   C71   1.418854 A    
C63   C64   1.393223 A    
C20   N1    1.433170 S    
O15   C52   1.284216 A    
Zn1   O5    2.023082 S    
C27   C28   1.555483 S    
C18   C19   1.387377 A    
O1    Zn1   2.028426 S    
O9    Zn3   2.021617 S    
C25   C26   1.411957 A    
C46   C47   1.388146 A    
O6    C3    1.272314 A    
C30   C52   1.413964 S    
O4    Zn2   1.997927 S    
C64   C65   1.374201 A    
C32   C37   1.445125 S    
Zn5   O21   2.014891 S    
O18   Zn6   2.014894 S    
O20   Zn6   2.023237 S    
O22   C55   1.269158 A    
C3    C45   1.428959 S    
N2    O27   1.300299 A    
N6    O35   1.301785 A    
C28   C32   1.540646 S    
N4    O31   1.300242 A    
C17   C22   1.414302 A    
C40   H15   1.082632 S    
C60   C61   1.413394 A    
O2    C1    1.273110 A    
C69   H24   1.082572 S    
C11   H5    1.110157 S    
C45   C46   1.401036 A    
C19   C20   1.404419 A    
N3    O29   1.300888 A    
C74   N7    1.439430 S    
O11   Zn3   1.996826 S    
O18   C53   1.271323 A    
C4    C29   1.414282 S    
Zn6   O24   2.026484 S    
C8    C50   1.417062 S    
N8    O40   1.301036 A    
C17   C18   1.388565 A    
H26   C75   1.084172 S    
O11   C50   1.285531 A    
C43   C44   1.403839 A    
C67   C68   1.391914 A    
C5    C12   1.533622 S    
C61   C66   1.415838 A    
O12   C50   1.285314 A    
C55   C76   1.446541 S    
O23   C56   1.271713 A    
C30   C38   1.193249 T    
Zn2   O6    2.028423 S    
C23   C24   1.401636 A    
O2    Zn2   2.023085 S    
N1    O26   1.301830 A    
C9    C10   1.533593 S    
N7    O37   1.300434 A    
C60   H20   1.080870 S    
O21   C55   1.277016 A    
H21   C65   1.084215 S    
C57   H18   1.080386 S    
C70   H25   1.078350 S    
C74   C75   1.377029 A    
C12   C14   1.533709 S    
