data_mof_unit_36648.cif
_audit_creation_date              2012-12-10T20:02:19-0500
_audit_creation_method            fapswitch 2.2
_symmetry_space_group_name_H-M    P1
_symmetry_Int_Tables_number       1
_space_group_crystal_system       triclinic
_cell_length_a                    10.692118
_cell_length_b                    14.926075
_cell_length_c                    14.12576
_cell_angle_alpha                 90.021255
_cell_angle_beta                  89.823873
_cell_angle_gamma                 89.813632
_cell_volume                      2254.32644077

loop_
_atom_site_label
_atom_site_type_symbol
_atom_type_description
_atom_site_fract_x
_atom_site_fract_y
_atom_site_fract_z
_atom_type_partial_charge
C1    C     C_R   0.501740 0.327615 0.499976 0.857637
C2    C     C_R   0.516044 0.816121 0.415090 -0.208636
C3    C     C_R   0.516020 0.232092 0.500202 -0.017744
C4    C     C_R   0.522886 0.768308 0.500131 -0.026969
C5    C     C_R   0.586262 0.190880 0.428616 -0.209849
C6    C     C_R   0.553889 0.811847 0.584714 -0.195121
C7    C     C_R   0.605231 0.099288 0.431147 -0.184635
C8    C     C_R   0.572179 0.903394 0.584868 -0.187345
C9    C     C_R   0.551951 0.048866 0.504317 0.115252
C10   C     C_R   0.556848 0.951960 0.501013 0.121227
C11   C     C_R   0.548669 0.424951 0.104623 0.404405
C12   C     C_R   0.504033 0.672608 0.500019 0.860652
C13   C     C_R   0.556504 0.571531 0.895080 0.397205
C14   C     C_R   0.548743 0.428362 0.205015 -0.114037
C15   C     C_R   0.556309 0.568383 0.794825 -0.106046
C16   C     C_R   0.259952 0.502895 0.500111 0.880087
C17   C     C_R   0.739947 0.496734 0.499995 0.876283
C18   C     C_R   0.453392 0.571284 0.203901 -0.004023
C19   C     C_R   0.445683 0.431599 0.796192 -0.008102
C20   C     C_R   0.453705 0.572216 0.104508 -0.318047
C21   C     C_R   0.446764 0.430176 0.895603 -0.326524
C22   C     C_R   0.502562 0.499165 0.053262 0.086068
C23   C     C_R   0.872352 0.494253 0.499884 -0.082914
C24   C     C_R   0.502852 0.500203 0.946684 0.079688
C25   C     C_R   0.220558 0.754452 0.327641 -0.150229
C26   C     C_R   0.747129 0.271091 0.695541 -0.128354
C27   C     C_R   0.178355 0.690725 0.392737 -0.127883
C28   C     C_R   0.810589 0.318225 0.624675 -0.125109
C29   C     C_R   0.119224 0.612466 0.360927 0.136492
C30   C     C_R   0.876534 0.396601 0.647179 0.130944
C31   C     C_R   0.104759 0.598257 0.263234 -0.132295
C32   C     C_R   0.878579 0.426874 0.741336 -0.148916
C33   C     C_R   0.148809 0.661556 0.198364 -0.148469
C34   C     C_R   0.127460 0.504431 0.500599 -0.080050
C35   C     C_R   0.813830 0.380059 0.811762 -0.115788
C36   C     C_R   0.206047 0.739857 0.230565 -0.152733
C37   C     C_R   0.748092 0.302265 0.788873 -0.107531
C38   C     C_R   0.932731 0.543177 0.429419 -0.243528
C39   C     C_R   0.067018 0.455194 0.571227 -0.251068
C40   C     C_3   0.554086 0.270827 0.082502 0.045452
C41   C     C_3   0.656627 0.211858 0.125396 -0.318357
C42   C     C_3   0.605627 0.120681 0.155123 -0.993784
C43   C     C_3   0.568477 0.724170 0.922092 0.053604
C44   C     C_3   0.669368 0.783686 0.878190 -0.313908
C45   C     C_R   0.938577 0.449526 0.571778 -0.003995
C46   C     C_3   0.620544 0.878511 0.861245 -1.000490
C47   C     C_R   0.060838 0.550395 0.429833 -0.005660
C48   C     C_R   0.482788 0.090711 0.576410 -0.184922
C49   C     C_R   0.531463 0.907945 0.415685 -0.182369
C50   C     C_R   0.465679 0.182371 0.574701 -0.216476
H1    H     H_    0.239197 0.789161 0.180329 0.125055
H2    H     H_    0.402571 0.375094 0.932491 0.156667
H3    H     H_    0.263040 0.815734 0.352475 0.138568
H4    H     H_    0.696688 0.210635 0.678055 0.142164
H5    H     H_    0.188327 0.703553 0.467811 0.110132
H6    H     H_    0.807608 0.294203 0.552349 0.109646
H7    H     H_    0.058228 0.538705 0.237538 0.130341
H8    H     H_    0.928045 0.487634 0.759682 0.130551
H9    H     H_    0.137667 0.650266 0.123176 0.132610
H10   H     H_    0.814079 0.404314 0.883991 0.161041
H11   H     H_    0.879392 0.579892 0.376790 0.166532
H12   H     H_    0.697869 0.266205 0.843448 0.139653
H13   H     H_    0.120049 0.419486 0.624757 0.155385
H14   H     H_    0.438722 0.052346 0.632315 0.132002
H15   H     H_    0.518069 0.944767 0.350404 0.131958
H16   H     H_    0.411746 0.214240 0.630474 0.141165
H17   H     H_    0.495386 0.783083 0.348693 0.153393
H18   H     H_    0.627747 0.229586 0.371810 0.145598
H19   H     H_    0.563375 0.775473 0.650660 0.152038
H20   H     H_    0.519300 0.237778 0.017228 0.154707
H21   H     H_    0.472403 0.275053 0.131828 0.121523
H22   H     H_    0.732493 0.201901 0.072401 0.226314
H23   H     H_    0.659841 0.067679 0.375649 0.136664
H24   H     H_    0.697274 0.245472 0.188276 0.208489
H25   H     H_    0.531524 0.128966 0.209763 0.268672
H26   H     H_    0.682340 0.079477 0.185386 0.263131
H27   H     H_    0.566398 0.084941 0.092996 0.264265
H28   H     H_    0.537687 0.754860 0.989986 0.160806
H29   H     H_    0.484486 0.723045 0.875195 0.109642
H30   H     H_    0.751264 0.786751 0.926360 0.234223
H31   H     H_    0.700811 0.754659 0.809708 0.205387
H32   H     H_    0.537903 0.877079 0.813823 0.259646
H33   H     H_    0.694760 0.919445 0.827378 0.265661
H34   H     H_    0.594410 0.936781 0.650742 0.133934
H35   H     H_    0.593724 0.910376 0.929464 0.266672
H36   H     H_    0.588883 0.373967 0.245281 0.137906
H37   H     H_    0.601932 0.620493 0.754574 0.135352
H38   H     H_    0.416458 0.628004 0.242419 0.159628
H39   H     H_    0.401534 0.377595 0.757840 0.132277
H40   H     H_    0.414757 0.629469 0.067836 0.151572
N1    N     N_R   0.500000 0.499980 0.252470 -0.109714
N2    N     N_R   0.500000 0.500020 0.747530 -0.102578
O1    O     O_R   0.500010 0.369070 0.579480 -0.620320
O2    O     O_3   0.619581 0.638669 0.942912 -0.643081
O3    O     O_R   0.499990 0.630930 0.420520 -0.623930
O4    O     O_R   0.500010 0.369060 0.420520 -0.629418
O5    O     O_R   0.499990 0.630940 0.579480 -0.632891
O6    O     O_R   0.316760 0.500010 0.579480 -0.625071
O7    O     O_R   0.683240 0.499990 0.420520 -0.622298
O8    O     O_R   0.316760 0.500000 0.420520 -0.604918
O9    O     O_R   0.683240 0.500000 0.579480 -0.602326
O10   O     O_3   0.605106 0.354738 0.055971 -0.654845
Zn1   Zn    Zn3+2 0.500000 0.500010 0.606140 0.948216
Zn2   Zn    Zn3+2 0.500000 0.499990 0.393860 0.949111

loop_
_geom_bond_atom_site_label_1
_geom_bond_atom_site_label_2
_ccdc_geom_bond_type
C6    H19   S    
C23   C45   A    
C40   H21   S    
C27   C29   A    
C41   C42   S    
C30   C45   S    
C32   H8    S    
N1    Zn2   S    
O1    Zn1   S    
C37   H12   S    
C28   H6    S    
C43   O2    S    
C7    H23   S    
C43   H28   S    
C42   H25   S    
C17   C23   S    
C40   H20   S    
C29   C47   S    
C18   N1    A    
C35   C37   A    
C25   H3    S    
C11   C14   A    
C27   H5    S    
C48   H14   S    
C43   H29   S    
O6    Zn1   S    
O8    Zn2   S    
C33   C36   A    
C17   O9    A    
C19   N2    A    
N2    Zn1   S    
C16   C34   S    
C15   N2    A    
C46   H32   S    
C31   C33   A    
C12   O3    A    
C4    C12   S    
C9    C10   S    
C39   C45   A    
C38   H11   S    
C48   C50   A    
O7    Zn2   S    
C41   H24   S    
C33   H9    S    
C5    H18   S    
C26   H4    S    
C3    C50   A    
C44   C46   S    
C34   C39   A    
C32   C35   A    
C44   H30   S    
C14   H36   S    
C4    C6    A    
C44   H31   S    
C5    C7    A    
C16   O8    A    
C6    C8    A    
C20   H40   S    
C18   H38   S    
C46   H35   S    
C13   C24   A    
C35   H10   S    
C1    C3    S    
C2    C4    A    
C43   C44   S    
C19   H39   S    
C2    C49   A    
C50   H16   S    
C38   C47   A    
C17   O7    A    
C12   O5    A    
O5    Zn1   S    
C36   H1    S    
C49   H15   S    
C9    C48   A    
C41   H22   S    
C8    C10   A    
C40   C41   S    
C20   C22   A    
C2    H17   S    
C13   C15   A    
C22   C24   S    
O3    Zn2   S    
C15   H37   S    
O9    Zn1   S    
C7    C9    A    
C19   C21   A    
C8    H34   S    
C26   C28   A    
C3    C5    A    
C26   C37   A    
C25   C27   A    
C23   C38   A    
C39   H13   S    
C11   C22   A    
C42   H26   S    
C13   O2    S    
C31   H7    S    
O4    Zn2   S    
C29   C31   A    
C30   C32   A    
C16   O6    A    
C1    O4    A    
C28   C30   A    
C11   O10   S    
C18   C20   A    
C14   N1    A    
C25   C36   A    
C40   O10   S    
C46   H33   S    
C42   H27   S    
C1    O1    A    
C21   C24   A    
C34   C47   A    
C10   C49   A    
C21   H2    S    
