data_mof_unit_32976.cif
_audit_creation_date              2012-12-10T17:02:05-0500
_audit_creation_method            fapswitch 2.2
_symmetry_space_group_name_H-M    P1
_symmetry_Int_Tables_number       1
_space_group_crystal_system       triclinic
_cell_length_a                    10.796564
_cell_length_b                    11.035848
_cell_length_c                    9.853533
_cell_angle_alpha                 111.186423
_cell_angle_beta                  99.050084
_cell_angle_gamma                 91.173094
_cell_volume                      1077.24127847

loop_
_atom_site_label
_atom_site_type_symbol
_atom_type_description
_atom_site_fract_x
_atom_site_fract_y
_atom_site_fract_z
_atom_type_partial_charge
C1    C     C_R   0.491550 0.254050 0.440286 0.911893
C2    C     C_R   0.070635 0.627160 0.523117 -0.189096
C3    C     C_R   0.128399 0.508377 0.497607 -0.158214
C4    C     C_R   0.058469 0.390662 0.468433 0.295895
C5    C     C_R   0.929135 0.391167 0.472081 0.351567
C6    C     C_R   0.872494 0.509562 0.506488 -0.195431
C7    C     C_2   0.488793 0.114608 0.406178 -0.346012
C8    C     C_2   0.506932 0.070737 0.516200 -0.124800
C9    C     C_2   0.511588 0.887541 0.596003 0.240899
C10   C     C_2   0.504447 0.931808 0.485803 -0.170486
C11   C     C_2   0.510642 0.510845 0.081811 -0.077941
C12   C     C_R   0.262685 0.503728 0.500400 0.998837
C13   C     C_2   0.488889 0.489688 0.918367 -0.067266
C14   C     C_R   0.508118 0.746401 0.560095 0.871044
C15   C     C_R   0.737706 0.503172 0.501188 0.984152
C16   C     C_R   0.134037 0.742338 0.524787 0.372388
C17   C     C_R   0.083585 0.863786 0.581330 0.357029
C18   C     C_R   0.966419 0.868248 0.622652 -0.292173
C19   C     C_R   0.894951 0.753707 0.603575 0.340950
C20   C     C_R   0.944318 0.630333 0.544802 -0.068870
Cu1   Cu    Cu3+1 0.521920 0.521810 0.644910 0.982657
Cu2   Cu    Cu3+1 0.478080 0.478190 0.355090 0.991845
H1    H     H_    0.472079 0.047865 0.291400 0.159489
H2    H     H_    0.414874 0.417241 0.844593 0.176165
H3    H     H_    0.584124 0.583867 0.155752 0.159342
H4    H     H_    0.625113 0.622012 0.935204 0.200099
H5    H     H_    0.375880 0.376895 0.064516 0.208070
H6    H     H_    0.929519 0.962400 0.667708 0.169629
H7    H     H_    0.495849 0.865240 0.371487 0.132743
H8    H     H_    0.523149 0.138473 0.630473 0.232749
N1    N     N_2   0.445130 0.445430 0.137370 -0.286438
N2    N     N_2   0.554930 0.554500 0.862630 -0.291922
O1    O     O_R   0.511700 0.332330 0.577400 -0.594896
O2    O     O_R   0.474680 0.295500 0.332650 -0.562276
O3    O     O_R   0.338160 0.518420 0.622400 -0.592757
O4    O     O_R   0.301140 0.481590 0.377650 -0.554383
O5    O     O_R   0.525320 0.704500 0.667350 -0.570491
O6    O     O_R   0.488300 0.667670 0.422600 -0.592278
O7    O     O_R   0.698860 0.518410 0.622350 -0.559404
O8    O     O_R   0.661840 0.481580 0.377600 -0.580714
O9    O     O_3   0.119343 0.276886 0.433445 -0.738586
H9    H     H_    0.057092 0.200289 0.399030 0.372844
O10   O     O_3   0.239503 0.735534 0.460429 -0.618264
C21   C     C_3   0.200366 0.721398 0.311382 -0.291766
H10   H     H_    0.136146 0.631442 0.249158 0.169374
H11   H     H_    0.284274 0.712226 0.257491 0.196537
H12   H     H_    0.154552 0.808395 0.302863 0.170598
O11   O     O_3   0.145392 0.979937 0.596163 -0.719462
H13   H     H_    0.231665 0.964641 0.575236 0.370064
O12   O     O_3   0.780869 0.762400 0.650836 -0.743411
H14   H     H_    0.765856 0.855407 0.698823 0.323199
O13   O     O_3   0.856160 0.275369 0.435892 -0.593599
C22   C     C_3   0.859956 0.245858 0.564401 -0.323722
H15   H     H_    0.801609 0.153056 0.534896 0.198022
H16   H     H_    0.819983 0.322390 0.650855 0.175006
H17   H     H_    0.957270 0.231853 0.610008 0.195013
O14   O     O_3   0.521683 0.975092 0.740465 -0.745883
H18   H     H_    0.521849 0.926785 0.807759 0.342437

loop_
_geom_bond_atom_site_label_1
_geom_bond_atom_site_label_2
_ccdc_geom_bond_type
C9    C14   S    
C17   O11   S    
C5    O13   S    
H4    N2    S    
Cu1   O3    S    
C12   O4    A    
C2    C16   A    
C9    C10   D    
C13   N2    D    
C9    O14   S    
C19   C20   A    
Cu1   O7    S    
C21   H12   S    
O10   C21   S    
C8    H8    S    
C17   C18   A    
C11   N1    D    
C7    C8    D    
Cu1   Cu2   S    
O13   C22   S    
C14   O5    A    
C11   C13   S    
C16   O10   S    
C15   O7    A    
O14   H18   S    
C7    H1    S    
C10   H7    S    
O11   H13   S    
C21   H11   S    
C1    O2    A    
C18   H6    S    
C2    C3    A    
C22   H16   S    
C5    C6    A    
Cu2   O2    S    
Cu1   N2    S    
C15   O8    A    
Cu1   O1    S    
C4    O9    S    
C11   H3    S    
H5    N1    S    
C14   O6    A    
Cu2   O6    S    
C19   O12   S    
O9    H9    S    
C6    C20   A    
C21   H10   S    
C13   H2    S    
Cu1   O5    S    
C8    C10   S    
C18   C19   A    
Cu2   N1    S    
C22   H17   S    
C1    O1    A    
Cu2   O8    S    
C16   C17   A    
C3    C12   S    
O12   H14   S    
C6    C15   S    
C1    C7    S    
C2    C20   A    
Cu2   O4    S    
C3    C4    A    
C22   H15   S    
C4    C5    A    
C12   O3    A    
