data_mof_unit_24436.cif
_audit_creation_date              2012-12-10T17:18:34-0500
_audit_creation_method            fapswitch 2.2
_symmetry_space_group_name_H-M    P1
_symmetry_Int_Tables_number       1
_space_group_crystal_system       triclinic
_cell_length_a                    25.858094
_cell_length_b                    25.916557
_cell_length_c                    25.900512
_cell_angle_alpha                 88.565697
_cell_angle_beta                  88.254304
_cell_angle_gamma                 89.769791
_cell_volume                      17343.7160952

loop_
_atom_site_label
_atom_site_type_symbol
_atom_type_description
_atom_site_fract_x
_atom_site_fract_y
_atom_site_fract_z
_atom_type_partial_charge
Br1   Br    Br    0.600844 0.714086 0.868316 -0.357813
Br2   Br    Br    0.404974 0.621535 0.749177 -0.414393
Br3   Br    Br    0.794109 0.367241 0.595559 -0.395946
Br4   Br    Br    0.205284 0.631898 0.401756 -0.402454
Br5   Br    Br    0.410658 0.382022 0.726904 -0.422096
Br6   Br    Br    0.588370 0.628796 0.207965 -0.396964
Br7   Br    Br    0.384197 0.248461 0.388982 -0.452950
Br8   Br    Br    0.818857 0.655889 0.610228 -0.524017
Br9   Br    Br    0.632882 0.580101 0.321028 -0.409235
Br10  Br    Br    0.237679 0.405500 0.625144 -0.452666
Br11  Br    Br    0.671949 0.415993 0.638914 -0.464523
Br12  Br    Br    0.395541 0.283770 0.132246 -0.375469
Br13  Br    Br    0.324483 0.582785 0.363221 -0.436115
Br14  Br    Br    0.367680 0.394839 0.207042 -0.477845
Br15  Br    Br    0.634611 0.604602 0.795851 -0.463728
Br16  Br    Br    0.122042 0.588414 0.754052 -0.408394
Br17  Br    Br    0.791123 0.393288 0.370574 -0.485847
Br18  Br    Br    0.107715 0.217997 0.868393 -0.387435
Br19  Br    Br    0.896194 0.787818 0.133168 -0.389971
Br20  Br    Br    0.615773 0.245107 0.893624 -0.434997
Br21  Br    Br    0.314779 0.656408 0.125168 -0.523402
Br22  Br    Br    0.878277 0.294722 0.357716 -0.444185
Br23  Br    Br    0.656096 0.653223 0.427784 -0.394683
Br24  Br    Br    0.131960 0.682837 0.660106 -0.529889
Br25  Br    Br    0.364217 0.170748 0.085389 -0.356913
Br26  Br    Br    0.635870 0.828686 0.915244 -0.318838
Br27  Br    Br    0.102050 0.876060 0.238735 -0.418344
Br28  Br    Br    0.872099 0.154861 0.812316 -0.528969
Br29  Br    Br    0.798110 0.865803 0.097431 -0.404850
Br30  Br    Br    0.202250 0.135390 0.902331 -0.402554
Br31  Br    Br    0.901200 0.762347 0.619436 -0.379608
Br32  Br    Br    0.125988 0.336635 0.316920 -0.527675
Br33  Br    Br    0.373370 0.729654 0.889890 -0.458222
Br34  Br    Br    0.384065 0.253910 0.606213 -0.449217
Br35  Br    Br    0.615885 0.252509 0.111190 -0.454745
Br36  Br    Br    0.139935 0.333952 0.916163 -0.348859
Br37  Br    Br    0.867475 0.675986 0.084710 -0.368347
Br38  Br    Br    0.123203 0.084905 0.304144 -0.424294
Br39  Br    Br    0.852020 0.918352 0.656140 -0.333072
Br40  Br    Br    0.175159 0.834240 0.125984 -0.535949
Br41  Br    Br    0.724406 0.377452 0.882726 -0.469046
Br42  Br    Br    0.173595 0.916923 0.638361 -0.450455
Br43  Br    Br    0.824602 0.083301 0.363307 -0.430218
Br44  Br    Br    0.701627 0.634795 0.904989 -0.376142
Br45  Br    Br    0.411650 0.704313 0.378958 -0.355508
Br46  Br    Br    0.300521 0.364064 0.099189 -0.406170
Br47  Br    Br    0.867034 0.895980 0.206052 -0.467641
Br48  Br    Br    0.133002 0.105550 0.794547 -0.470821
Br49  Br    Br    0.733693 0.379202 0.111896 -0.443289
Br50  Br    Br    0.173784 0.830151 0.872350 -0.537365
Br51  Br    Br    0.687579 0.109289 0.650557 -0.435375
Br52  Br    Br    0.287632 0.900540 0.366661 -0.439072
Br53  Br    Br    0.324642 0.083891 0.863528 -0.457004
Br54  Br    Br    0.677506 0.916485 0.135235 -0.443630
Br55  Br    Br    0.086298 0.719983 0.879083 -0.386482
Br56  Br    Br    0.598459 0.245558 0.618979 -0.397742
Br57  Br    Br    0.875304 0.159001 0.186867 -0.535768
Br58  Br    Br    0.799558 0.879599 0.858695 -0.513030
Br59  Br    Br    0.199933 0.110062 0.135594 -0.497591
Br60  Br    Br    0.889258 0.287300 0.634508 -0.388673
Br61  Br    Br    0.109806 0.707468 0.363020 -0.393433
Br62  Br    Br    0.633518 0.102130 0.294202 -0.471797
Br63  Br    Br    0.365108 0.897618 0.703778 -0.458662
Br64  Br    Br    0.870173 0.656105 0.313766 -0.532255
Br65  Br    Br    0.127615 0.343929 0.687478 -0.513261
Br66  Br    Br    0.354764 0.914623 0.157456 -0.431707
Br67  Br    Br    0.364981 0.672807 0.584335 -0.315460
Br68  Br    Br    0.667058 0.089092 0.862713 -0.431063
Br69  Br    Br    0.117209 0.215240 0.135382 -0.435547
Br70  Br    Br    0.905672 0.866434 0.782666 -0.400020
Br71  Br    Br    0.608141 0.210194 0.364463 -0.377688
Br72  Br    Br    0.394779 0.788089 0.632687 -0.365218
Br73  Br    Br    0.267058 0.121089 0.388133 -0.446231
Br74  Br    Br    0.698089 0.855279 0.622963 -0.516801
Br75  Br    Br    0.404292 0.249074 0.881085 -0.398408
Br76  Br    Br    0.589579 0.794171 0.121002 -0.366226
Br77  Br    Br    0.865084 0.172761 0.584272 -0.357623
Br78  Br    Br    0.631173 0.322217 0.414757 -0.363782
Br79  Br    Br    0.130110 0.819733 0.415763 -0.355708
Br80  Br    Br    0.607805 0.873832 0.729401 -0.410944
Br81  Br    Br    0.380184 0.137984 0.291831 -0.420697
Br82  Br    Br    0.295518 0.866614 0.594306 -0.372614
Br83  Br    Br    0.704110 0.132770 0.402208 -0.399268
Br84  Br    Br    0.403713 0.875326 0.278600 -0.401071
Br85  Br    Br    0.587160 0.117713 0.759137 -0.367438
Br86  Br    Br    0.689407 0.850428 0.375890 -0.505957
Br87  Br    Br    0.276222 0.122908 0.617476 -0.466371
Br88  Br    Br    0.307194 0.620793 0.848662 -0.521137
Br89  Br    Br    0.618254 0.363718 0.210677 -0.418921
Br90  Br    Br    0.879015 0.413319 0.201007 -0.436547
Br91  Br    Br    0.180410 0.415978 0.133119 -0.420879
Br92  Br    Br    0.825168 0.583452 0.862590 -0.457033
Br93  Br    Br    0.865940 0.396646 0.704045 -0.467649
Br94  Br    Br    0.133141 0.600231 0.293452 -0.468807
Br95  Br    Br    0.716965 0.597213 0.130471 -0.439683
Br96  Br    Br    0.321415 0.368248 0.834512 -0.477221
C1    C     C_R   0.749006 0.609680 0.752903 0.896434
C2    C     C_R   0.390103 0.749394 0.748404 0.909836
C3    C     C_R   0.150600 0.048182 0.752529 0.298129
C4    C     C_R   0.766603 0.356569 0.048890 0.311281
C5    C     C_R   0.177832 0.814942 0.945670 0.263787
C6    C     C_R   0.731996 0.049812 0.657377 0.304142
C7    C     C_R   0.240608 0.954022 0.345107 0.323002
C8    C     C_R   0.333427 0.043009 0.803129 0.322721
C9    C     C_R   0.667408 0.957149 0.195485 0.331178
C10   C     C_R   0.041421 0.767508 0.843891 0.293457
C11   C     C_R   0.947378 0.178619 0.185925 0.235761
C12   C     C_R   0.769595 0.946965 0.849206 0.293695
C13   C     C_R   0.609523 0.746980 0.246177 0.884322
C14   C     C_R   0.240402 0.049162 0.147496 0.292870
C15   C     C_R   0.953286 0.303012 0.664925 0.305337
C16   C     C_R   0.047184 0.690213 0.331188 0.313841
C17   C     C_R   0.651780 0.047146 0.249955 0.306325
C18   C     C_R   0.347922 0.952911 0.748334 0.302760
C19   C     C_R   0.942486 0.674496 0.314310 0.239297
C20   C     C_R   0.057229 0.321027 0.682984 0.244676
C21   C     C_R   0.292446 0.955177 0.156936 0.338377
C22   C     C_R   0.726425 0.045651 0.849861 0.317972
C23   C     C_R   0.053113 0.195536 0.169272 0.260069
C24   C     C_R   0.390406 0.254420 0.753594 0.916034
C25   C     C_R   0.951000 0.816266 0.812651 0.275049
C26   C     C_R   0.547216 0.191369 0.330506 0.306934
C27   C     C_R   0.453944 0.809549 0.668504 0.305437
C28   C     C_R   0.234040 0.143329 0.451199 0.311108
C29   C     C_R   0.720659 0.848078 0.552013 0.263006
C30   C     C_R   0.453919 0.209836 0.841348 0.342851
C31   C     C_R   0.545201 0.819591 0.175882 0.350222
C32   C     C_R   0.803755 0.165070 0.545392 0.351696
C33   C     C_R   0.189086 0.829958 0.457181 0.359626
C34   C     C_R   0.551777 0.837081 0.700539 0.264021
C35   C     C_R   0.609946 0.751026 0.751028 0.889178
C36   C     C_R   0.446335 0.167510 0.305410 0.279019
C37   C     C_R   0.248114 0.847529 0.543049 0.348473
C38   C     C_R   0.748088 0.150241 0.456817 0.347960
C39   C     C_R   0.456135 0.849076 0.231901 0.336911
C40   C     C_R   0.541397 0.161811 0.797951 0.360497
C41   C     C_R   0.717091 0.846590 0.444288 0.267983
C42   C     C_R   0.237822 0.143823 0.558065 0.310248
C43   C     C_R   0.311667 0.550095 0.828765 0.280318
C44   C     C_R   0.823103 0.457585 0.179850 0.352151
C45   C     C_R   0.169172 0.457155 0.192902 0.340520
C46   C     C_R   0.389994 0.249721 0.248527 0.924051
C47   C     C_R   0.834066 0.542822 0.802141 0.323575
C48   C     C_R   0.848436 0.452435 0.747864 0.299881
C49   C     C_R   0.152346 0.546560 0.248024 0.303586
C50   C     C_R   0.763915 0.544589 0.154187 0.325819
C51   C     C_R   0.315307 0.442091 0.824269 0.262483
C52   C     C_R   0.517071 0.649950 0.851998 -0.144573
C53   C     C_R   0.479634 0.346625 0.142668 -0.133638
C54   C     C_R   0.739835 0.612462 0.482371 -0.224790
C55   C     C_R   0.381628 0.320726 0.520397 -0.187577
C56   C     C_R   0.474562 0.630780 0.326141 -0.221143
C57   C     C_R   0.609747 0.245504 0.746056 0.905103
C58   C     C_R   0.524811 0.326680 0.627659 -0.182867
C59   C     C_R   0.298928 0.615504 0.526237 -0.221182
C60   C     C_R   0.689627 0.379126 0.479582 -0.243884
C61   C     C_R   0.527903 0.360975 0.157519 -0.159256
C62   C     C_R   0.472177 0.632913 0.830425 -0.198869
C63   C     C_R   0.721543 0.388548 0.519926 -0.166109
C64   C     C_R   0.269310 0.607676 0.483733 -0.158730
C65   C     C_R   0.482483 0.352886 0.648607 -0.224452
C66   C     C_R   0.513918 0.615157 0.291965 -0.168523
C67   C     C_R   0.381398 0.319973 0.466967 -0.204034
C68   C     C_R   0.390298 0.753584 0.254063 0.877860
C69   C     C_R   0.770205 0.614280 0.525432 -0.174284
C70   C     C_R   0.695174 0.520035 0.383982 -0.238158
C71   C     C_R   0.163349 0.482597 0.644961 -0.181877
C72   C     C_R   0.615876 0.479578 0.704169 -0.210800
C73   C     C_R   0.382855 0.519297 0.299991 -0.228753
C74   C     C_R   0.391001 0.475715 0.271348 -0.190879
C75   C     C_R   0.608821 0.523424 0.732748 -0.183993
C76   C     C_R   0.141629 0.525484 0.668393 -0.187284
C77   C     C_R   0.725989 0.477397 0.393588 -0.228557
C78   C     C_R   0.018403 0.162049 0.865780 -0.146004
C79   C     C_R   0.246478 0.747996 0.390578 0.924063
C80   C     C_R   0.983808 0.846504 0.143835 -0.161350
C81   C     C_R   0.618349 0.179255 0.980034 -0.185147
C82   C     C_R   0.353362 0.650662 0.025054 -0.165526
C83   C     C_R   0.972703 0.342297 0.357714 -0.150504
C84   C     C_R   0.033093 0.680743 0.622198 -0.189369
C85   C     C_R   0.300652 0.116764 0.022705 -0.240936
C86   C     C_R   0.701493 0.884491 0.975208 -0.230420
C87   C     C_R   0.030003 0.862625 0.162965 -0.200987
C88   C     C_R   0.967938 0.151262 0.855458 -0.190492
C89   C     C_R   0.732113 0.891819 0.017118 -0.178296
C90   C     C_R   0.752967 0.251357 0.609391 0.927948
C91   C     C_R   0.269542 0.109579 0.981234 -0.167173
C92   C     C_R   0.981897 0.693112 0.615189 -0.173112
C93   C     C_R   0.025032 0.349024 0.350614 -0.180784
C94   C     C_R   0.363984 0.663023 0.973941 -0.166597
C95   C     C_R   0.618367 0.180540 0.033445 -0.217164
C96   C     C_R   0.211174 0.386921 0.972366 -0.215209
C97   C     C_R   0.808866 0.620455 0.018642 -0.233693
C98   C     C_R   0.177347 0.017538 0.371766 -0.209068
C99   C     C_R   0.776329 0.981767 0.612268 -0.234014
C100  C     C_R   0.141985 0.844803 0.026286 -0.173717
C101  C     C_R   0.747947 0.749784 0.390432 0.878114
C102  C     C_R   0.787564 0.396242 0.965907 -0.194234
C103  C     C_R   0.116110 0.980004 0.702998 -0.213065
C104  C     C_R   0.882856 0.020376 0.299114 -0.196717
C105  C     C_R   0.775534 0.611291 0.979364 -0.142728
C106  C     C_R   0.240817 0.392707 0.015237 -0.155823
C107  C     C_R   0.890818 0.976749 0.270404 -0.191980
C108  C     C_R   0.108598 0.023837 0.731505 -0.191091
C109  C     C_R   0.789598 0.396369 0.019273 -0.209224
C110  C     C_R   0.141355 0.843386 0.973357 -0.181837
C111  C     C_R   0.745148 0.025366 0.611477 -0.218517
C112  C     C_R   0.251482 0.390233 0.246634 0.906945
C113  C     C_R   0.255178 0.246108 0.609863 0.900218
C114  C     C_R   0.210970 0.977413 0.383998 -0.188788
C115  C     C_R   0.382194 0.020134 0.799252 -0.211679
C116  C     C_R   0.618657 0.980137 0.198183 -0.226189
C117  C     C_R   0.015719 0.802187 0.876306 -0.195285
C118  C     C_R   0.975938 0.149414 0.150887 -0.180133
C119  C     C_R   0.765230 0.973952 0.894848 -0.206135
C120  C     C_R   0.254276 0.021672 0.103734 -0.212645
C121  C     C_R   0.981425 0.338332 0.634450 -0.147097
C122  C     C_R   0.019843 0.652172 0.358835 -0.151768
C123  C     C_R   0.610342 0.023346 0.227391 -0.190100
C124  C     C_R   0.746528 0.248153 0.390586 0.943477
C125  C     C_R   0.389876 0.976855 0.769903 -0.177039
C126  C     C_R   0.968578 0.643745 0.349762 -0.189374
C127  C     C_R   0.032221 0.348058 0.644097 -0.196740
C128  C     C_R   0.282738 0.976622 0.108316 -0.206851
C129  C     C_R   0.742316 0.021988 0.895468 -0.224222
C130  C     C_R   0.027677 0.158621 0.141762 -0.149673
C131  C     C_R   0.972717 0.829060 0.859204 -0.185455
C132  C     C_R   0.520601 0.151896 0.356793 -0.132559
C133  C     C_R   0.481038 0.849638 0.643465 -0.142846
C134  C     C_R   0.211522 0.103286 0.480856 -0.206569
C135  C     C_R   0.253012 0.751353 0.609385 0.905271
C136  C     C_R   0.713904 0.893504 0.523147 -0.197509
C137  C     C_R   0.475871 0.166850 0.866073 -0.198384
C138  C     C_R   0.523175 0.868261 0.167428 -0.233581
C139  C     C_R   0.799967 0.116132 0.524968 -0.242164
C140  C     C_R   0.188466 0.877951 0.480140 -0.239394
C141  C     C_R   0.528372 0.864730 0.660848 -0.181536
C142  C     C_R   0.471586 0.138919 0.343118 -0.158206
C143  C     C_R   0.221320 0.887929 0.519654 -0.150954
C144  C     C_R   0.769717 0.108284 0.482945 -0.174837
C145  C     C_R   0.481171 0.884221 0.197969 -0.178859
C146  C     C_R   0.254356 0.245135 0.390270 0.888926
C147  C     C_R   0.517321 0.141015 0.842698 -0.212927
C148  C     C_R   0.712688 0.892868 0.469988 -0.177046
C149  C     C_R   0.213433 0.103486 0.534212 -0.191232
C150  C     C_R   0.344204 0.521398 0.860143 -0.192693
C151  C     C_R   0.827372 0.479999 0.130488 -0.210973
C152  C     C_R   0.120364 0.480057 0.194832 -0.199276
C153  C     C_R   0.882767 0.519836 0.798459 -0.216553
C154  C     C_R   0.890387 0.476397 0.769391 -0.193819
C155  C     C_R   0.111407 0.522946 0.224390 -0.193795
C156  C     C_R   0.794354 0.520106 0.116590 -0.193538
C157  C     C_R   0.749930 0.751634 0.609974 0.928321
C158  C     C_R   0.345816 0.468425 0.858082 -0.157828
C159  C     C_R   0.473207 0.708500 0.772423 -0.021563
C160  C     C_R   0.528154 0.289261 0.221417 -0.017635
C161  C     C_R   0.757119 0.707810 0.527376 -0.020163
C162  C     C_R   0.306760 0.262490 0.470677 -0.013546
C163  C     C_R   0.523747 0.703839 0.261465 -0.044203
C164  C     C_R   0.476427 0.289238 0.719585 -0.017183
C165  C     C_R   0.253508 0.700501 0.475606 -0.037947
C166  C     C_R   0.744204 0.297191 0.524352 -0.042065
C167  C     C_R   0.475135 0.280632 0.212161 -0.044301
C168  C     C_R   0.248661 0.109756 0.753266 0.916845
C169  C     C_R   0.524675 0.718477 0.785440 -0.039809
C170  C     C_R   0.723351 0.290859 0.475077 -0.015006
C171  C     C_R   0.273408 0.706538 0.525431 -0.033839
C172  C     C_R   0.526342 0.271100 0.704819 -0.040914
C173  C     C_R   0.474411 0.715016 0.282830 -0.045313
C174  C     C_R   0.307303 0.263091 0.525673 -0.014367
C175  C     C_R   0.739230 0.706149 0.476879 -0.039549
C176  C     C_R   0.746635 0.472515 0.301629 -0.023024
C177  C     C_R   0.213172 0.526134 0.727193 -0.051597
C178  C     C_R   0.701713 0.526192 0.747343 -0.025043
C179  C     C_R   0.751301 0.890286 0.246821 0.912927
C180  C     C_R   0.298952 0.473508 0.252961 -0.029665
C181  C     C_R   0.293087 0.523867 0.272454 -0.035244
C182  C     C_R   0.706877 0.475784 0.727905 -0.033915
C183  C     C_R   0.225732 0.475611 0.713766 -0.029589
C184  C     C_R   0.727206 0.523257 0.294422 -0.032012
C185  C     C_R   0.970167 0.215925 0.784248 -0.015994
C186  C     C_R   0.027400 0.790396 0.225483 -0.035720
C187  C     C_R   0.693099 0.237849 0.029414 -0.017455
C188  C     C_R   0.290980 0.723621 0.973508 -0.026580
C189  C     C_R   0.027460 0.283244 0.283652 -0.007961
C190  C     C_R   0.749065 0.109375 0.751338 0.908411
C191  C     C_R   0.976491 0.732937 0.699836 -0.041077
C192  C     C_R   0.253521 0.202370 0.975621 -0.038078
C193  C     C_R   0.746934 0.798904 0.024408 -0.041392
C194  C     C_R   0.975440 0.781004 0.213686 -0.044914
C195  C     C_R   0.024154 0.222390 0.791171 -0.039927
C196  C     C_R   0.726704 0.793405 0.974693 -0.026050
C197  C     C_R   0.273822 0.207412 0.025308 -0.019128
C198  C     C_R   0.030839 0.724875 0.704991 0.000247
C199  C     C_R   0.972471 0.279727 0.287917 -0.025078
C200  C     C_R   0.285514 0.717484 0.027970 -0.019692
C201  C     C_R   0.252367 0.890789 0.250457 0.927904
C202  C     C_R   0.692564 0.237080 0.974414 -0.032944
C203  C     C_R   0.249349 0.298983 0.024263 -0.036452
C204  C     C_R   0.754242 0.702814 0.975644 -0.052709
C205  C     C_R   0.239664 0.974646 0.293782 -0.024808
C206  C     C_R   0.746544 0.027065 0.705570 -0.023601
C207  C     C_R   0.214586 0.782539 0.972314 -0.001875
C208  C     C_R   0.752389 0.310005 0.025247 -0.018369
C209  C     C_R   0.201188 0.026443 0.747690 -0.026453
C210  C     C_R   0.798418 0.973800 0.253387 -0.032970
C211  C     C_R   0.775446 0.708649 0.024783 -0.031117
C212  C     C_R   0.748940 0.109654 0.252951 0.909127
C213  C     C_R   0.229645 0.294272 0.974280 -0.027381
C214  C     C_R   0.792645 0.024099 0.272944 -0.036423
C215  C     C_R   0.206581 0.976017 0.728267 -0.030827
C216  C     C_R   0.750990 0.309666 0.970029 -0.009444
C217  C     C_R   0.215071 0.783810 0.027568 -0.018188
C218  C     C_R   0.766271 0.976339 0.706234 -0.034820
C219  C     C_R   0.218299 0.024236 0.286338 -0.014699
C220  C     C_R   0.297295 0.974139 0.753857 -0.026221
C221  C     C_R   0.702481 0.025927 0.245596 -0.033267
C222  C     C_R   0.972888 0.776030 0.783034 -0.025908
C223  C     C_R   0.747084 0.609138 0.248720 0.907876
C224  C     C_R   0.250802 0.890381 0.747268 0.897675
C225  C     C_R   0.027374 0.221170 0.211426 -0.027550
C226  C     C_R   0.741081 0.024319 0.800931 -0.014745
C227  C     C_R   0.267760 0.976035 0.201972 -0.015758
C228  C     C_R   0.029588 0.283755 0.715638 -0.017114
C229  C     C_R   0.970036 0.713321 0.283380 -0.018707
C230  C     C_R   0.708389 0.975815 0.225803 -0.035973
C231  C     C_R   0.291783 0.024270 0.773720 -0.033902
C232  C     C_R   0.024425 0.718459 0.289665 -0.029146
C233  C     C_R   0.975451 0.277858 0.709072 -0.041382
C234  C     C_R   0.249298 0.027614 0.197388 -0.017302
C235  C     C_R   0.245738 0.109697 0.247345 0.948313
C236  C     C_R   0.756732 0.971568 0.801046 -0.010954
C237  C     C_R   0.972691 0.216302 0.216762 -0.009660
C238  C     C_R   0.023469 0.760225 0.792968 -0.050008
C239  C     C_R   0.471728 0.210597 0.279162 -0.016702
C240  C     C_R   0.527631 0.791735 0.722726 -0.033868
C241  C     C_R   0.249177 0.190377 0.530030 -0.012312
C242  C     C_R   0.731636 0.800316 0.471671 -0.000309
C243  C     C_R   0.523868 0.209326 0.776819 -0.028803
C244  C     C_R   0.475314 0.798069 0.236870 -0.043020
C245  C     C_R   0.753347 0.201004 0.475597 -0.040521
C246  C     C_R   0.752551 0.890506 0.750705 0.947130
C247  C     C_R   0.244340 0.796757 0.524157 -0.047644
C248  C     C_R   0.475009 0.782859 0.711854 -0.039766
C249  C     C_R   0.525099 0.218520 0.287789 -0.044331
C250  C     C_R   0.223168 0.790189 0.475129 -0.035489
C251  C     C_R   0.773485 0.206926 0.525300 -0.025256
C252  C     C_R   0.525531 0.787131 0.216845 -0.042059
C253  C     C_R   0.474396 0.227379 0.792531 -0.046183
C254  C     C_R   0.734575 0.801018 0.526843 -0.018105
C255  C     C_R   0.247812 0.190030 0.474811 -0.016658
C256  C     C_R   0.283722 0.470199 0.788206 -0.017379
C257  C     C_R   0.110035 0.248846 0.752558 0.917498
C258  C     C_R   0.763129 0.524902 0.205813 -0.025759
C259  C     C_R   0.203184 0.525660 0.244149 -0.031355
C260  C     C_R   0.797820 0.473873 0.753092 -0.027149
C261  C     C_R   0.792429 0.524097 0.772781 -0.031543
C262  C     C_R   0.209492 0.475724 0.224105 -0.036817
C263  C     C_R   0.784313 0.475372 0.214986 -0.016913
C264  C     C_R   0.281992 0.525493 0.790574 0.006944
C265  C     C_R   0.446746 0.746062 0.742755 -0.074315
C266  C     C_R   0.553652 0.253853 0.254839 -0.083143
C267  C     C_R   0.749989 0.754580 0.553866 -0.095106
C268  C     C_R   0.889872 0.750740 0.247857 0.919920
C269  C     C_R   0.268390 0.232925 0.445813 -0.131038
C270  C     C_R   0.552643 0.743735 0.237546 -0.097121
C271  C     C_R   0.447551 0.261367 0.758747 -0.102959
C272  C     C_R   0.236935 0.744719 0.447630 -0.089141
C273  C     C_R   0.761284 0.253251 0.552253 -0.090175
C274  C     C_R   0.446394 0.245832 0.245404 -0.083338
C275  C     C_R   0.553403 0.755291 0.754946 -0.077200
C276  C     C_R   0.736994 0.245249 0.447636 -0.093383
C277  C     C_R   0.261302 0.752966 0.552218 -0.089953
C278  C     C_R   0.552946 0.238071 0.739293 -0.103736
C279  C     C_R   0.109940 0.248393 0.248286 0.919842
C280  C     C_R   0.447000 0.758288 0.262508 -0.098533
C281  C     C_R   0.269849 0.233916 0.554633 -0.133599
C282  C     C_R   0.737977 0.752437 0.446772 -0.102632
C283  C     C_R   0.765938 0.446149 0.258516 -0.112395
C284  C     C_R   0.248235 0.553153 0.756994 -0.094180
C285  C     C_R   0.746482 0.552710 0.761767 -0.084070
C286  C     C_R   0.254786 0.447049 0.236997 -0.090160
C287  C     C_R   0.247093 0.552356 0.260750 -0.085364
C288  C     C_R   0.753137 0.447305 0.738446 -0.078915
C289  C     C_R   0.255003 0.445975 0.749166 -0.093331
C290  C     C_R   0.890514 0.749120 0.746884 0.868337
C291  C     C_R   0.741168 0.551776 0.247965 -0.098475
C292  C     C_R   0.946028 0.247198 0.746027 -0.095209
C293  C     C_R   0.053196 0.753538 0.256586 -0.089084
C294  C     C_R   0.731593 0.267236 0.054240 -0.130911
C295  C     C_R   0.251710 0.750788 0.946142 -0.107073
C296  C     C_R   0.054056 0.251053 0.247762 -0.101119
C297  C     C_R   0.947243 0.753568 0.742315 -0.079511
C298  C     C_R   0.239252 0.247319 0.947589 -0.090150
C299  C     C_R   0.762668 0.754397 0.052322 -0.089043
C300  C     C_R   0.945911 0.746769 0.246805 -0.088016
C301  C     C_R   0.109886 0.750446 0.251507 0.902267
C302  C     C_R   0.053738 0.252725 0.754085 -0.096039
C303  C     C_R   0.738273 0.747010 0.947705 -0.092970
C304  C     C_R   0.262576 0.253783 0.052465 -0.088923
C305  C     C_R   0.054113 0.742214 0.750617 -0.085158
C306  C     C_R   0.945941 0.249016 0.252027 -0.101651
C307  C     C_R   0.250577 0.751008 0.054356 -0.106922
C308  C     C_R   0.730058 0.266219 0.945385 -0.131672
C309  C     C_R   0.258144 0.947878 0.249958 -0.096542
C310  C     C_R   0.742026 0.052946 0.752623 -0.089832
C311  C     C_R   0.245879 0.052894 0.762463 -0.078122
C312  C     C_R   0.889891 0.250884 0.747722 0.917895
C313  C     C_R   0.754084 0.947232 0.237809 -0.085847
C314  C     C_R   0.746689 0.052570 0.261393 -0.090226
C315  C     C_R   0.252756 0.947511 0.739006 -0.085133
C316  C     C_R   0.761789 0.946539 0.753185 -0.098996
C317  C     C_R   0.234584 0.053723 0.242339 -0.114254
C318  C     C_R   0.109705 0.749668 0.751481 0.903474
C319  C     C_R   0.249898 0.390284 0.748619 0.938320
C320  C     C_R   0.890099 0.251136 0.251180 0.925060
C321  C     C_R   0.247272 0.248860 0.890560 0.931393
C322  C     C_R   0.753258 0.751624 0.109389 0.924146
C323  C     C_R   0.251670 0.747991 0.890035 0.930226
C324  C     C_R   0.745623 0.254912 0.109750 0.882574
C325  C     C_R   0.746996 0.748729 0.890602 0.908979
C326  C     C_R   0.253191 0.251501 0.109432 0.941912
C327  C     C_R   0.744749 0.253965 0.890133 0.875156
C328  C     C_R   0.250423 0.750482 0.110075 0.926740
C329  C     C_R   0.544217 0.691541 0.829396 0.319626
C330  C     C_R   0.249021 0.609592 0.252853 0.913809
C331  C     C_R   0.453532 0.306554 0.168537 0.308182
C332  C     C_R   0.722007 0.658060 0.459377 0.308839
C333  C     C_R   0.349936 0.286723 0.549119 0.330987
C334  C     C_R   0.454606 0.680837 0.322148 0.354020
C335  C     C_R   0.547233 0.286028 0.655384 0.338257
C336  C     C_R   0.303309 0.664686 0.545974 0.336305
C337  C     C_R   0.689949 0.331123 0.456728 0.368510
C338  C     C_R   0.553103 0.332874 0.195662 0.279034
C339  C     C_R   0.450632 0.660852 0.789832 0.301264
C340  C     C_R   0.747699 0.347922 0.543576 0.351806
C341  C     C_R   0.751031 0.390306 0.747007 0.918748
C342  C     C_R   0.248390 0.649645 0.456961 0.336885
C343  C     C_R   0.458247 0.334926 0.694486 0.346941
C344  C     C_R   0.540097 0.651940 0.260604 0.341328
C345  C     C_R   0.349534 0.285151 0.443106 0.326680
C346  C     C_R   0.777394 0.661033 0.549795 0.273684
C347  C     C_R   0.694234 0.542188 0.334508 0.366578
C348  C     C_R   0.204867 0.456757 0.667455 0.289245
C349  C     C_R   0.664591 0.456731 0.699542 0.320260
C350  C     C_R   0.334203 0.542538 0.302613 0.330585
C351  C     C_R   0.349512 0.451749 0.249144 0.306314
C352  C     C_R   0.249303 0.609513 0.750946 0.915126
C353  C     C_R   0.651204 0.547765 0.753036 0.302874
C354  C     C_R   0.165707 0.547135 0.710095 0.282405
C355  C     C_R   0.749107 0.451404 0.352561 0.311605
C356  C     C_R   0.046050 0.198182 0.835846 0.302320
C357  C     C_R   0.955760 0.807102 0.169099 0.314916
C358  C     C_R   0.650019 0.213110 0.951082 0.342548
C359  C     C_R   0.316833 0.678650 0.053366 0.236987
C360  C     C_R   0.946392 0.307121 0.328825 0.260003
C361  C     C_R   0.058984 0.698697 0.664466 0.274834
C362  C     C_R   0.303970 0.165030 0.044634 0.364168
C363  C     C_R   0.754785 0.390154 0.253222 0.948973
C364  C     C_R   0.696963 0.835648 0.954690 0.366233
C365  C     C_R   0.051524 0.836198 0.204419 0.288921
C366  C     C_R   0.942666 0.178198 0.816630 0.239001
C367  C     C_R   0.753202 0.849494 0.043150 0.350461
C368  C     C_R   0.247354 0.151907 0.956355 0.347216
C369  C     C_R   0.954711 0.722391 0.651149 0.278232
C370  C     C_R   0.053300 0.319485 0.315719 0.237329
C371  C     C_R   0.335726 0.701132 0.948786 0.288288
C372  C     C_R   0.650251 0.215484 0.057086 0.329397
C373  C     C_R   0.202966 0.338048 0.953212 0.338276
C374  C     C_R   0.610025 0.250375 0.251360 0.924003
C375  C     C_R   0.808791 0.668044 0.042411 0.360249
C376  C     C_R   0.180411 0.041188 0.322900 0.360855
C377  C     C_R   0.788916 0.958106 0.659183 0.356099
C378  C     C_R   0.178885 0.817531 0.053748 0.233883
C379  C     C_R   0.762737 0.356153 0.942042 0.312691
C380  C     C_R   0.164846 0.957117 0.699159 0.322348
C381  C     C_R   0.834000 0.043056 0.302585 0.338905
C382  C     C_R   0.749375 0.652326 0.956433 0.345707
C383  C     C_R   0.257887 0.349390 0.042754 0.331815
C384  C     C_R   0.849096 0.952408 0.248863 0.300394
H1    H     H_    0.546831 0.898648 0.643478 0.208236
H2    H     H_    0.464811 0.870009 0.610680 0.214695
H3    H     H_    0.821964 0.084097 0.540749 0.195633
H4    H     H_    0.161627 0.907585 0.467797 0.183855
H5    H     H_    0.459974 0.152711 0.902882 0.201098
H6    H     H_    0.538453 0.893652 0.136893 0.198759
H7    H     H_    0.200809 0.067872 0.462965 0.172139
H8    H     H_    0.704731 0.929266 0.542211 0.189311
H9    H     H_    0.793041 0.532495 0.076724 0.166603
H10   H     H_    0.370318 0.447413 0.884576 0.199978
H11   H     H_    0.928865 0.460043 0.765347 0.197314
H12   H     H_    0.452504 0.106802 0.363247 0.209366
H13   H     H_    0.072731 0.539000 0.227441 0.197113
H14   H     H_    0.089459 0.465458 0.172026 0.201685
H15   H     H_    0.914613 0.534568 0.819897 0.203775
H16   H     H_    0.367039 0.540225 0.888537 0.179112
H17   H     H_    0.855618 0.465673 0.102627 0.180044
H18   H     H_    0.052819 0.376269 0.619780 0.189789
H19   H     H_    0.948273 0.614200 0.372621 0.195632
H20   H     H_    0.797429 0.431251 0.944148 0.193476
H21   H     H_    0.114117 0.869231 0.046138 0.183351
H22   H     H_    0.957282 0.120658 0.128236 0.193001
H23   H     H_    0.702759 0.928098 0.449118 0.196464
H24   H     H_    0.029351 0.808608 0.914737 0.187858
H25   H     H_    0.248094 0.431107 0.028832 0.207236
H26   H     H_    0.772417 0.572701 0.964743 0.204442
H27   H     H_    0.037884 0.630277 0.389641 0.203622
H28   H     H_    0.964061 0.357893 0.601778 0.204014
H29   H     H_    0.835827 0.590589 0.029989 0.180825
H30   H     H_    0.192360 0.420457 0.955517 0.198470
H31   H     H_    0.956086 0.859582 0.882251 0.198069
H32   H     H_    0.047645 0.138339 0.110928 0.200768
H33   H     H_    0.113120 0.866900 0.953434 0.183085
H34   H     H_    0.203913 0.068388 0.555976 0.193580
H35   H     H_    0.800870 0.431594 0.037266 0.173117
H36   H     H_    0.264807 0.071096 0.966774 0.203327
H37   H     H_    0.737448 0.930483 0.030897 0.201115
H38   H     H_    0.244750 0.036301 0.065765 0.185368
H39   H     H_    0.776914 0.956271 0.930973 0.188953
H40   H     H_    0.376517 0.621115 0.043719 0.196558
H41   H     H_    0.586961 0.159721 0.961918 0.196161
H42   H     H_    0.428395 0.960650 0.765598 0.200273
H43   H     H_    0.571780 0.039626 0.230781 0.193923
H44   H     H_    0.680062 0.916900 0.959395 0.197156
H45   H     H_    0.466964 0.923402 0.193901 0.209495
H46   H     H_    0.323252 0.084589 0.037267 0.191914
H47   H     H_    0.587344 0.965642 0.175914 0.180187
H48   H     H_    0.414071 0.034918 0.820623 0.193554
H49   H     H_    0.586819 0.162232 0.055318 0.198664
H50   H     H_    0.396703 0.644761 0.954573 0.185890
H51   H     H_    0.733029 0.038977 0.932424 0.186395
H52   H     H_    0.299418 0.959639 0.073814 0.192552
H53   H     H_    0.070148 0.040305 0.735302 0.199546
H54   H     H_    0.929373 0.960498 0.266738 0.201272
H55   H     H_    0.053822 0.659864 0.592280 0.192092
H56   H     H_    0.530933 0.104995 0.859534 0.203412
H57   H     H_    0.952648 0.363663 0.387725 0.200811
H58   H     H_    0.792340 0.967439 0.576243 0.185759
H59   H     H_    0.149277 0.030666 0.400406 0.177727
H60   H     H_    0.947621 0.122685 0.879558 0.194412
H61   H     H_    0.048561 0.896748 0.146157 0.196725
H62   H     H_    0.914520 0.035365 0.320637 0.203058
H63   H     H_    0.084188 0.965079 0.681797 0.205211
H64   H     H_    0.968644 0.866318 0.110191 0.201474
H65   H     H_    0.035695 0.143082 0.898821 0.203503
H66   H     H_    0.212956 0.963704 0.423465 0.168450
H67   H     H_    0.223793 0.926723 0.533903 0.203812
H68   H     H_    0.733519 0.041814 0.574812 0.184879
H69   H     H_    0.044153 0.376619 0.374265 0.193854
H70   H     H_    0.964757 0.683899 0.578899 0.199781
H71   H     H_    0.546625 0.393507 0.137754 0.207478
H72   H     H_    0.454750 0.597131 0.844540 0.186257
H73   H     H_    0.412895 0.338467 0.445180 0.196125
H74   H     H_    0.784708 0.578618 0.542317 0.195297
H75   H     H_    0.468262 0.387199 0.628917 0.190547
H76   H     H_    0.525192 0.574933 0.291266 0.207943
H77   H     H_    0.724044 0.427273 0.534362 0.200476
H78   H     H_    0.765178 0.069527 0.469103 0.198619
H79   H     H_    0.264723 0.568876 0.470024 0.209698
H80   H     H_    0.532018 0.629349 0.885275 0.206809
H81   H     H_    0.462586 0.366609 0.110079 0.210641
H82   H     H_    0.320336 0.583372 0.542633 0.200568
H83   H     H_    0.664030 0.409464 0.466190 0.188339
H84   H     H_    0.459219 0.603966 0.355336 0.196137
H85   H     H_    0.540905 0.338701 0.590213 0.198246
H86   H     H_    0.727581 0.575421 0.469151 0.171291
H87   H     H_    0.413138 0.339977 0.538600 0.184100
H88   H     H_    0.105699 0.541466 0.654580 0.191369
H89   H     H_    0.537969 0.131078 0.388701 0.214355
H90   H     H_    0.730045 0.463362 0.432792 0.178609
H91   H     H_    0.429445 0.459083 0.268452 0.193821
H92   H     H_    0.570403 0.539819 0.737302 0.199449
H93   H     H_    0.583554 0.464521 0.683638 0.195708
H94   H     H_    0.414164 0.533510 0.322347 0.177318
H95   H     H_    0.670336 0.534596 0.414716 0.202152
H96   H     H_    0.146672 0.468266 0.610279 0.190010
O1    O     O_3   0.750000 0.750000 0.750000 -0.523964
O2    O     O_R   0.280360 0.365810 0.280360 -0.614115
O3    O     O_R   0.780360 0.780360 0.634190 -0.570166
O4    O     O_R   0.219640 0.780360 0.365810 -0.595998
O5    O     O_R   0.780360 0.219640 0.634190 -0.596871
O6    O     O_R   0.780360 0.780360 0.365810 -0.604724
O7    O     O_R   0.219640 0.219640 0.634190 -0.613727
O8    O     O_R   0.719640 0.634190 0.280360 -0.600621
O9    O     O_R   0.280360 0.365810 0.719640 -0.566020
O10   O     O_R   0.280360 0.634190 0.280360 -0.595825
O11   O     O_R   0.719640 0.365810 0.719640 -0.600423
O12   O     O_R   0.280360 0.634190 0.719640 -0.592460
O13   O     O_R   0.719640 0.365810 0.280360 -0.585455
O14   O     O_R   0.634190 0.280360 0.280360 -0.569604
O15   O     O_R   0.365810 0.719640 0.719640 -0.565517
O16   O     O_R   0.634190 0.719640 0.280360 -0.585667
O17   O     O_3   0.250000 0.250000 0.250000 -0.518660
O18   O     O_R   0.365810 0.280360 0.719640 -0.587651
O19   O     O_R   0.634190 0.719640 0.719640 -0.612103
O20   O     O_R   0.365810 0.280360 0.280360 -0.585193
O21   O     O_R   0.634190 0.280360 0.719640 -0.619438
O22   O     O_R   0.365810 0.719640 0.280360 -0.616102
O23   O     O_R   0.280360 0.719640 0.365810 -0.577843
O24   O     O_R   0.719640 0.280360 0.634190 -0.580817
O25   O     O_R   0.719640 0.719640 0.365810 -0.594392
O26   O     O_R   0.280360 0.280360 0.634190 -0.590317
O27   O     O_R   0.719640 0.280360 0.365810 -0.592912
O28   O     O_3   0.750000 0.750000 0.250000 -0.521276
O29   O     O_R   0.280360 0.719640 0.634190 -0.603532
O30   O     O_R   0.280360 0.280360 0.365810 -0.614508
O31   O     O_R   0.719640 0.719640 0.634190 -0.615503
O32   O     O_R   0.219640 0.134190 0.719640 -0.595685
O33   O     O_R   0.780360 0.865810 0.280360 -0.599844
O34   O     O_R   0.719640 0.134190 0.780360 -0.582920
O35   O     O_R   0.280360 0.865810 0.219640 -0.593495
O36   O     O_R   0.780360 0.134190 0.280360 -0.581467
O37   O     O_R   0.219640 0.865810 0.719640 -0.596871
O38   O     O_R   0.280360 0.134190 0.219640 -0.584945
O39   O     O_3   0.250000 0.250000 0.750000 -0.517456
O40   O     O_R   0.719640 0.865810 0.780360 -0.580020
O41   O     O_R   0.219640 0.865810 0.280360 -0.587801
O42   O     O_R   0.780360 0.134190 0.719640 -0.597846
O43   O     O_R   0.719640 0.865810 0.219640 -0.596785
O44   O     O_R   0.280360 0.134190 0.780360 -0.603118
O45   O     O_R   0.780360 0.865810 0.719640 -0.584324
O46   O     O_R   0.219640 0.134190 0.280360 -0.598547
O47   O     O_R   0.280360 0.865810 0.780360 -0.602652
O48   O     O_R   0.719640 0.134190 0.219640 -0.616997
O49   O     O_R   0.134190 0.280360 0.780360 -0.565662
O50   O     O_3   0.250000 0.750000 0.250000 -0.520500
O51   O     O_R   0.865810 0.719640 0.219640 -0.565945
O52   O     O_R   0.134190 0.219640 0.280360 -0.598969
O53   O     O_R   0.865810 0.780360 0.719640 -0.557130
O54   O     O_R   0.134190 0.719640 0.219640 -0.606564
O55   O     O_R   0.865810 0.280360 0.780360 -0.608106
O56   O     O_R   0.134190 0.780360 0.719640 -0.605402
O57   O     O_R   0.865810 0.219640 0.280360 -0.576476
O58   O     O_R   0.865810 0.719640 0.780360 -0.623168
O59   O     O_R   0.134190 0.280360 0.219640 -0.576688
O60   O     O_R   0.865810 0.780360 0.280360 -0.605907
O61   O     O_3   0.750000 0.250000 0.750000 -0.519496
O62   O     O_R   0.134190 0.219640 0.719640 -0.605702
O63   O     O_R   0.865810 0.280360 0.219640 -0.599368
O64   O     O_R   0.134190 0.719640 0.780360 -0.562588
O65   O     O_R   0.865810 0.219640 0.719640 -0.564446
O66   O     O_R   0.134190 0.780360 0.280360 -0.556723
O67   O     O_R   0.280360 0.219640 0.865810 -0.576252
O68   O     O_R   0.719640 0.780360 0.134190 -0.577315
O69   O     O_R   0.219640 0.719640 0.865810 -0.575279
O70   O     O_R   0.780360 0.280360 0.134190 -0.605218
O71   O     O_R   0.719640 0.780360 0.865810 -0.588136
O72   O     O_3   0.250000 0.750000 0.750000 -0.519673
O73   O     O_R   0.280360 0.219640 0.134190 -0.594985
O74   O     O_R   0.780360 0.280360 0.865810 -0.612781
O75   O     O_R   0.219640 0.719640 0.134190 -0.593158
O76   O     O_R   0.719640 0.219640 0.134190 -0.616701
O77   O     O_R   0.280360 0.780360 0.865810 -0.583193
O78   O     O_R   0.780360 0.719640 0.134190 -0.594456
O79   O     O_R   0.219640 0.280360 0.865810 -0.592649
O80   O     O_R   0.280360 0.780360 0.134190 -0.596878
O81   O     O_R   0.719640 0.219640 0.865810 -0.601273
O82   O     O_R   0.219640 0.280360 0.134190 -0.572839
O83   O     O_3   0.750000 0.250000 0.250000 -0.518151
O84   O     O_R   0.780360 0.719640 0.865810 -0.599718
O85   O     O_R   0.219640 0.634190 0.219640 -0.597860
O86   O     O_R   0.780360 0.365810 0.780360 -0.594739
O87   O     O_R   0.219640 0.634190 0.780360 -0.573771
O88   O     O_R   0.780360 0.365810 0.219640 -0.598198
O89   O     O_R   0.780360 0.634190 0.780360 -0.599908
O90   O     O_R   0.219640 0.365810 0.219640 -0.585721
O91   O     O_R   0.780360 0.634190 0.219640 -0.596272
O92   O     O_R   0.219640 0.365810 0.780360 -0.595881
O93   O     O_R   0.634190 0.780360 0.780360 -0.560119
O94   O     O_R   0.719640 0.634190 0.719640 -0.605727
O95   O     O_R   0.365810 0.219640 0.219640 -0.569979
O96   O     O_R   0.634190 0.219640 0.780360 -0.581965
O97   O     O_R   0.365810 0.780360 0.219640 -0.599715
O98   O     O_R   0.634190 0.219640 0.219640 -0.586782
O99   O     O_R   0.365810 0.780360 0.780360 -0.583277
O100  O     O_R   0.634190 0.780360 0.219640 -0.616906
O101  O     O_R   0.365810 0.219640 0.780360 -0.616614
O102  O     O_R   0.780360 0.219640 0.365810 -0.576984
O103  O     O_R   0.219640 0.780360 0.634190 -0.584373
O104  O     O_R   0.219640 0.219640 0.365810 -0.602635
Zn1   Zn    Zn3+2 0.706630 0.793370 0.793370 1.139131
Zn2   Zn    Zn3+2 0.293370 0.793370 0.793370 1.109177
Zn3   Zn    Zn3+2 0.793370 0.206630 0.706630 1.124239
Zn4   Zn    Zn3+2 0.206630 0.793370 0.293370 1.136787
Zn5   Zn    Zn3+2 0.293370 0.206630 0.793370 1.111718
Zn6   Zn    Zn3+2 0.706630 0.793370 0.206630 1.113743
Zn7   Zn    Zn3+2 0.206630 0.206630 0.293370 1.107280
Zn8   Zn    Zn3+2 0.793370 0.793370 0.706630 1.140121
Zn9   Zn    Zn3+2 0.793370 0.706630 0.206630 1.122865
Zn10  Zn    Zn3+2 0.206630 0.293370 0.793370 1.131950
Zn11  Zn    Zn3+2 0.793370 0.293370 0.793370 1.079976
Zn12  Zn    Zn3+2 0.293370 0.206630 0.206630 1.137317
Zn13  Zn    Zn3+2 0.206630 0.706630 0.206630 1.095924
Zn14  Zn    Zn3+2 0.206630 0.293370 0.206630 1.129492
Zn15  Zn    Zn3+2 0.793370 0.706630 0.793370 1.096364
Zn16  Zn    Zn3+2 0.206630 0.706630 0.793370 1.140167
Zn17  Zn    Zn3+2 0.793370 0.293370 0.206630 1.105303
Zn18  Zn    Zn3+2 0.706630 0.293370 0.293370 1.138747
Zn19  Zn    Zn3+2 0.293370 0.706630 0.706630 1.131450
Zn20  Zn    Zn3+2 0.293370 0.293370 0.293370 1.090707
Zn21  Zn    Zn3+2 0.706630 0.706630 0.706630 1.082011
Zn22  Zn    Zn3+2 0.293370 0.293370 0.706630 1.124563
Zn23  Zn    Zn3+2 0.793370 0.793370 0.293370 1.084761
Zn24  Zn    Zn3+2 0.706630 0.706630 0.293370 1.114388
Zn25  Zn    Zn3+2 0.706630 0.293370 0.706630 1.108968
Zn26  Zn    Zn3+2 0.293370 0.706630 0.293370 1.113592
Zn27  Zn    Zn3+2 0.206630 0.206630 0.706630 1.085695
Zn28  Zn    Zn3+2 0.293370 0.793370 0.206630 1.107972
Zn29  Zn    Zn3+2 0.706630 0.206630 0.793370 1.112462
Zn30  Zn    Zn3+2 0.206630 0.793370 0.706630 1.108342
Zn31  Zn    Zn3+2 0.793370 0.206630 0.293370 1.129494
Zn32  Zn    Zn3+2 0.706630 0.206630 0.206630 1.086694

loop_
_geom_bond_atom_site_label_1
_geom_bond_atom_site_label_2
_ccdc_geom_bond_type
C221  C230  A    
C10   C238  A    
Br26  C364  S    
C301  O66   A    
O10   Zn26  S    
C81   C95   A    
C3    C108  A    
C117  H24   S    
C44   C151  A    
C92   C369  A    
Br71  C26   S    
O83   Zn31  S    
C250  C272  A    
C94   C371  A    
C29   C136  A    
C202  C308  A    
C221  C314  A    
C85   C91   A    
C327  O74   A    
O87   Zn16  S    
C151  C156  A    
C146  O30   A    
C210  C214  A    
C112  C286  S    
C374  O98   A    
O17   Zn14  S    
C243  C278  A    
C110  H33   S    
C142  H12   S    
O78   Zn9   S    
C113  O26   A    
C210  C313  A    
C65   H75   S    
O98   Zn32  S    
C96   C373  A    
C99   C377  A    
C45   C152  A    
C97   C105  A    
C60   C337  A    
C30   C137  A    
C235  O46   A    
C50   C258  A    
O93   Zn1   S    
O62   Zn27  S    
Br7   C345  S    
C145  H45   S    
C133  H2    S    
C150  C158  A    
C198  C361  A    
C13   O16   A    
O56   Zn30  S    
C138  C145  A    
C245  C276  A    
C135  O103  A    
O14   Zn18  S    
C181  C287  A    
C148  H23   S    
O75   Zn13  S    
C166  C340  A    
C229  C300  A    
C57   O21   A    
C30   C253  A    
C62   H72   S    
C22   C129  A    
Br64  C19   S    
C13   C270  S    
O85   Zn13  S    
C324  O76   A    
C32   C251  A    
C215  C315  A    
Br95  C50   S    
O55   Zn11  S    
C71   C348  A    
C320  O63   A    
C222  C238  A    
O6    Zn23  S    
C328  O80   A    
C134  H7    S    
C86   H44   S    
C213  C298  A    
C169  C275  A    
C58   H85   S    
C87   H61   S    
C106  H25   S    
C225  C237  A    
C74   C351  A    
C78   C88   A    
C268  C300  S    
C219  C376  A    
C322  O78   A    
C220  C231  A    
Br89  C338  S    
Br69  C23   S    
C251  C273  A    
C86   C89   A    
C216  C308  A    
C90   C273  S    
C14   C120  A    
C120  C128  A    
C166  C273  A    
C132  C142  A    
C100  H21   S    
C6    C206  A    
C122  H27   S    
Br5   C343  S    
C85   C362  A    
O3    Zn8   S    
C244  C280  A    
O44   Zn5   S    
C189  C199  A    
C18   C220  A    
O39   Zn22  S    
C341  O11   A    
C201  O41   A    
C185  C195  A    
C172  C335  A    
C123  H43   S    
Br22  C360  S    
C206  C310  A    
C62   C339  A    
O1    Zn21  S    
C290  O58   A    
C325  O84   A    
C98   C376  A    
C103  C108  A    
C330  O10   A    
C186  C365  A    
C157  O3    A    
C127  H18   S    
C133  C141  A    
C289  C319  S    
C88   C366  A    
C165  C272  A    
O54   Zn13  S    
C211  C375  A    
C208  C216  A    
Br96  C51   S    
C47   C153  A    
Br54  C9    S    
C46   C274  S    
O17   Zn12  S    
C155  H13   S    
C77   C355  A    
Br90  C44   S    
C215  C380  A    
C293  C301  S    
C25   C131  A    
C46   O20   A    
C95   C372  A    
Br75  C30   S    
Br4   C342  S    
C39   C145  A    
C20   C127  A    
C135  O29   A    
C71   H96   S    
O4    Zn4   S    
C323  O69   A    
O81   Zn29  S    
Br82  C37   S    
C68   C280  S    
Br41  C379  S    
O103  Zn30  S    
O67   Zn5   S    
C3    C209  A    
Br12  C331  S    
C18   C125  A    
C100  C110  A    
C2    O15   A    
C12   C119  A    
C307  C328  S    
C246  O45   A    
C237  C306  A    
Br50  C5    S    
C1    C285  S    
Br25  C362  S    
C239  C274  A    
C69   H74   S    
C42   C149  A    
Br76  C31   S    
C16   C122  A    
C326  O82   A    
C312  O55   A    
C102  H20   S    
C290  C297  S    
O27   Zn18  S    
C320  O57   A    
O60   Zn23  S    
C72   C349  A    
Br39  C377  S    
C65   C343  A    
C199  C360  A    
Br52  C7    S    
C146  O104  A    
C242  C254  A    
O41   Zn4   S    
C81   H41   S    
Br36  C373  S    
Br32  C370  S    
C139  C144  A    
C19   C126  A    
C88   H60   S    
Br30  C368  S    
C2    O99   A    
C245  C251  A    
O45   Zn8   S    
C322  O68   A    
C189  C370  A    
C118  H22   S    
C161  C346  A    
O83   Zn17  S    
Br51  C6    S    
O50   Zn4   S    
C149  H34   S    
C153  C154  A    
C9    C116  A    
C318  O56   A    
C73   H94   S    
C55   C333  A    
C176  C283  A    
O30   Zn20  S    
C31   C252  A    
O59   Zn14  S    
C183  C348  A    
C241  C255  A    
C77   H90   S    
Br17  C355  S    
C201  C309  S    
Br2   C339  S    
O22   Zn26  S    
C352  O87   A    
C212  C314  S    
C243  C253  A    
O101  Zn5   S    
C85   H46   S    
C194  C300  A    
C35   O93   A    
C36   C142  A    
C238  C305  A    
Br68  C22   S    
C45   C262  A    
C153  H15   S    
O7    Zn27  S    
C186  C194  A    
C72   C75   A    
C103  C380  A    
C138  H6    S    
Br9   C347  S    
C83   C93   A    
C258  C291  A    
C100  C378  A    
C26   C249  A    
C279  O59   A    
C164  C172  A    
C40   C243  A    
C112  O2    A    
C28   C255  A    
C363  O88   A    
C67   C345  A    
C132  H89   S    
C226  C236  A    
C176  C184  A    
C174  C281  A    
O18   Zn22  S    
C178  C353  A    
O64   Zn16  S    
Br33  C371  S    
O70   Zn17  S    
C46   O95   A    
C52   H80   S    
C108  H53   S    
O61   Zn3   S    
C156  H9    S    
Br1   C329  S    
C60   H83   S    
C137  C147  A    
C24   O101  A    
C35   O19   A    
C319  O9    A    
C160  C338  A    
C209  C311  A    
Br15  C353  S    
C168  C311  S    
C143  H67   S    
C223  O8    A    
C70   H95   S    
O94   Zn21  S    
Br38  C376  S    
C52   C62   A    
O28   Zn6   S    
C228  C233  A    
C95   H49   S    
C241  C281  A    
C182  C349  A    
C90   O24   A    
Br47  C384  S    
C78   C356  A    
C43   C264  A    
C157  C267  S    
C98   C114  A    
Br28  C366  S    
C76   C354  A    
C191  C369  A    
C111  H68   S    
C26   C132  A    
C179  O33   A    
C12   C236  A    
O68   Zn6   S    
Br93  C48   S    
C2    C265  S    
C58   C335  A    
O29   Zn19  S    
C204  C211  A    
O58   Zn15  S    
Br42  C380  S    
C256  C264  A    
O72   Zn19  S    
C101  O6    A    
C103  H63   S    
C172  C278  A    
C24   C271  S    
C171  C277  A    
O11   Zn25  S    
C165  C342  A    
O53   Zn8   S    
C44   C263  A    
O26   Zn22  S    
C16   C232  A    
C48   C260  A    
C125  H42   S    
C234  C317  A    
Br43  C381  S    
C295  C323  S    
O24   Zn25  S    
C49   C155  A    
Br23  C332  S    
O23   Zn26  S    
O72   Zn2   S    
O88   Zn17  S    
C13   O100  A    
Br29  C367  S    
C91   C368  A    
C214  C314  A    
C235  O38   A    
C4    C109  A    
O80   Zn28  S    
C200  C359  A    
C180  C286  A    
C55   C67   A    
C140  C143  A    
C283  C363  S    
O39   Zn10  S    
C56   C334  A    
C15   C233  A    
C53   H81   S    
C319  O92   A    
C240  C248  A    
Br60  C15   S    
C159  C339  A    
C47   C261  A    
C363  O13   A    
C194  C357  A    
C235  C317  S    
C232  C293  A    
C73   C350  A    
Br94  C49   S    
O84   Zn15  S    
O90   Zn14  S    
C64   C342  A    
C9    C230  A    
C175  C332  A    
C205  C309  A    
C200  C307  A    
C222  C297  A    
C160  C266  A    
C68   O97   A    
C56   C66   A    
C257  C302  S    
C5    C110  A    
Br46  C383  S    
Br56  C335  S    
Br18  C356  S    
O36   Zn31  S    
O28   Zn24  S    
C124  C276  S    
C204  C382  A    
C180  C181  A    
C84   C361  A    
O96   Zn29  S    
Br34  C333  S    
C330  O85   A    
C21   C128  A    
C131  H31   S    
Br87  C42   S    
Br45  C334  S    
Br61  C16   S    
C242  C282  A    
C23   C130  A    
C97   H29   S    
C256  C289  A    
Br27  C365  S    
C179  C313  S    
O104  Zn7   S    
C325  O71   A    
C34   C141  A    
C121  C127  A    
C197  C304  A    
O2    Zn20  S    
C227  C309  A    
C17   C221  A    
C279  O52   A    
C42   C241  A    
C169  C329  A    
Br67  C336  S    
Br3   C340  S    
C263  C283  A    
C180  C351  A    
C203  C304  A    
Br84  C39   S    
C35   C275  S    
C27   C248  A    
C287  C330  S    
C66   C344  A    
C38   C245  A    
C210  C384  A    
O16   Zn24  S    
O50   Zn28  S    
C101  O25   A    
Br14  C351  S    
O17   Zn7   S    
C208  C294  A    
Br88  C43   S    
C174  C333  A    
C96   H30   S    
C81   C358  A    
C178  C285  A    
C63   H77   S    
C98   H59   S    
C82   C94   A    
C218  C377  A    
Br74  C29   S    
C306  C320  S    
C217  C378  A    
C188  C200  A    
C257  O49   A    
Br79  C33   S    
C124  O102  A    
C193  C196  A    
C66   H76   S    
C7    C114  A    
O5    Zn3   S    
O79   Zn10  S    
Br92  C47   S    
C246  C316  S    
O102  Zn31  S    
O57   Zn31  S    
Br83  C38   S    
C84   C92   A    
Br86  C41   S    
Br40  C378  S    
O92   Zn10  S    
C72   H93   S    
O66   Zn4   S    
C23   C225  A    
Br66  C21   S    
C79   O23   A    
O61   Zn11  S    
C197  C362  A    
O100  Zn6   S    
C33   C250  A    
C161  C175  A    
C192  C368  A    
C163  C344  A    
C190  O34   A    
O17   Zn20  S    
O72   Zn30  S    
C40   C147  A    
C57   C278  S    
C61   H71   S    
C32   C139  A    
O49   Zn10  S    
C233  C292  A    
C223  O91   A    
C178  C182  A    
C29   C254  A    
C206  C218  A    
C102  C109  A    
C196  C364  A    
C151  H17   S    
C89   H37   S    
O83   Zn32  S    
O39   Zn27  S    
C75   H92   S    
C323  O77   A    
O65   Zn3   S    
C52   C329  A    
C341  O86   A    
C266  C374  S    
O82   Zn14  S    
C33   C140  A    
C73   C74   A    
Br37  C375  S    
C202  C358  A    
Br62  C17   S    
C105  H26   S    
C255  C269  A    
C152  H14   S    
C163  C173  A    
Br55  C10   S    
C209  C215  A    
O35   Zn28  S    
C92   H70   S    
O97   Zn28  S    
O1    Zn1   S    
C119  C129  A    
C324  O70   A    
C59   C336  A    
C144  H78   S    
C192  C298  A    
C117  C131  A    
C207  C217  A    
Br78  C337  S    
C79   O4    A    
O69   Zn16  S    
O61   Zn25  S    
C41   C242  A    
O28   Zn9   S    
C227  C234  A    
C192  C197  A    
O12   Zn19  S    
C181  C350  A    
C195  C356  A    
C99   H58   S    
C104  C381  A    
C101  C282  S    
C121  H28   S    
Br80  C34   S    
C93   C370  A    
Br72  C27   S    
C24   O18   A    
C67   H73   S    
C318  O64   A    
C120  H38   S    
C11   C237  A    
C185  C366  A    
C112  O90   A    
C173  C280  A    
C104  H62   S    
C36   C239  A    
C25   C222  A    
Br48  C3    S    
C48   C154  A    
C205  C219  A    
C70   C77   A    
O50   Zn26  S    
C207  C295  A    
C136  C148  A    
C187  C294  A    
O19   Zn21  S    
C299  C322  S    
C54   C332  A    
C288  C341  S    
C214  C381  A    
C56   H84   S    
Br10  C348  S    
C201  O35   A    
C165  C171  A    
C71   C76   A    
C264  C284  A    
C116  C123  A    
C260  C261  A    
O50   Zn13  S    
C159  C169  A    
C279  C296  S    
C247  C277  A    
O47   Zn2   S    
C1    O94   A    
C57   O96   A    
O76   Zn32  S    
C220  C315  A    
C176  C355  A    
C248  C265  A    
C49   C259  A    
C184  C291  A    
O73   Zn12  S    
C193  C299  A    
C84   H55   S    
C22   C226  A    
C130  H32   S    
O77   Zn2   S    
O63   Zn17  S    
C236  C316  A    
Br58  C12   S    
O71   Zn1   S    
C164  C343  A    
C162  C174  A    
C8    C231  A    
Br24  C361  S    
C239  C249  A    
C298  C321  S    
C99   C111  A    
C54   H86   S    
C160  C167  A    
C50   C156  A    
C186  C293  A    
C308  C327  S    
C224  O47   A    
Br53  C8    S    
C116  H47   S    
Br8   C346  S    
C43   C150  A    
C53   C61   A    
O48   Zn32  S    
C217  C307  A    
C321  O79   A    
O91   Zn9   S    
C179  O43   A    
O86   Zn11  S    
C37   C247  A    
C74   H91   S    
C80   C87   A    
Br35  C372  S    
C162  C269  A    
C4    C208  A    
C175  C282  A    
C167  C331  A    
C188  C295  A    
O38   Zn12  S    
O42   Zn3   S    
Br31  C369  S    
C59   H82   S    
O95   Zn12  S    
C14   C234  A    
C252  C270  A    
C321  O67   A    
C154  H11   S    
C198  C305  A    
O46   Zn7   S    
C188  C371  A    
C80   H64   S    
C224  C315  S    
Br20  C358  S    
C171  C336  A    
C177  C183  A    
O15   Zn19  S    
C184  C347  A    
C105  C382  A    
C167  C274  A    
C203  C213  A    
C226  C310  A    
C104  C107  A    
C115  H48   S    
C87   C365  A    
C190  C310  S    
C34   C240  A    
C163  C270  A    
C258  C263  A    
O39   Zn5   S    
Br59  C14   S    
C183  C289  A    
C109  H35   S    
O99   Zn2   S    
C89   C367  A    
C303  C325  S    
C141  H1    S    
C219  C317  A    
C140  H4    S    
C68   O22   A    
C53   C331  A    
Br63  C18   S    
C164  C271  A    
C106  C383  A    
O25   Zn24  S    
O32   Zn27  S    
C83   H57   S    
C51   C256  A    
O89   Zn15  S    
C212  O36   A    
C257  O62   A    
C137  H5    S    
C147  H56   S    
C261  C285  A    
C126  H19   S    
C187  C202  A    
C228  C302  A    
C1    O89   A    
C6    C111  A    
C80   C357  A    
C69   C346  A    
C152  C155  A    
C327  O81   A    
C157  O31   A    
C301  O54   A    
C82   H40   S    
O13   Zn18  S    
C41   C148  A    
O72   Zn16  S    
C177  C354  A    
C224  O37   A    
C124  O27   A    
C128  H52   S    
O74   Zn11  S    
C107  C384  A    
C122  C126  A    
C61   C338  A    
O83   Zn18  S    
C173  C334  A    
C91   H36   S    
C64   H79   S    
C231  C311  A    
C254  C267  A    
Br19  C357  S    
C290  O53   A    
C79   C272  S    
C94   H50   S    
C150  H16   S    
O31   Zn21  S    
O37   Zn30  S    
Br81  C36   S    
C259  C287  A    
C114  H66   S    
C54   C69   A    
C304  C326  S    
C249  C266  A    
C229  C232  A    
C203  C383  A    
C82   C359  A    
C90   O5    A    
C55   H87   S    
C115  C125  A    
Br6   C344  S    
C177  C284  A    
C182  C288  A    
C102  C379  A    
C27   C133  A    
C240  C275  A    
O33   Zn23  S    
C63   C340  A    
C75   C353  A    
Br73  C28   S    
C246  O40   A    
C259  C262  A    
C39   C244  A    
O51   Zn9   S    
C230  C313  A    
O34   Zn29  S    
C134  C149  A    
C196  C303  A    
C135  C277  S    
Br77  C32   S    
C218  C316  A    
C161  C267  A    
C146  C269  S    
C86   C364  A    
C268  O51   A    
Br57  C11   S    
C253  C271  A    
C223  C291  S    
C158  H10   S    
Br65  C20   S    
C247  C250  A    
C191  C297  A    
C83   C360  A    
C212  O48   A    
C107  H54   S    
C20   C228  A    
C5    C207  A    
C284  C352  S    
C170  C276  A    
O1    Zn15  S    
C10   C117  A    
C76   H88   S    
C193  C367  A    
C31   C138  A    
C213  C373  A    
O52   Zn7   S    
C59   C64   A    
C260  C288  A    
C170  C337  A    
C38   C144  A    
C374  O14   A    
C326  O73   A    
C60   C63   A    
O9    Zn22  S    
C113  C281  S    
C262  C286  A    
C78   H65   S    
C166  C170  A    
O28   Zn23  S    
C21   C227  A    
O43   Zn6   S    
C37   C143  A    
C51   C158  A    
C191  C198  A    
C113  O7    A    
Br85  C40   S    
C352  O12   A    
C162  C345  A    
O1    Zn8   S    
C268  O60   A    
C190  O42   A    
Br49  C4    S    
C15   C121  A    
C305  C318  S    
C19   C229  A    
Br70  C25   S    
O21   Zn25  S    
C11   C118  A    
Br21  C359  S    
C204  C303  A    
C292  C312  S    
C168  O44   A    
C199  C306  A    
C187  C372  A    
Br16  C354  S    
C294  C324  S    
C97   C375  A    
C93   H69   S    
C168  O32   A    
C118  C130  A    
C136  H8    S    
C159  C265  A    
C225  C296  A    
O20   Zn20  S    
C195  C302  A    
O61   Zn29  S    
C70   C347  A    
C328  O75   A    
C119  H39   S    
Br44  C382  S    
C7    C205  A    
C189  C296  A    
O8    Zn24  S    
C58   C65   A    
C96   C106  A    
C129  H51   S    
C244  C252  A    
C8    C115  A    
Br91  C45   S    
C185  C292  A    
C312  O65   A    
C17   C123  A    
C216  C379  A    
C28   C134  A    
Br13  C350  S    
C139  H3    S    
O40   Zn1   S    
Br11  C349  S    
C211  C299  A    
