data_mof_unit_56370.cif
_audit_creation_date              2012-12-11T14:49:25-0500
_audit_creation_method            fapswitch 2.2
_symmetry_space_group_name_H-M    P1
_symmetry_Int_Tables_number       1
_space_group_crystal_system       triclinic
_cell_length_a                    16.923278
_cell_length_b                    16.745989
_cell_length_c                    19.4254
_cell_angle_alpha                 117.864695
_cell_angle_beta                  62.199655
_cell_angle_gamma                 101.004755
_cell_volume                      4302.48486084

loop_
_atom_site_label
_atom_site_type_symbol
_atom_type_description
_atom_site_fract_x
_atom_site_fract_y
_atom_site_fract_z
_atom_type_partial_charge
C1    C     C_R   0.023695 0.761627 0.028718 -0.127457
C2    C     C_R   0.741495 0.538705 0.254331 0.075144
C3    C     C_R   0.740111 0.461373 0.938940 0.090290
C4    C     C_R   0.059934 0.736247 0.241628 0.083908
C5    C     C_R   0.261278 0.513809 0.958159 -0.130626
C6    C     C_R   0.979883 0.247457 0.827654 -0.125307
C7    C     C_R   0.156854 0.513309 0.760256 -0.156877
C8    C     C_R   0.022809 0.313913 0.078358 -0.137672
C9    C     C_R   0.945512 0.245562 0.002734 -0.132832
C10   C     C_R   0.235515 0.581894 0.835942 -0.120544
C11   C     C_R   0.192482 0.433600 0.033292 -0.123270
C12   C     C_R   0.748352 0.478004 0.172468 -0.130240
C13   C     C_R   0.048909 0.326999 0.751617 -0.129090
C14   C     C_R   0.274612 0.444409 0.972491 0.059039
C15   C     C_R   0.041936 0.240760 0.746516 0.072896
C16   C     C_R   0.231630 0.564115 0.760452 0.080284
C17   C     C_R   0.982634 0.233163 0.047502 0.067257
C18   C     C_R   0.143728 0.161853 0.589924 -0.258945
C19   C     C_R   0.088657 0.158173 0.669254 0.114600
C20   C     C_R   0.069066 0.073985 0.671808 -0.255045
C21   C     C_R   0.088242 0.995073 0.595287 0.141587
C22   C     C_R   0.130514 0.000859 0.515781 0.027617
C23   C     C_R   0.815214 0.509956 0.913182 -0.140088
C24   C     C_R   0.163016 0.083744 0.512814 0.142783
C25   C     C_R   0.056451 0.912321 0.597649 -0.202111
C26   C     C_R   0.057285 0.838295 0.523157 -0.205329
C27   C     C_R   0.089854 0.846786 0.446066 0.142344
C28   C     C_R   0.131069 0.926581 0.440996 0.028131
C29   C     C_R   0.163854 0.935676 0.363728 0.143176
C30   C     C_R   0.205034 0.015205 0.359218 -0.204872
C31   C     C_R   0.204804 0.089038 0.433585 -0.202468
C32   C     C_R   0.073782 0.780697 0.377029 -0.260012
C33   C     C_R   0.096136 0.794650 0.304173 0.114343
C34   C     C_R   0.011562 0.659574 0.240995 -0.145795
C35   C     C_R   0.146929 0.869033 0.295322 -0.260269
C36   C     C_R   0.278657 0.573899 0.622599 -0.266102
C37   C     C_R   0.289251 0.600779 0.697920 0.108908
C38   C     C_R   0.361566 0.654019 0.708040 -0.274724
C39   C     C_R   0.430827 0.666179 0.638166 0.137878
C40   C     C_R   0.424981 0.628800 0.558971 0.028070
C41   C     C_R   0.346467 0.586997 0.552684 0.142208
C42   C     C_R   0.509480 0.706893 0.643640 -0.213494
C43   C     C_R   0.584981 0.702392 0.569074 -0.192755
C44   C     C_R   0.582088 0.657631 0.488690 0.138856
C45   C     C_R   0.749317 0.431626 0.989988 -0.147869
C46   C     C_R   0.500610 0.624993 0.484185 0.026410
C47   C     C_R   0.496912 0.580435 0.403732 0.141422
C48   C     C_R   0.415762 0.547786 0.399690 -0.203961
C49   C     C_R   0.340815 0.550758 0.473925 -0.207721
C50   C     C_R   0.660634 0.637039 0.412350 -0.252593
C51   C     C_R   0.658561 0.582244 0.332096 0.115313
C52   C     C_R   0.575876 0.561143 0.328147 -0.255467
C53   C     C_R   0.670290 0.431739 0.908983 0.091258
C54   C     C_R   0.359765 0.399444 0.941460 0.054051
C55   C     C_R   0.441875 0.358475 0.993859 -0.205118
C56   C     C_R   0.078870 0.738477 0.165021 -0.139058
C57   C     C_R   0.362498 0.365329 0.993999 -0.171907
C58   C     C_R   0.440594 0.403222 0.871389 -0.066733
C59   C     C_R   0.523416 0.394233 0.870121 0.037862
C60   C     C_R   0.519747 0.382819 0.939367 0.165191
C61   C     C_R   0.591879 0.402418 0.958526 -0.266859
C62   C     C_R   0.681093 0.427387 0.831383 -0.235944
C63   C     C_R   0.609561 0.403537 0.808773 0.185122
C64   C     C_R   0.800124 0.186213 0.192416 0.108316
C65   C     C_R   0.927263 0.865363 0.030441 0.128855
C66   C     C_R   0.846908 0.955094 0.012460 -0.227473
C67   C     C_R   0.827471 0.548012 0.249052 -0.130252
C68   C     C_R   0.887458 0.873412 0.984441 -0.170418
C69   C     C_R   0.927182 0.941551 0.104523 -0.275595
C70   C     C_R   0.886099 0.023721 0.133398 0.184161
C71   C     C_R   0.845006 0.030316 0.087274 0.190497
C72   C     C_R   0.802044 0.111859 0.117391 -0.279251
C73   C     C_R   0.841225 0.180049 0.237646 -0.152939
C74   C     C_R   0.884135 0.099204 0.208434 -0.221703
C75   C     C_R   0.944741 0.691912 0.951786 -0.129340
C76   C     C_R   0.965186 0.776871 0.003411 0.055640
H1    H     H_    0.054621 0.811862 0.067934 0.093949
H2    H     H_    0.957255 0.193455 0.846953 0.092381
H3    H     H_    0.125458 0.498996 0.718593 0.091265
H4    H     H_    0.047599 0.332389 0.125858 0.092941
H5    H     H_    0.898982 0.200734 0.979989 0.090422
H6    H     H_    0.277076 0.630062 0.863647 0.085395
H7    H     H_    0.177294 0.386234 0.060148 0.091841
H8    H     H_    0.091059 0.348185 0.701517 0.095865
H9    H     H_    0.164100 0.225862 0.586986 0.116933
H10   H     H_    0.031116 0.069673 0.732677 0.118630
H11   H     H_    0.025205 0.906658 0.658129 0.130101
H12   H     H_    0.695410 0.454998 0.152263 0.093518
H13   H     H_    0.026889 0.776619 0.527336 0.129635
H14   H     H_    0.037406 0.722347 0.383957 0.116897
H15   H     H_    0.167389 0.879453 0.238498 0.116588
H16   H     H_    0.231959 0.022385 0.299749 0.128799
H17   H     H_    0.231333 0.152062 0.430332 0.129371
H18   H     H_    0.221789 0.535830 0.614684 0.118211
H19   H     H_    0.368940 0.678807 0.766986 0.118436
H20   H     H_    0.514419 0.736837 0.704402 0.128015
H21   H     H_    0.646899 0.728964 0.573546 0.131503
H22   H     H_    0.723445 0.657643 0.416496 0.119584
H23   H     H_    0.836236 0.531709 0.862983 0.091842
H24   H     H_    0.572519 0.522885 0.266830 0.117092
H25   H     H_    0.411830 0.514566 0.338334 0.128540
H26   H     H_    0.280290 0.519762 0.468641 0.129063
H27   H     H_    0.583523 0.401538 0.016962 0.118176
H28   H     H_    0.745651 0.439090 0.787061 0.150479
H29   H     H_    0.440879 0.342964 0.042591 0.121612
H30   H     H_    0.303169 0.354959 0.043995 0.118549
H31   H     H_    0.769967 0.118234 0.083192 0.121316
H32   H     H_    0.996988 0.628236 0.283005 0.087923
H33   H     H_    0.839530 0.238082 0.295572 0.132008
H34   H     H_    0.816281 0.959158 0.976054 0.126010
H35   H     H_    0.915253 0.095538 0.244626 0.133601
H36   H     H_    0.887387 0.816505 0.926624 0.116478
H37   H     H_    0.956738 0.936594 0.141304 0.122916
H38   H     H_    0.712810 0.378719 0.008036 0.091789
H39   H     H_    0.126259 0.780614 0.137370 0.085659
H40   H     H_    0.847716 0.590246 0.299844 0.096970
H41   H     H_    0.901222 0.677387 0.920980 0.094775
H42   H     H_    0.309531 0.544385 0.918202 0.112274
N1    N     N_R   0.036080 0.671900 0.995420 -0.039833
N2    N     N_R   0.954660 0.334720 0.880230 -0.040625
N3    N     N_R   0.116260 0.502360 0.832930 -0.039065
N4    N     N_R   0.012950 0.371090 0.051890 -0.039999
N5    N     N_R   0.963920 0.328100 0.004580 -0.039982
N6    N     N_R   0.165290 0.545350 0.880240 -0.040380
N7    N     N_R   0.132570 0.490700 0.051900 -0.040635
N8    N     N_R   0.996640 0.382750 0.832930 -0.040888
N9    N     N_R   0.834710 0.454650 0.119760 -0.041004
N10   N     N_R   0.867430 0.509300 0.948100 -0.038149
N11   N     N_R   0.003360 0.617250 0.167070 -0.038538
N12   N     N_R   0.825450 0.461270 0.995400 -0.038515
N13   N     N_R   0.045340 0.665280 0.119770 -0.038352
N14   N     N_R   0.883740 0.497640 0.167070 -0.041160
N15   N     N_R   0.987050 0.628910 0.948110 -0.038825
N16   N     N_R   0.174550 0.538730 0.004600 -0.042861
Ni1   Ni    Ni4+2 0.104370 0.604370 0.000010 0.209784
Ni2   Ni    Ni4+2 0.895630 0.395630 0.999990 0.212330
Ni3   Ni    Ni4+2 0.991920 0.505780 0.891500 0.212798
Ni4   Ni    Ni4+2 0.008080 0.494220 0.108500 0.211508
I1    I     I_    0.647308 0.362315 0.675461 -0.442528
C77   C     C_R   0.436896 0.423163 0.806186 0.147350
C78   C     C_R   0.396283 0.362644 0.753322 -0.096438
C79   C     C_R   0.394724 0.379464 0.689923 -0.097508
C80   C     C_R   0.433389 0.456768 0.679051 -0.056656
C81   C     C_R   0.471391 0.518827 0.733206 -0.091098
C82   C     C_R   0.472568 0.502686 0.797142 -0.160195
H43   H     H_    0.367103 0.301914 0.760427 0.114541
H44   H     H_    0.364197 0.332182 0.648724 0.111678
H45   H     H_    0.433367 0.468807 0.628972 0.115493
H46   H     H_    0.500578 0.579079 0.725238 0.113864
H47   H     H_    0.502422 0.551050 0.838580 0.119240

loop_
_geom_bond_atom_site_label_1
_geom_bond_atom_site_label_2
_ccdc_geom_bond_type
N7    N16   A    
C66   C68   A    
N8    Ni3   S    
N15   Ni3   S    
C1    H1    S    
C73   C74   A    
C23   H23   S    
C19   C20   A    
C75   H41   S    
C75   C76   A    
C2    C12   A    
C12   N9    A    
C26   H13   S    
C40   C46   A    
C13   H8    S    
C69   H37   S    
C26   C27   A    
C29   C30   A    
C65   C76   S    
C55   H29   S    
C18   C24   A    
C28   C29   A    
C61   H27   S    
N13   Ni1   S    
C1    N1    A    
C38   C39   A    
C11   C14   A    
N2    N8    A    
C6    H2    S    
N3    Ni3   S    
C80   C81   A    
C25   H11   S    
C18   C19   A    
C68   H36   S    
C41   C49   A    
C3    C23   A    
N9    N14   A    
N3    N6    A    
C44   C50   A    
C33   C35   A    
C6    C15   A    
C46   C47   A    
C53   C61   A    
C45   H38   S    
C32   H14   S    
N11   Ni4   S    
C67   N14   A    
C34   N11   A    
C20   H10   S    
C38   H19   S    
C70   C74   A    
C64   C73   A    
C70   C71   A    
C82   H47   S    
C16   C37   S    
C57   H30   S    
C45   N12   A    
C22   C28   A    
C21   C22   A    
C4    C56   A    
C36   C41   A    
C80   H45   S    
N12   Ni2   S    
C7    N3    A    
C6    N2    A    
C44   C46   A    
C39   C42   A    
C62   H28   S    
C5    N16   A    
C4    C34   A    
C50   H22   S    
C18   H9    S    
C12   H12   S    
C51   C52   A    
C77   C78   A    
N4    Ni4   S    
C30   H16   S    
C2    C67   A    
C49   H26   S    
C11   H7    S    
C58   C59   A    
C31   H17   S    
C10   H6    S    
N1    Ni1   S    
C60   C61   A    
N2    Ni2   S    
C15   C19   S    
C67   H40   S    
C66   C71   A    
C37   C38   A    
C53   C62   A    
C47   C48   A    
C72   H31   S    
C65   C68   A    
C62   C63   A    
C50   C51   A    
N1    N15   A    
N9    Ni2   S    
C5    C14   A    
C47   C52   A    
C78   H43   S    
N10   Ni3   S    
C13   N8    A    
C9    C17   A    
C48   C49   A    
C14   C54   S    
C13   C15   A    
C43   C44   A    
C42   H20   S    
C59   C63   A    
C42   C43   A    
N5    Ni2   S    
C39   C40   A    
C7    H3    S    
C54   C58   A    
C58   C77   S    
C74   H35   S    
C21   C25   A    
C4    C33   S    
C40   C41   A    
N6    Ni1   S    
C11   N7    A    
C27   C32   A    
C1    C76   A    
C63   I1    S    
C79   H44   S    
C7    C16   A    
C43   H21   S    
C81   C82   A    
N10   N12   A    
C77   C82   A    
C75   N15   A    
C73   H33   S    
N16   Ni1   S    
N7    Ni4   S    
C29   C35   A    
C10   N6    A    
C8    C17   A    
C5    H42   S    
C34   H32   S    
C32   C33   A    
C55   C57   A    
C25   C26   A    
C24   C31   A    
C71   C72   A    
C10   C16   A    
C78   C79   A    
C3    C53   S    
C8    N4    A    
C30   C31   A    
C65   C69   A    
C48   H25   S    
C9    N5    A    
C56   H39   S    
C3    C45   A    
C22   C24   A    
C64   C72   A    
C69   C70   A    
C81   H46   S    
C56   N13   A    
C2    C51   S    
C36   H18   S    
C59   C60   A    
C20   C21   A    
C66   H34   S    
C36   C37   A    
C27   C28   A    
C8    H4    S    
C52   H24   S    
C79   C80   A    
N4    N5    A    
C55   C60   A    
N14   Ni4   S    
C9    H5    S    
C23   N10   A    
N11   N13   A    
C54   C57   A    
C35   H15   S    
