data_mof_unit_29265.cif
_audit_creation_date              2013-03-05T15:57:50-0500
_audit_creation_method            fapswitch 2.2
_symmetry_space_group_name_H-M    P1
_symmetry_Int_Tables_number       1
_space_group_crystal_system       triclinic
_cell_length_a                    14.994685
_cell_length_b                    13.817317
_cell_length_c                    14.322597
_cell_angle_alpha                 90.012315
_cell_angle_beta                  88.02042
_cell_angle_gamma                 90.166513
_cell_volume                      2965.6625968

loop_
_atom_site_label
_atom_site_type_symbol
_atom_site_description
_atom_site_fract_x
_atom_site_fract_y
_atom_site_fract_z
_atom_type_partial_charge
O1    O     O_R   0.370260 0.582280 0.500020 -0.576471
O2    O     O_R   0.629740 0.417720 0.499980 -0.577655
O3    O     O_R   0.629740 0.582280 0.499980 -0.574716
O4    O     O_R   0.370260 0.417720 0.500020 -0.576363
C1    C     C_R   0.329023 0.499913 0.501438 0.834846
C2    C     C_R   0.671030 0.499846 0.497569 0.828424
O5    O     O_R   0.500000 0.582290 0.376050 -0.559368
O6    O     O_R   0.500000 0.417710 0.623950 -0.560814
O7    O     O_R   0.500000 0.582290 0.623950 -0.558544
O8    O     O_R   0.500000 0.417710 0.376050 -0.559745
C3    C     C_R   0.499972 0.499992 0.331144 0.798070
C4    C     C_R   0.499733 0.500004 0.668864 0.812548
Cu1   Cu    Cu3+1 0.500000 0.597420 0.500000 0.923183
Cu2   Cu    Cu3+1 0.500000 0.402580 0.500000 0.922580
C5    C     C_1   0.500002 0.499993 0.228844 -0.212235
C6    C     C_1   0.499721 0.500004 0.771166 -0.214235
C7    C     C_1   0.499980 0.500002 0.143402 -0.008953
C8    C     C_1   0.499759 0.499997 0.856612 -0.010480
C9    C     C_1   0.499912 0.500002 0.042739 -0.001686
C10   C     C_1   0.499839 0.499997 0.957278 -0.000828
C11   C     C_R   0.814105 0.513046 0.403168 0.094131
C12   C     C_R   0.180388 0.474128 0.576208 0.081899
C13   C     C_R   0.768209 0.497544 0.490163 -0.079990
C14   C     C_R   0.232457 0.499045 0.496657 -0.086996
C15   C     C_R   0.813484 0.471415 0.570227 0.075816
C16   C     C_R   0.192575 0.517413 0.411134 0.091004
C17   C     C_R   0.904416 0.447371 0.561499 0.024036
C18   C     C_R   0.098628 0.525192 0.410162 0.073071
C19   C     C_R   0.953683 0.481965 0.482162 -0.082882
C20   C     C_R   0.047444 0.484163 0.484943 -0.086232
C21   C     C_R   0.909724 0.513214 0.400538 0.083048
C22   C     C_R   0.090067 0.449308 0.564889 0.076250
C23   C     C_R   0.947492 0.387129 0.626982 0.132698
C24   C     C_R   0.054096 0.570771 0.336889 0.141550
C25   C     C_R   0.042024 0.387783 0.627900 0.159118
C26   C     C_R   0.964347 0.546470 0.322744 0.142269
C27   C     C_R   0.436805 0.795531 0.552019 0.291079
C28   C     C_R   0.563275 0.204591 0.447930 0.288892
C29   C     C_R   0.562933 0.796052 0.447764 0.291952
C30   C     C_R   0.436758 0.203927 0.551856 0.294511
N1    N     N_R   0.500000 0.743810 0.500000 -0.172407
N2    N     N_R   0.500000 0.256190 0.500000 -0.172845
C31   C     C_R   0.574318 0.897391 0.464272 -0.031475
C32   C     C_R   0.425450 0.102607 0.535213 -0.032119
C33   C     C_R   0.425518 0.896849 0.535439 -0.033396
C34   C     C_R   0.574420 0.103197 0.464262 -0.033965
C35   C     C_R   0.499942 0.948738 0.499870 -0.061086
C36   C     C_R   0.499929 0.051303 0.499742 -0.061629
C37   C     C_R   0.655813 0.948828 0.446642 0.173829
C38   C     C_R   0.343904 0.051121 0.552554 0.176977
C39   C     C_R   0.343959 0.947706 0.552564 0.175132
C40   C     C_R   0.655896 0.052241 0.446885 0.176307
C41   C     C_3   0.759938 0.535670 0.318095 -0.868764
H1    H     H_    0.687022 0.531881 0.330619 0.206768
H2    H     H_    0.773730 0.610496 0.293990 0.237343
H3    H     H_    0.772124 0.481194 0.262711 0.237946
C42   C     C_3   0.218577 0.487161 0.672085 -0.886806
H4    H     H_    0.166084 0.484822 0.728493 0.251296
H5    H     H_    0.269746 0.431798 0.685403 0.222753
H6    H     H_    0.250210 0.559635 0.676533 0.220701
C43   C     C_3   0.766476 0.483554 0.665135 -0.856765
H7    H     H_    0.731977 0.554580 0.668405 0.226543
H8    H     H_    0.715925 0.425661 0.677399 0.230771
H9    H     H_    0.813929 0.484932 0.722459 0.251655
C44   C     C_3   0.249668 0.516784 0.321721 -0.853199
H10   H     H_    0.209969 0.496770 0.260688 0.225378
H11   H     H_    0.282880 0.587994 0.310934 0.239590
H12   H     H_    0.301699 0.459997 0.324599 0.224599
C45   C     C_3   0.894254 0.310490 0.682573 -0.354883
C46   C     C_3   0.897619 0.324036 0.788706 -0.833441
H13   H     H_    0.947846 0.274875 0.818134 0.245385
H14   H     H_    0.914839 0.399575 0.807658 0.249484
H15   H     H_    0.831778 0.305583 0.822031 0.241317
H16   H     H_    0.823814 0.307478 0.662089 0.208506
H17   H     H_    0.918741 0.237211 0.663412 0.186932
C47   C     C_3   0.094175 0.658195 0.284532 -0.391584
C48   C     C_3   0.125138 0.736885 0.351454 -0.827357
H18   H     H_    0.069652 0.757494 0.400848 0.251438
H19   H     H_    0.182665 0.712273 0.391775 0.262000
H20   H     H_    0.146360 0.802006 0.310958 0.237523
H21   H     H_    0.149012 0.638069 0.234884 0.203282
H22   H     H_    0.043302 0.693069 0.241208 0.211449
C49   C     C_3   0.091365 0.314408 0.685987 -0.854699
H23   H     H_    0.063903 0.240607 0.677469 0.225436
H24   H     H_    0.162370 0.307130 0.663171 0.239196
H25   H     H_    0.087618 0.335112 0.760819 0.237874
C50   C     C_3   0.936263 0.545183 0.222075 -0.892303
H26   H     H_    0.994925 0.549555 0.172675 0.219724
H27   H     H_    0.905473 0.474650 0.205307 0.239980
H28   H     H_    0.893394 0.607563 0.205891 0.238499
C51   C     C_3   0.394508 0.752471 0.639929 -0.787757
H29   H     H_    0.447452 0.729830 0.687192 0.235477
H30   H     H_    0.355642 0.806545 0.681387 0.204046
H31   H     H_    0.349438 0.691668 0.625085 0.240476
C52   C     C_3   0.605846 0.247916 0.360138 -0.782227
H32   H     H_    0.553022 0.270744 0.312767 0.234669
H33   H     H_    0.651241 0.308631 0.374913 0.246559
H34   H     H_    0.644532 0.193791 0.318561 0.202884
C53   C     C_3   0.604793 0.753396 0.359782 -0.796223
H35   H     H_    0.551781 0.729890 0.312847 0.237313
H36   H     H_    0.643328 0.807636 0.317926 0.204392
H37   H     H_    0.650033 0.693525 0.375334 0.250675
C54   C     C_3   0.393898 0.246704 0.639372 -0.797222
H38   H     H_    0.446269 0.271039 0.686774 0.236793
H39   H     H_    0.348039 0.305920 0.623215 0.240895
H40   H     H_    0.355594 0.192204 0.681158 0.204784
C55   C     C_3   0.744202 0.895259 0.439138 -0.870240
H41   H     H_    0.789739 0.921050 0.493216 0.233834
H42   H     H_    0.737644 0.816668 0.452668 0.242199
H43   H     H_    0.776082 0.906603 0.368850 0.233445
C56   C     C_3   0.255387 0.104595 0.559398 -0.877152
H44   H     H_    0.210139 0.078485 0.505222 0.235693
H45   H     H_    0.223185 0.093555 0.629562 0.233443
H46   H     H_    0.261854 0.183122 0.545536 0.241357
C57   C     C_3   0.255566 0.893497 0.558864 -0.875904
H47   H     H_    0.210898 0.918730 0.503870 0.235190
H48   H     H_    0.262350 0.814878 0.545725 0.239580
H49   H     H_    0.222657 0.904904 0.628615 0.235387
C58   C     C_3   0.744388 0.106288 0.440500 -0.878503
H50   H     H_    0.789200 0.080709 0.495190 0.231347
H51   H     H_    0.777047 0.095108 0.370614 0.235942
H52   H     H_    0.737818 0.184843 0.453989 0.239181

loop_
_geom_bond_atom_site_label_1
_geom_bond_atom_site_label_2
_geom_bond_distance
_ccdc_geom_bond_type
C11   C41   1.520548 S    
C50   H26   1.111168 S    
C17   C19   1.416188 A    
C41   H2    1.106747 S    
C52   H32   1.107207 S    
O3    C2    1.297871 A    
C12   C42   1.516458 S    
Cu1   N1    2.022717 S    
C52   H34   1.108550 S    
C29   N1    1.385204 A    
C41   H1    1.102934 S    
C17   C23   1.426547 A    
O5    C3    1.306314 A    
C11   C21   1.432970 A    
C12   C22   1.410881 A    
C49   H23   1.106931 S    
O1    C1    1.293461 A    
C14   C16   1.405010 A    
C28   N2    1.385466 A    
C45   C46   1.534078 S    
C58   H52   1.106521 S    
C33   C39   1.426093 A    
C57   H47   1.108374 S    
C34   C40   1.426243 A    
C33   C35   1.405406 A    
C43   H8    1.110238 S    
O7    Cu1   1.787597 S    
C23   C25   1.418008 A    
C3    C5    1.465196 S    
C56   H45   1.110137 S    
C4    C6    1.465223 S    
C57   H48   1.106812 S    
C28   C52   1.513139 S    
C35   C36   1.417170 A    
C55   H41   1.108211 S    
C46   H13   1.109634 S    
C56   H46   1.106466 S    
C24   C26   1.407489 A    
O3    Cu1   1.957220 S    
C23   C45   1.531045 S    
Cu2   N2    2.022717 S    
C44   H12   1.109892 S    
C30   N2    1.385631 A    
C18   C24   1.412453 A    
Cu1   Cu2   2.692165 S    
O4    Cu2   1.957220 S    
C55   H42   1.106616 S    
O2    C2    1.290999 A    
C58   H51   1.109984 S    
C26   C50   1.516056 S    
C34   C36   1.405818 A    
C27   C51   1.511462 S    
C22   C25   1.417024 A    
C47   C48   1.530961 S    
C37   C55   1.520477 S    
O8    Cu2   1.787599 S    
C47   H22   1.110891 S    
C51   H29   1.106797 S    
C25   C49   1.521405 S    
C31   C37   1.426839 A    
C42   H6    1.109578 S    
C29   C31   1.430710 A    
C44   H11   1.109908 S    
C48   H18   1.111041 S    
C39   C57   1.520498 S    
C43   H9    1.104991 S    
C19   C20   1.408107 A    
C51   H30   1.108561 S    
C29   C53   1.508796 S    
C53   H35   1.106602 S    
O5    Cu1   1.787509 S    
O6    C4    1.306261 A    
C57   H49   1.110277 S    
C53   H37   1.099062 S    
C46   H15   1.110653 S    
C38   C39   1.428930 A    
C48   H19   1.108796 S    
C45   H16   1.106599 S    
C54   H39   1.100094 S    
C15   C43   1.518925 S    
C53   H36   1.108454 S    
C50   H27   1.107050 S    
C55   H43   1.110376 S    
C12   C14   1.401233 A    
O1    Cu1   1.956011 S    
C27   C33   1.431505 A    
C41   H3    1.104424 S    
C32   C38   1.427221 A    
C5    C7    1.223751 T    
O6    Cu2   1.787508 S    
C56   H44   1.107885 S    
C49   H24   1.107725 S    
C16   C44   1.515672 S    
C37   C40   1.428891 A    
O4    C1    1.294505 A    
C47   H21   1.104511 S    
C58   H50   1.108087 S    
C52   H33   1.103835 S    
C15   C17   1.405689 A    
C16   C18   1.413662 A    
C9    C10   1.224057 T    
C11   C13   1.418452 A    
C19   C21   1.429240 A    
C51   H31   1.101948 S    
C20   C22   1.415659 A    
C48   H20   1.110457 S    
C42   H4    1.108705 S    
C1    C14   1.451977 S    
C2    C13   1.457798 S    
C18   C20   1.413689 A    
C38   C56   1.521151 S    
C7    C9    1.441798 S    
C45   H17   1.109237 S    
C54   H40   1.108630 S    
C8    C10   1.441845 S    
C13   C15   1.400560 A    
C27   N1    1.385159 A    
C43   H7    1.110933 S    
O2    Cu2   1.956011 S    
O7    C4    1.306387 A    
C28   C34   1.431639 A    
C42   H5    1.106274 S    
O8    C3    1.306358 A    
C40   C58   1.520725 S    
C30   C32   1.430637 A    
C49   H25   1.108844 S    
C6    C8    1.223830 T    
C44   H10   1.108990 S    
C50   H28   1.106097 S    
C54   H38   1.107195 S    
C21   C26   1.434739 A    
C46   H14   1.110366 S    
C31   C35   1.404368 A    
C32   C36   1.404664 A    
C24   C47   1.532220 S    
C30   C54   1.509888 S    
