data_mof_unit_39344.cif
_audit_creation_date              2012-12-10T17:15:51-0500
_audit_creation_method            fapswitch 2.2
_symmetry_space_group_name_H-M    P1
_symmetry_Int_Tables_number       1
_space_group_crystal_system       triclinic
_cell_length_a                    10.168358
_cell_length_b                    10.627263
_cell_length_c                    10.649282
_cell_angle_alpha                 91.189461
_cell_angle_beta                  95.048328
_cell_angle_gamma                 81.690661
_cell_volume                      1134.24516349

loop_
_atom_site_label
_atom_site_type_symbol
_atom_type_description
_atom_site_fract_x
_atom_site_fract_y
_atom_site_fract_z
_atom_type_partial_charge
C1    C     C_R   0.445043 0.497402 0.266567 0.811559
C2    C     C_R   0.478972 0.064515 0.377392 0.097787
C3    C     C_R   0.496023 0.128741 0.493254 -0.147761
C4    C     C_R   0.509572 0.067340 0.608461 -0.249261
C5    C     C_R   0.509928 0.938396 0.611101 0.374435
C6    C     C_R   0.499877 0.871551 0.496974 -0.183176
C7    C     C_2   0.415873 0.467354 0.133332 0.189461
C8    C     C_2   0.514776 0.409243 0.065552 0.369453
C9    C     C_2   0.585668 0.462339 0.865858 -0.368070
C10   C     C_2   0.494291 0.418338 0.929054 -0.241878
C11   C     C_2   0.074178 0.478282 0.503554 -0.273489
C12   C     C_R   0.498857 0.260745 0.497810 0.859880
C13   C     C_2   0.926957 0.505378 0.519609 0.496154
C14   C     C_R   0.555329 0.487631 0.733288 0.961181
C15   C     C_R   0.500904 0.739209 0.502098 0.954690
C16   C     C_R   0.456159 0.128580 0.260954 -0.187145
C17   C     C_R   0.437429 0.061431 0.148331 -0.153857
C18   C     C_R   0.443567 0.929865 0.149724 -0.081634
C19   C     C_R   0.466084 0.865282 0.263935 -0.146727
C20   C     C_R   0.482606 0.932372 0.379151 0.032107
H1    H     H_    0.519514 0.120159 0.696288 0.160767
H2    H     H_    0.111982 0.395259 0.449470 0.149469
H3    H     H_    0.881687 0.381206 0.386096 0.120999
H4    H     H_    0.118007 0.635923 0.591290 0.212137
H5    H     H_    0.451491 0.230429 0.256562 0.107180
H6    H     H_    0.418128 0.111335 0.059642 0.129103
H7    H     H_    0.429868 0.877796 0.062218 0.185117
H8    H     H_    0.468813 0.763211 0.261198 0.130009
H9    H     H_    0.398394 0.402292 0.882722 0.189035
H10   H     H_    0.681257 0.479446 0.911771 0.172409
N1    N     N_2   0.157290 0.551390 0.551110 -0.185355
N2    N     N_2   0.842740 0.448550 0.448960 -0.208615
O1    O     O_R   0.568950 0.489660 0.307530 -0.563659
O2    O     O_R   0.348880 0.522640 0.340350 -0.600509
O3    O     O_R   0.610060 0.300270 0.483590 -0.611937
O4    O     O_R   0.389990 0.333260 0.516410 -0.625686
O5    O     O_R   0.651120 0.477360 0.659650 -0.604484
O6    O     O_R   0.431050 0.510340 0.692470 -0.583105
O7    O     O_R   0.610010 0.666740 0.483590 -0.561124
O8    O     O_R   0.389940 0.699730 0.516410 -0.594423
Zn1   Zn    Zn3+2 0.646940 0.477980 0.478090 1.007514
Zn2   Zn    Zn3+2 0.353060 0.522020 0.521910 0.969416
O9    O     O_3   0.286579 0.498263 0.078765 -0.609871
C21   C     C_3   0.216714 0.395323 0.097914 0.090634
H11   H     H_    0.219692 0.371984 0.199768 0.148601
H12   H     H_    0.259238 0.309377 0.045556 0.119796
C22   C     C_3   0.071391 0.429765 0.049275 -0.806168
H13   H     H_    0.064507 0.445980 0.946425 0.237109
H14   H     H_    0.015357 0.350633 0.067227 0.203437
H15   H     H_    0.026327 0.516953 0.097709 0.266804
O10   O     O_3   0.877804 0.599451 0.602335 -0.560099
C23   C     C_3   0.919097 0.562120 0.728006 0.070600
H16   H     H_    0.028834 0.553600 0.748374 0.132916
H17   H     H_    0.887834 0.469156 0.748923 0.143434
C24   C     C_3   0.856272 0.662766 0.816815 -0.726693
H18   H     H_    0.746176 0.672827 0.801040 0.287775
H19   H     H_    0.886141 0.635228 0.916236 0.199550
H20   H     H_    0.889119 0.755698 0.799749 0.262257
Cl1   Cl    Cl    0.521080 0.863886 0.758894 -0.689583
O11   O     O_3   0.640959 0.364765 0.123953 -0.599759
C25   C     C_3   0.697650 0.249306 0.069183 0.102440
H21   H     H_    0.755473 0.269285 0.989965 0.151514
H22   H     H_    0.621574 0.188705 0.033699 0.140525
C26   C     C_3   0.793048 0.174129 0.167795 -0.792150
H23   H     H_    0.739054 0.154483 0.249819 0.268487
H24   H     H_    0.836828 0.082379 0.126545 0.216777
H25   H     H_    0.874849 0.228921 0.200403 0.233702

loop_
_geom_bond_atom_site_label_1
_geom_bond_atom_site_label_2
_ccdc_geom_bond_type
C25   C26   S    
N2    Zn1   S    
C21   C22   S    
C4    H1    S    
N1    Zn2   S    
C7    O9    S    
C12   O4    A    
C6    C20   A    
C9    C10   D    
C13   N2    D    
O4    Zn2   S    
C19   C20   A    
O2    Zn2   S    
C23   C24   S    
C9    C14   S    
O1    Zn1   S    
H3    N2    S    
C24   H18   S    
O8    Zn2   S    
C17   C18   A    
H4    N1    S    
C11   N1    D    
C7    C8    D    
C22   H14   S    
C13   O10   S    
C23   H16   S    
C26   H23   S    
C14   O5    A    
C19   H8    S    
C11   C13   S    
C10   H9    S    
C15   O7    A    
C25   H21   S    
C9    H10   S    
C17   H6    S    
C8    C10   S    
C23   H17   S    
C1    O2    A    
O6    Zn2   S    
C22   H15   S    
C2    C3    A    
C24   H19   S    
O9    C21   S    
O5    Zn1   S    
C5    C6    A    
O3    Zn1   S    
C12   O3    A    
C15   O8    A    
C14   O6    A    
C5    Cl1   S    
C1    O1    A    
C3    C4    A    
C26   H25   S    
C2    C16   A    
C21   H11   S    
O7    Zn1   S    
C18   C19   A    
C24   H20   S    
C16   H5    S    
C25   H22   S    
O11   C25   S    
C3    C12   S    
C11   H2    S    
C6    C15   S    
C1    C7    S    
C2    C20   A    
C8    O11   S    
C18   H7    S    
O10   C23   S    
C16   C17   A    
C21   H12   S    
C4    C5    A    
C22   H13   S    
C26   H24   S    
