data_mof_unit_13244.cif
_audit_creation_date              2012-12-10T17:44:36-0500
_audit_creation_method            fapswitch 2.2
_symmetry_space_group_name_H-M    P1
_symmetry_Int_Tables_number       1
_space_group_crystal_system       triclinic
_cell_length_a                    9.973234
_cell_length_b                    10.681952
_cell_length_c                    15.437801
_cell_angle_alpha                 92.732048
_cell_angle_beta                  67.651052
_cell_angle_gamma                 88.313253
_cell_volume                      1517.36384532

loop_
_atom_site_label
_atom_site_type_symbol
_atom_type_description
_atom_site_fract_x
_atom_site_fract_y
_atom_site_fract_z
_atom_type_partial_charge
C1    C     C_R   0.507186 0.736838 0.485477 0.896043
C2    C     C_R   0.705166 0.355118 0.041119 0.047892
C3    C     C_R   0.570937 0.420874 0.092250 0.070410
C4    C     C_R   0.408510 0.495262 0.676006 0.863274
C5    C     C_R   0.813578 0.346402 0.080053 -0.027277
C6    C     C_R   0.785414 0.403231 0.171248 0.483787
C7    C     C_R   0.548599 0.477891 0.179620 -0.357479
C8    C     C_R   0.308203 0.888029 0.414892 0.574507
C9    C     C_R   0.175498 0.951681 0.431454 -0.187792
C10   C     C_R   0.134762 0.060885 0.490071 -0.290097
C11   C     C_R   0.233065 0.113778 0.523922 -0.163650
C12   C     C_R   0.403109 0.438601 0.915578 0.102948
C13   C     C_R   0.375563 0.059087 0.496786 0.051416
C14   C     C_R   0.399462 0.935391 0.458913 -0.114985
C15   C     C_R   0.519783 0.866646 0.460685 -0.244492
C16   C     C_R   0.498127 0.259073 0.503871 0.877653
C17   C     C_R   0.644265 0.928844 0.454755 0.492044
C18   C     C_R   0.631827 0.056898 0.476690 -0.341252
C19   C     C_R   0.497749 0.122862 0.500216 -0.162805
C20   C     C_R   0.802807 0.706970 0.589829 0.230911
C21   C     C_R   0.862528 0.821318 0.594938 -0.121349
C22   C     C_R   0.994251 0.819887 0.604454 -0.330927
C23   C     C_R   0.261165 0.485811 0.972427 0.153453
C24   C     C_R   0.075938 0.707065 0.591087 0.159984
C25   C     C_R   0.043206 0.601131 0.543925 0.132715
C26   C     C_R   0.898986 0.601166 0.543546 0.074318
C27   C     C_R   0.955369 0.403022 0.460633 -0.140704
C28   C     C_R   0.591794 0.494376 0.323550 0.878622
C29   C     C_R   0.098453 0.403813 0.459246 -0.139989
C30   C     C_R   0.350025 0.481261 0.777851 -0.093122
C31   C     C_R   0.647924 0.463262 0.221590 -0.187298
C32   C     C_R   0.160431 0.513810 0.932519 -0.250633
C33   C     C_R   0.201166 0.501479 0.835247 0.097423
C34   C     C_R   0.499772 0.397920 0.957797 0.063050
C35   C     C_R   0.448062 0.446865 0.818699 -0.285414
C36   C     C_3   0.847088 0.865961 0.325908 0.014061
C37   C     C_3   0.825493 0.744673 0.277435 -0.272451
C38   C     C_3   0.888336 0.751147 0.170923 -1.009399
C39   C     C_3   0.459140 0.826921 0.264188 0.063992
C40   C     C_3   0.389671 0.892112 0.203792 -0.389323
C41   C     C_3   0.299230 0.803753 0.170595 -0.827071
C42   C     C_3   0.986118 0.325723 0.205073 0.123049
C43   C     C_3   0.908230 0.217815 0.262112 -0.388275
C44   C     C_3   0.016592 0.133266 0.284176 -1.020368
C45   C     C_R   0.463156 0.432501 0.053950 0.070713
C46   C     C_R   0.319576 0.478141 0.109042 -0.274592
C47   C     C_R   0.220952 0.504344 0.068521 -0.253267
C48   C     C_R   0.628690 0.321682 0.909484 0.072708
C49   C     C_R   0.728751 0.301235 0.951506 -0.284434
H1    H     H_    0.113811 0.542771 0.112495 0.206708
H2    H     H_    0.173919 0.325224 0.425044 0.157895
H3    H     H_    0.825575 0.243086 0.912119 0.143591
H4    H     H_    0.049046 0.541492 0.977286 0.150405
H5    H     H_    0.561415 0.432710 0.774545 0.186849
H6    H     H_    0.278547 0.492078 0.184449 0.163434
H7    H     H_    0.996524 0.317221 0.961816 0.194504
H8    H     H_    0.931541 0.186232 0.018306 0.176279
H9    H     H_    0.965352 0.871535 0.307737 0.168049
H10   H     H_    0.811509 0.948281 0.296456 0.148990
H11   H     H_    0.879634 0.664661 0.296979 0.267525
H12   H     H_    0.103125 0.914867 0.400397 0.174446
H13   H     H_    0.708275 0.729222 0.300216 0.197692
H14   H     H_    0.833736 0.829670 0.150168 0.254254
H15   H     H_    0.870600 0.662515 0.137299 0.282598
H16   H     H_    0.006637 0.765113 0.145086 0.267736
H17   H     H_    0.525247 0.743262 0.223243 0.164444
H18   H     H_    0.538253 0.889875 0.276384 0.086151
H19   H     H_    0.321055 0.975621 0.243376 0.216281
H20   H     H_    0.477236 0.925804 0.141219 0.186390
H21   H     H_    0.370940 0.727338 0.122786 0.264472
H22   H     H_    0.245195 0.856283 0.131470 0.232104
H23   H     H_    0.028342 0.106108 0.507539 0.167100
H24   H     H_    0.214810 0.762915 0.231055 0.278060
H25   H     H_    0.681333 0.610331 0.703435 0.195140
H26   H     H_    0.579989 0.712711 0.661181 0.218578
H27   H     H_    0.081511 0.701133 0.718364 0.176516
H28   H     H_    0.217866 0.773835 0.644698 0.171056
H29   H     H_    0.057316 0.364700 0.239030 0.165525
H30   H     H_    0.062542 0.292451 0.134189 0.178698
H31   H     H_    0.821457 0.256298 0.328304 0.243855
H32   H     H_    0.856118 0.161794 0.222206 0.199967
H33   H     H_    0.072640 0.063889 0.224320 0.273590
H34   H     H_    0.195514 0.196755 0.571039 0.172192
H35   H     H_    0.959004 0.084309 0.348396 0.264843
H36   H     H_    0.100036 0.187399 0.298578 0.259609
H37   H     H_    0.087548 0.417468 0.767693 0.185128
H38   H     H_    0.989687 0.529822 0.848050 0.171276
H39   H     H_    0.658446 0.157929 0.831533 0.189897
H40   H     H_    0.753457 0.276874 0.773049 0.172633
H41   H     H_    0.727928 0.104495 0.473134 0.178154
H42   H     H_    0.923206 0.322485 0.430289 0.160037
H43   H     H_    0.791840 0.905183 0.621295 0.156425
H44   H     H_    0.452626 0.536804 0.217441 0.203805
H45   H     H_    0.021858 0.902435 0.636444 0.168234
N1    N     N_R   0.856800 0.501200 0.500850 -0.105030
N2    N     N_R   0.142390 0.501280 0.500880 -0.095335
N3    N     N_3   0.950129 0.280800 0.027611 -0.483843
N4    N     N_3   0.675437 0.693366 0.671762 -0.476732
N5    N     N_3   0.156896 0.694567 0.649182 -0.360427
N6    N     N_3   0.092252 0.507511 0.795757 -0.450564
N7    N     N_3   0.652766 0.253917 0.821977 -0.474177
O1    O     O_R   0.385310 0.683220 0.500000 -0.579797
O2    O     O_3   0.353386 0.787513 0.348639 -0.621510
O3    O     O_3   0.892559 0.428130 0.205977 -0.666087
O4    O     O_R   0.614640 0.683250 0.500010 -0.588920
O5    O     O_R   0.319840 0.499980 0.632240 -0.576556
O6    O     O_R   0.549160 0.500000 0.632250 -0.640967
O7    O     O_R   0.385360 0.316750 0.499990 -0.632274
O8    O     O_R   0.614690 0.316780 0.500000 -0.629395
O9    O     O_R   0.450840 0.500000 0.367750 -0.589613
O10   O     O_R   0.680160 0.500020 0.367760 -0.586450
O11   O     O_3   0.778711 0.865285 0.425061 -0.631202
Zn1   Zn    Zn3+2 0.346880 0.499980 0.499990 0.967769
Zn2   Zn    Zn3+2 0.653120 0.500020 0.500010 0.943470

loop_
_geom_bond_atom_site_label_1
_geom_bond_atom_site_label_2
_ccdc_geom_bond_type
C27   C29   A    
C24   N5    S    
C27   N1    A    
C36   H10   S    
H39   N7    S    
H25   N4    S    
C45   C46   A    
H27   N5    S    
C12   C23   A    
C30   C35   A    
C9    H12   S    
C36   C37   S    
C38   H14   S    
C3    C7    A    
C36   H9    S    
C5    C6    A    
N1    Zn2   S    
C18   C19   A    
C8    C9    A    
C46   H6    S    
C36   O11   S    
C27   H42   S    
C1    C15   S    
C6    O3    S    
H37   N6    S    
C9    C10   A    
C41   H22   S    
C6    C31   A    
C42   H30   S    
C13   C14   A    
C35   H5    S    
C22   H45   S    
H7    N3    S    
C16   O8    A    
C37   H13   S    
C47   H1    S    
C38   H15   S    
C28   O10   A    
C7    H44   S    
C4    O6    A    
C7    C31   A    
C40   H20   S    
C13   C19   A    
O5    Zn1   S    
C18   H41   S    
O4    Zn2   S    
C23   C47   A    
C24   C25   A    
C39   C40   S    
C11   H34   S    
C43   H31   S    
C4    O5    A    
C3    C45   A    
H26   N4    S    
O7    Zn1   S    
C43   C44   S    
O6    Zn2   S    
C37   C38   S    
C2    C49   A    
C38   H16   S    
C49   H3    S    
H8    N3    S    
C17   C18   A    
C34   C45   A    
C12   C35   A    
O9    Zn1   S    
O8    Zn2   S    
C48   C49   A    
C5    N3    S    
C42   H29   S    
C43   H32   S    
C39   H17   S    
C22   C24   A    
N2    Zn1   S    
C2    C5    A    
C34   C48   A    
C42   C43   S    
C12   C34   A    
C44   H36   S    
C17   O11   S    
C32   H4    S    
H38   N6    S    
C29   H2    S    
C26   N1    A    
C15   C17   A    
C46   C47   A    
C40   C41   S    
C8    C14   A    
C30   C33   A    
H40   N7    S    
C39   H18   S    
C28   C31   S    
C44   H35   S    
C42   O3    S    
C29   N2    A    
C39   O2    S    
C44   H33   S    
C33   N6    S    
C28   O9    A    
C23   C32   A    
C2    C3    A    
C25   C26   A    
O1    Zn1   S    
C32   C33   A    
C11   C13   A    
C20   C26   A    
C16   C19   S    
C48   N7    S    
H28   N5    S    
O10   Zn2   S    
C8    O2    S    
C37   H11   S    
C10   C11   A    
C16   O7    A    
C41   H24   S    
C20   N4    S    
C20   C21   A    
C25   N2    A    
C40   H19   S    
C14   C15   A    
C21   C22   A    
C1    O1    A    
C4    C30   S    
C1    O4    A    
C41   H21   S    
C21   H43   S    
C10   H23   S    
