data_mof_unit_55500.cif
_audit_creation_date              2012-10-26T18:50:25-0400
_audit_creation_method            fapswitch 2.2
_symmetry_space_group_name_H-M    P1
_symmetry_Int_Tables_number       1
_space_group_crystal_system       triclinic
_cell_length_a                    9.604893
_cell_length_b                    10.766853
_cell_length_c                    15.546864
_cell_angle_alpha                 87.354835
_cell_angle_beta                  73.92688
_cell_angle_gamma                 90.07942
_cell_volume                      1543.10746585

loop_
_atom_site_label
_atom_site_type_symbol
_atom_type_description
_atom_site_fract_x
_atom_site_fract_y
_atom_site_fract_z
_atom_type_partial_charge
C1    C     C_R   0.998764 0.262611 0.502810 0.531531
C2    C     C_R   0.221007 0.491824 0.041969 0.009732
C3    C     C_R   0.324980 0.505800 0.090005 0.026096
C4    C     C_R   0.917847 0.502069 0.671719 0.533495
C5    C     C_R   0.073231 0.482936 0.087721 -0.163298
C6    C     C_R   0.027775 0.489279 0.180552 -0.195397
C7    C     C_R   0.279024 0.487072 0.184267 0.240611
C8    C     C_R   0.078053 0.119759 0.646369 -0.111813
C9    C     C_R   0.117699 0.050234 0.713508 -0.125820
C10   C     C_R   0.117856 0.921072 0.713364 -0.119381
C11   C     C_R   0.078543 0.860682 0.646019 -0.098761
C12   C     C_R   0.668590 0.528909 0.903342 0.034320
C13   C     C_R   0.040123 0.929256 0.576373 0.027932
C14   C     C_R   0.039877 0.060555 0.576551 0.024496
C15   C     C_R   0.996358 0.128446 0.508505 -0.001312
C16   C     C_R   0.999083 0.737109 0.502308 0.526123
C17   C     C_R   0.948897 0.067865 0.444169 -0.157046
C18   C     C_R   0.949029 0.939766 0.444028 -0.157022
C19   C     C_R   0.996810 0.870519 0.508156 0.005647
C20   C     C_R   0.698668 0.663750 0.379688 -0.089855
C21   C     C_R   0.653214 0.744706 0.321172 -0.181555
C22   C     C_R   0.509413 0.746300 0.321940 -0.168587
C23   C     C_R   0.765808 0.575649 0.948496 0.049544
C24   C     C_R   0.410316 0.666388 0.380815 -0.044443
C25   C     C_R   0.451852 0.581388 0.441261 0.167925
C26   C     C_R   0.601513 0.580751 0.440979 0.156715
C27   C     C_R   0.548600 0.422870 0.556032 -0.004977
C28   C     C_R   0.082549 0.496761 0.328087 0.541427
C29   C     C_R   0.400809 0.422765 0.555912 -0.015714
C30   C     C_R   0.871065 0.517936 0.768512 -0.002274
C31   C     C_R   0.129954 0.491571 0.229729 0.003258
C32   C     C_R   0.912698 0.595310 0.902890 -0.145361
C33   C     C_R   0.965121 0.566748 0.813308 -0.151055
C34   C     C_R   0.518408 0.516340 0.948718 0.022654
C35   C     C_R   0.725209 0.496276 0.814222 -0.126733
C36   C     C_3   0.422368 0.332751 0.220056 0.006829
C37   C     C_3   0.341885 0.250594 0.301797 -0.234977
C38   C     C_3   0.392194 0.116182 0.293772 -0.496279
C39   C     C_R   0.471812 0.532376 0.042354 0.030590
C40   C     C_R   0.570578 0.582735 0.084475 -0.122616
C41   C     C_R   0.714858 0.604541 0.038089 -0.156820
C42   C     C_R   0.412521 0.494005 0.903243 -0.141871
C43   C     C_R   0.266062 0.485822 0.949033 -0.140177
Cu1   Cu    Cu3+1 0.140660 0.499990 0.500010 0.908395
Cu2   Cu    Cu3+1 0.859340 0.500010 0.499990 0.915942
H1    H     H_    0.786972 0.643847 0.072725 0.106887
H2    H     H_    0.811038 0.670559 0.374047 0.179287
H3    H     H_    0.730366 0.807027 0.275087 0.110660
H4    H     H_    0.474088 0.809890 0.276432 0.112019
H5    H     H_    0.302942 0.675659 0.375669 0.185129
H6    H     H_    0.324959 0.359431 0.601768 0.110643
H7    H     H_    0.912683 0.488254 0.213967 0.141260
H8    H     H_    0.187948 0.472651 0.911497 0.111129
H9    H     H_    0.986524 0.634905 0.936111 0.106167
H10   H     H_    0.077928 0.585923 0.778591 0.118890
H11   H     H_    0.657841 0.452614 0.778868 0.114295
H12   H     H_    0.992606 0.473055 0.051673 0.123929
H13   H     H_    0.536481 0.612337 0.152430 0.174329
H14   H     H_    0.438551 0.489621 0.831412 0.103695
H15   H     H_    0.540226 0.329970 0.214281 0.148150
H16   H     H_    0.408334 0.293512 0.157660 0.119465
H17   H     H_    0.361412 0.287564 0.363079 0.209741
H18   H     H_    0.223692 0.252270 0.308566 0.165604
H19   H     H_    0.371867 0.076364 0.233633 0.142015
H20   H     H_    0.331214 0.059694 0.354075 0.161358
H21   H     H_    0.509659 0.111252 0.288800 0.146890
H22   H     H_    0.914436 0.120277 0.392632 0.122826
H23   H     H_    0.074986 0.219620 0.651042 0.128772
H24   H     H_    0.146557 0.096775 0.766540 0.108958
H25   H     H_    0.146778 0.867312 0.766286 0.111739
H26   H     H_    0.076127 0.760288 0.650348 0.142405
H27   H     H_    0.914528 0.894377 0.392421 0.108825
H28   H     H_    0.582950 0.359628 0.602030 0.115609
N1    N     N_R   0.648320 0.501210 0.499140 -0.242258
N2    N     N_R   0.352470 0.501290 0.499110 -0.249100
O1    O     O_R   0.118810 0.319640 0.500010 -0.518889
O2    O     O_R   0.881240 0.319660 0.500000 -0.494954
O3    O     O_R   0.055570 0.499980 0.629840 -0.516089
O4    O     O_R   0.818000 0.500010 0.629830 -0.499700
O5    O     O_R   0.118760 0.680340 0.500000 -0.532512
O6    O     O_R   0.881190 0.680360 0.499990 -0.509904
O7    O     O_R   0.182000 0.499990 0.370170 -0.467490
O8    O     O_R   0.944430 0.500020 0.370160 -0.533989
O9    O     O_3   0.378254 0.457989 0.231945 -0.575914

loop_
_geom_bond_atom_site_label_1
_geom_bond_atom_site_label_2
_ccdc_geom_bond_type
C33   H10   S    
C27   C29   A    
C1    O2    A    
C34   C42   A    
C37   H17   S    
C12   C23   A    
C30   C35   A    
C21   C22   A    
C36   C37   S    
C9    H24   S    
Cu1   O7    S    
C5    C6    A    
C11   H26   S    
C18   C19   A    
Cu1   O1    S    
C43   H8    S    
C38   H21   S    
C8    C9    A    
C41   H1    S    
C1    C15   S    
C27   N1    A    
C9    C10   A    
C21   H3    S    
C6    C31   A    
C3    C39   A    
C13   C14   A    
C28   O8    A    
C18   H27   S    
Cu2   O8    S    
C32   H9    S    
C37   H18   S    
C38   H19   S    
C24   H5    S    
C17   H22   S    
C40   H13   S    
C13   C19   A    
C28   O7    A    
C34   C39   A    
Cu1   O5    S    
C7    C31   A    
C24   C25   A    
C4    O4    A    
C39   C40   A    
C25   C26   A    
Cu2   N1    S    
C16   O5    A    
Cu1   N2    S    
C4    O3    A    
C37   C38   S    
C38   H20   S    
C2    C43   A    
C17   C18   A    
Cu2   O4    S    
C12   C35   A    
C22   H4    S    
C10   H25   S    
C40   C41   A    
C8    H23   S    
C22   C24   A    
C2    C5    A    
C42   C43   A    
C12   C34   A    
C36   H16   S    
Cu1   Cu2   S    
C29   H6    S    
C15   C17   A    
C8    C14   A    
C30   C33   A    
C35   H11   S    
C1    O1    A    
C28   C31   S    
Cu2   O6    S    
C36   H15   S    
C42   H14   S    
C29   N2    A    
C3    C7    A    
C23   C41   A    
C5    H12   S    
C6    H7    S    
C23   C32   A    
Cu1   O3    S    
C2    C3    A    
C32   C33   A    
C11   C13   A    
C20   C26   A    
C36   O9    S    
C16   C19   S    
C16   O6    A    
C26   N1    A    
C7    O9    S    
C20   H2    S    
C10   C11   A    
C20   C21   A    
C14   C15   A    
Cu2   O2    S    
C25   N2    A    
C27   H28   S    
C4    C30   S    
