data_mof_unit_60573.cif
_audit_creation_date              2012-12-10T17:22:02-0500
_audit_creation_method            fapswitch 2.2
_symmetry_space_group_name_H-M    P1
_symmetry_Int_Tables_number       1
_space_group_crystal_system       triclinic
_cell_length_a                    10.225294
_cell_length_b                    10.471711
_cell_length_c                    15.754871
_cell_angle_alpha                 90.124106
_cell_angle_beta                  81.600327
_cell_angle_gamma                 94.813904
_cell_volume                      1662.90369306

loop_
_atom_site_label
_atom_site_type_symbol
_atom_type_description
_atom_site_fract_x
_atom_site_fract_y
_atom_site_fract_z
_atom_type_partial_charge
Br1   Br    Br    0.219550 0.381653 0.942587 -0.383646
Br2   Br    Br    0.271557 0.034737 0.559782 -0.346231
Br3   Br    Br    0.132153 0.362552 0.409378 -0.372373
Br4   Br    Br    0.778559 0.602791 0.873176 -0.321146
Br5   Br    Br    0.567183 0.779506 0.920347 -0.223208
Br6   Br    Br    0.663289 0.730958 0.104638 -0.261879
C1    C     C_R   0.554815 0.734800 0.491299 0.911930
C2    C     C_2   0.509861 0.934877 0.427876 -0.077946
C3    C     C_2   0.418415 0.128640 0.490509 0.156642
C4    C     C_R   0.500424 0.500039 0.661325 0.906267
C5    C     C_2   0.505408 0.072918 0.432893 -0.220039
C6    C     C_2   0.929808 0.517826 0.502147 -0.071223
C7    C     C_2   0.072992 0.490260 0.491106 0.272873
C8    C     C_R   0.445095 0.265218 0.503005 0.854888
C9    C     C_R   0.498640 0.495609 0.338870 0.930810
C10   C     C_3   0.351385 0.522207 0.964670 0.018428
C11   C     C_3   0.603433 0.602752 0.943446 0.385423
C12   C     C_3   0.358987 0.526380 0.064264 -0.325652
C13   C     C_3   0.616007 0.577822 0.039145 0.090434
C14   C     C_1   0.496598 0.488906 0.250594 -0.011685
C15   C     C_3   0.496592 0.497252 0.917048 -0.111103
C16   C     C_2   0.318601 0.648282 0.111104 0.986357
C17   C     C_2   0.633170 0.281254 0.076307 0.965430
C18   C     C_2   0.434057 0.869721 0.364451 1.016864
C19   C     C_2   0.676707 0.942162 0.529957 1.020046
C20   C     C_2   0.889179 0.629051 0.553668 0.974326
C21   C     C_2   0.285732 0.635461 0.931426 1.067614
C22   C     C_2   0.656009 0.311372 0.893250 1.022682
C23   C     C_3   0.496733 0.483754 0.083547 -0.107223
C24   C     C_2   0.396485 0.247984 0.082262 0.958865
C25   C     C_3   0.515528 0.342970 0.046748 -0.251160
C26   C     C_3   0.529752 0.357834 0.944555 -0.371160
C27   C     C_1   0.496278 0.484915 0.175517 0.133683
C28   C     C_1   0.499241 0.498945 0.825144 0.122704
C29   C     C_1   0.500859 0.499399 0.749844 0.010464
C30   C     C_2   0.583111 0.873041 0.477877 -0.267249
H1    H     H_    0.281963 0.452734 0.094464 0.218489
H2    H     H_    0.804747 0.096194 0.542730 0.374094
H3    H     H_    0.818409 0.696692 0.669699 0.389616
H4    H     H_    0.270794 0.756736 0.834281 0.383632
H5    H     H_    0.853812 0.297397 0.880464 0.394035
H6    H     H_    0.267821 0.181207 0.185410 0.385551
H7    H     H_    0.583855 0.129912 0.392085 0.194473
H8    H     H_    0.123666 0.617809 0.578631 0.178383
H9    H     H_    0.871942 0.370239 0.431019 0.229940
H10   H     H_    0.707368 0.528089 0.038357 0.217570
H11   H     H_    0.453184 0.290865 0.921891 0.243482
H12   H     H_    0.342243 0.840571 0.121328 0.385209
H13   H     H_    0.787855 0.292899 0.143304 0.382288
H14   H     H_    0.430831 0.742092 0.269508 0.354695
N1    N     N_2   0.842720 0.448890 0.465540 -0.210043
N2    N     N_2   0.157250 0.551040 0.534500 -0.194342
O1    O     O_R   0.431050 0.692470 0.506940 -0.595767
O2    O     O_R   0.379150 0.768703 0.084450 -0.710185
O3    O     O_2   0.653403 0.171107 0.055221 -0.517950
O4    O     O_R   0.715672 0.346139 0.128696 -0.782066
O5    O     O_2   0.327051 0.905808 0.353312 -0.543139
O6    O     O_R   0.489020 0.773314 0.313428 -0.801289
O7    O     O_2   0.695943 0.895101 0.597562 -0.579355
O8    O     O_R   0.744288 0.059465 0.501517 -0.765742
O9    O     O_2   0.908182 0.736152 0.521241 -0.558995
O10   O     O_R   0.839602 0.612864 0.640709 -0.751294
O11   O     O_2   0.185808 0.672271 0.973499 -0.524768
O12   O     O_R   0.651130 0.659650 0.484820 -0.577914
O13   O     O_R   0.326527 0.686503 0.848900 -0.768386
O14   O     O_2   0.647823 0.250875 0.827391 -0.560060
O15   O     O_R   0.780045 0.334686 0.920464 -0.731352
O16   O     O_2   0.354806 0.163047 0.037221 -0.521255
O17   O     O_R   0.342837 0.250325 0.169183 -0.796567
O18   O     O_R   0.389910 0.516410 0.633920 -0.590885
O19   O     O_R   0.609990 0.483590 0.611800 -0.575891
O20   O     O_R   0.348870 0.340350 0.515180 -0.550184
O21   O     O_R   0.568950 0.307530 0.493060 -0.616149
O22   O     O_R   0.390010 0.516410 0.388200 -0.569048
O23   O     O_R   0.610090 0.483590 0.366080 -0.593392
O24   O     O_2   0.229979 0.640105 0.172611 -0.555592
Zn1   Zn    Zn3+2 0.353060 0.521920 0.514770 1.074730
Zn2   Zn    Zn3+2 0.646940 0.478080 0.485230 1.051618

loop_
_geom_bond_atom_site_label_1
_geom_bond_atom_site_label_2
_ccdc_geom_bond_type
C17   C25   S    
H12   O2    S    
O1    Zn1   S    
C3    C8    S    
C5    H7    S    
C10   C15   S    
C21   O13   S    
C19   O8    S    
C7    N2    D    
C1    C30   S    
C22   O14   D    
C25   C26   S    
Br3   C7    S    
C16   O24   D    
C24   C25   S    
O21   Zn2   S    
C2    C18   S    
C8    O20   A    
C4    O19   A    
H8    N2    S    
C10   C21   S    
C20   O10   S    
C13   H10   S    
C17   O4    S    
C16   O2    S    
C12   C23   S    
C12   C16   S    
O18   Zn1   S    
C17   O3    D    
Br6   C13   S    
C3    C5    D    
O20   Zn1   S    
C21   O11   D    
C2    C5    S    
H2    O8    S    
Br4   C11   S    
C4    O18   A    
C18   O6    S    
C26   H11   S    
C11   C13   S    
C20   O9    D    
H4    O13   S    
H6    O17   S    
C9    C14   S    
C15   C26   S    
C11   C15   S    
C1    O12   A    
N1    Zn2   S    
C1    O1    A    
Br5   C11   S    
C14   C27   T    
C19   C30   S    
N2    Zn1   S    
H13   O4    S    
C8    O21   A    
C23   C27   S    
C22   C26   S    
C9    O22   A    
C6    C7    S    
H5    O15   S    
C10   C12   S    
C28   C29   T    
C2    C30   D    
Br1   C10   S    
H3    O10   S    
H9    N1    S    
C4    C29   S    
C18   O5    D    
C9    O23   A    
C15   C28   S    
C19   O7    D    
C24   O17   S    
O23   Zn2   S    
C23   C25   S    
Br2   C3    S    
O12   Zn2   S    
C13   C23   S    
C12   H1    S    
O19   Zn2   S    
C24   O16   D    
C6    N1    D    
C6    C20   S    
C22   O15   S    
O22   Zn1   S    
H14   O6    S    
