data_mof_unit_17175.cif
_audit_creation_date              2013-03-05T15:55:17-0500
_audit_creation_method            fapswitch 2.2
_symmetry_space_group_name_H-M    P1
_symmetry_Int_Tables_number       1
_space_group_crystal_system       triclinic
_cell_length_a                    6.9188
_cell_length_b                    17.063087
_cell_length_c                    16.8802
_cell_angle_alpha                 100.231677
_cell_angle_beta                  89.361178
_cell_angle_gamma                 90.72363
_cell_volume                      1960.8830644

loop_
_atom_site_label
_atom_site_type_symbol
_atom_site_description
_atom_site_fract_x
_atom_site_fract_y
_atom_site_fract_z
_atom_type_partial_charge
O1    O     O_R   0.494370 0.415690 0.413450 -0.574087
O2    O     O_R   0.819420 0.429360 0.578420 -0.582115
O3    O     O_R   0.994280 0.584310 0.586550 -0.591831
C1    C     C_R   0.650915 0.414714 0.606212 1.120603
O4    O     O_R   0.823790 0.406230 0.413570 -0.564539
O5    O     O_R   0.998670 0.561000 0.420530 -0.548329
C2    C     C_R   0.653054 0.382744 0.385291 1.113760
O6    O     O_R   0.489970 0.439000 0.579470 -0.574455
O7    O     O_3   0.662300 0.550810 0.502470 -0.242703
V1    V     V_3+5 0.935380 0.490570 0.499540 1.385525
O8    O     O_R   0.328650 0.570640 0.421580 -0.573198
C3    C     C_R   0.163635 0.585459 0.393541 1.096007
O9    O     O_R   0.324290 0.593770 0.586430 -0.578358
C4    C     C_R   0.155007 0.618139 0.613832 1.049346
V2    V     V_3+5 0.435930 0.509430 0.500460 1.381368
O10   O     O_3   0.159140 0.449190 0.497530 -0.240648
C5    C     C_R   0.295939 0.745655 0.694149 0.198648
C6    C     C_R   0.291512 0.807167 0.763274 0.488952
C7    C     C_R   0.125307 0.816353 0.814175 -0.262597
C8    C     C_R   0.972272 0.761449 0.797326 -0.205961
H1    H     H_    0.844118 0.766751 0.835268 0.178505
C9    C     C_R   0.984125 0.697626 0.732953 0.020153
H2    H     H_    0.865467 0.655428 0.723640 0.212126
C10   C     C_R   0.145043 0.688288 0.680872 -0.327796
C11   C     C_R   0.171086 0.639153 0.331848 -0.428817
C12   C     C_R   0.095607 0.867331 0.172774 -0.350755
C13   C     C_R   0.922773 0.822338 0.285184 0.346755
C14   C     C_R   0.945409 0.876731 0.231788 0.450435
C15   C     C_R   0.223202 0.804334 0.170252 -0.097458
C16   C     C_R   0.202267 0.748746 0.222889 -0.060645
C17   C     C_R   0.054177 0.758279 0.282876 -0.218591
C18   C     C_R   0.044356 0.704186 0.338928 0.570823
C19   C     C_R   0.320982 0.632002 0.272387 0.223542
C20   C     C_R   0.331546 0.684823 0.217038 0.320895
H3    H     H_    0.336314 0.797922 0.124835 0.179279
C21   C     C_R   0.649419 0.364179 0.670147 -0.395455
C22   C     C_R   0.610243 0.132606 0.826901 -0.371977
C23   C     C_R   0.434706 0.172354 0.714427 0.276227
C24   C     C_R   0.464248 0.118623 0.767698 0.266419
C25   C     C_R   0.727593 0.200560 0.830659 -0.024117
C26   C     C_R   0.700814 0.255163 0.777463 0.014872
C27   C     C_R   0.558487 0.239679 0.716347 -0.250540
C28   C     C_R   0.543338 0.292363 0.659475 0.547179
C29   C     C_R   0.781225 0.381499 0.734550 0.157207
C30   C     C_R   0.809600 0.326607 0.787333 0.491221
H4    H     H_    0.833722 0.212604 0.878117 0.199350
C31   C     C_R   0.767823 0.249457 0.311813 0.330375
C32   C     C_R   0.766182 0.188321 0.243692 0.469323
C33   C     C_R   0.624083 0.185897 0.183274 -0.507949
C34   C     C_R   0.486096 0.247057 0.191360 0.240013
C35   C     C_R   0.486998 0.308732 0.259389 0.292948
C36   C     C_R   0.635002 0.312652 0.318278 -0.548790
O11   O     O_R   0.774880 0.061150 0.920630 -0.575981
O12   O     O_R   0.440980 0.093710 0.086500 -0.582453
O13   O     O_R   0.266190 0.938890 0.079390 -0.595780
C37   C     C_R   0.610722 0.116787 0.115176 1.098699
O14   O     O_R   0.445420 0.070740 0.921670 -0.557666
O15   O     O_R   0.270660 0.915760 0.913380 -0.548986
C38   C     C_R   0.613219 0.084236 0.892753 1.050391
O16   O     O_R   0.770400 0.084270 0.086640 -0.611874
O17   O     O_3   0.602590 0.949210 0.997500 -0.277503
V3    V     V_3+5 0.329470 0.009420 0.000470 1.305693
O18   O     O_R   0.940650 0.906250 0.913470 -0.606549
C39   C     C_R   0.110594 0.883552 0.884272 1.063782
O19   O     O_R   0.936210 0.929220 0.078300 -0.593308
C40   C     C_R   0.101842 0.915942 0.107260 0.951708
V4    V     V_3+5 0.828930 0.990510 0.999490 1.263148
O20   O     O_3   0.105680 0.050790 0.002500 -0.252699
N1    N     N_R   0.443026 0.746209 0.633731 0.244881
O21   O     O_R   0.397131 0.760907 0.563318 -0.322505
O22   O     O_R   0.616106 0.721952 0.645059 -0.408062
O23   O     O_3   0.440187 0.272328 0.589216 -0.667079
H5    H     H_    0.466996 0.215703 0.567100 0.361763
N2    N     N_R   0.888686 0.454890 0.745472 0.231756
O24   O     O_R   0.797928 0.522189 0.760814 -0.425065
O25   O     O_R   0.075709 0.454641 0.736351 -0.373163
N3    N     N_R   0.264312 0.162655 0.665587 0.259600
O26   O     O_R   0.234635 0.097356 0.614130 -0.271178
O27   O     O_R   0.133843 0.217880 0.675264 -0.329918
O28   O     O_3   0.938879 0.341730 0.850435 -0.699526
H6    H     H_    0.982444 0.397955 0.859058 0.376471
N4    N     N_R   0.339421 0.050422 0.762643 0.252103
O29   O     O_R   0.168719 0.058130 0.796043 -0.363746
O30   O     O_R   0.375662 0.987860 0.708642 -0.300617
N5    N     N_R   0.896028 0.243543 0.377194 0.284124
O31   O     O_R   0.071974 0.218386 0.362973 -0.273675
O32   O     O_R   0.829353 0.253257 0.450662 -0.366738
O33   O     O_3   0.894877 0.127322 0.241210 -0.707557
H7    H     H_    0.981822 0.129385 0.194650 0.351800
N6    N     N_R   0.345961 0.247827 0.129290 0.275601
O34   O     O_R   0.402573 0.250838 0.056098 -0.351923
O35   O     O_R   0.161987 0.247466 0.145991 -0.354917
O36   O     O_3   0.443798 0.860456 0.781242 -0.704394
H8    H     H_    0.554043 0.845176 0.744289 0.358583
N7    N     N_R   0.334452 0.366242 0.268075 0.251375
O37   O     O_R   0.202919 0.364672 0.323374 -0.346752
O38   O     O_R   0.293894 0.401717 0.208348 -0.291411
O39   O     O_3   0.926338 0.717675 0.406060 -0.657041
H9    H     H_    0.953624 0.772902 0.433733 0.346307
N8    N     N_R   0.470538 0.573744 0.269325 0.253712
O40   O     O_R   0.507036 0.526876 0.201394 -0.278028
O41   O     O_R   0.607861 0.586613 0.322230 -0.314274
N9    N     N_R   0.760347 0.832526 0.339680 0.262401
O42   O     O_R   0.734487 0.900246 0.387692 -0.273113
O43   O     O_R   0.627121 0.777545 0.335334 -0.323648
N10   N     N_R   0.478467 0.673991 0.155296 0.255304
O44   O     O_R   0.660474 0.680018 0.174211 -0.329027
O45   O     O_R   0.430138 0.652971 0.080184 -0.340480
O46   O     O_3   0.812953 0.937419 0.238149 -0.675401
H10   H     H_    0.872684 0.982473 0.217214 0.352688

loop_
_geom_bond_atom_site_label_1
_geom_bond_atom_site_label_2
_geom_bond_distance
_ccdc_geom_bond_type
O15   V3    2.010729 S    
C1    C21   1.496165 S    
C5    N1    1.433845 S    
C28   O23   1.378939 S    
C26   C27   1.422337 A    
N7    O37   1.299841 A    
C1    O6    1.305681 A    
O11   C38   1.310101 A    
O14   V3    1.989246 S    
N3    O26   1.300948 A    
C25   H4    1.083511 S    
O36   H8    0.987681 S    
N2    O25   1.301369 A    
C31   N5    1.441772 S    
C2    C36   1.498102 S    
C23   C27   1.420116 A    
C22   C25   1.399617 A    
O5    C3    1.314667 A    
C16   C17   1.422732 A    
O14   C38   1.288289 A    
N10   O44   1.300887 A    
V2    O10   2.158876 S    
O13   V3    1.989463 S    
C6    C7    1.421221 A    
C4    C10   1.495730 S    
N1    O22   1.299091 A    
O8    V2    1.987552 S    
C34   N6    1.437321 S    
C17   C18   1.434935 A    
O16   V4    2.013603 S    
O19   V4    1.987530 S    
C32   O33   1.372965 S    
O1    V2    2.011862 S    
O7    V1    2.158164 S    
C11   C18   1.410523 A    
N5    O32   1.301682 A    
O9    C4    1.300209 A    
O17   V3    2.158112 S    
C19   C20   1.409451 A    
O18   V4    2.008572 S    
N3    O27   1.301148 A    
O15   C39   1.292576 A    
O12   C37   1.304564 A    
C5    C10   1.414162 A    
N2    O24   1.299609 A    
C16   C20   1.408499 A    
C13   C17   1.425477 A    
V4    O20   2.158878 S    
C20   N10   1.437489 S    
O4    C2    1.310180 A    
O28   H6    0.988165 S    
O12   V3    2.006899 S    
C34   C35   1.413110 A    
N5    O31   1.301495 A    
N4    O29   1.301076 A    
C35   C36   1.427788 A    
C12   C40   1.495585 S    
O2    C1    1.289904 A    
C15   C16   1.415336 A    
O17   V4    1.707334 S    
N6    O35   1.300828 A    
C31   C32   1.408706 A    
C7    C39   1.497817 S    
N8    O41   1.300932 A    
C5    C6    1.424432 A    
N9    O43   1.300134 A    
O33   H7    0.989738 S    
C29   N2    1.432648 S    
C22   C38   1.498042 S    
O3    C4    1.297178 A    
C32   C33   1.419433 A    
C8    C9    1.397613 A    
O39   H9    0.991441 S    
O6    V2    1.988626 S    
N4    O30   1.299728 A    
O9    V2    2.008669 S    
C9    C10   1.403828 A    
C21   C29   1.414924 A    
C27   C28   1.432452 A    
O2    V1    1.989099 S    
N9    O42   1.301283 A    
O13   C40   1.307630 A    
C29   C30   1.419397 A    
C25   C26   1.419152 A    
O1    C2    1.287002 A    
C24   N4    1.431232 S    
O23   H5    0.991032 S    
O5    V1    1.989425 S    
O8    C3    1.285804 A    
N7    O38   1.299621 A    
C31   C36   1.414257 A    
C23   N3    1.437083 S    
C14   O46   1.380579 S    
C33   C37   1.496177 S    
C15   H3    1.082208 S    
C12   C14   1.422091 A    
V3    O20   1.707253 S    
C3    C11   1.504361 S    
C19   N8    1.438091 S    
C7    C8    1.402367 A    
O7    V2    1.708051 S    
O4    V1    2.007001 S    
C22   C24   1.416931 A    
O3    V1    2.010959 S    
V1    O10   1.707157 S    
O46   H10   0.985849 S    
N6    O34   1.301435 A    
C23   C24   1.411603 A    
N10   O45   1.301110 A    
C13   N9    1.436812 S    
N8    O40   1.300402 A    
C18   O39   1.376703 S    
C30   O28   1.385277 S    
O19   C40   1.289169 A    
N1    O21   1.301067 A    
O11   V4    1.989271 S    
O18   C39   1.306222 A    
C37   O16   1.291934 A    
C8    H1    1.083208 S    
C12   C15   1.394089 A    
C33   C34   1.410947 A    
C11   C19   1.426323 A    
C13   C14   1.410215 A    
C6    O36   1.383427 S    
C26   C30   1.409912 A    
C9    H2    1.079301 S    
C21   C28   1.405185 A    
C35   N7    1.438736 S    
