data_mof_unit_46930.cif
_audit_creation_date              2012-12-10T19:42:56-0500
_audit_creation_method            fapswitch 2.2
_symmetry_space_group_name_H-M    P1
_symmetry_Int_Tables_number       1
_space_group_crystal_system       triclinic
_cell_length_a                    10.92535
_cell_length_b                    13.148093
_cell_length_c                    11.776552
_cell_angle_alpha                 99.040781
_cell_angle_beta                  94.093362
_cell_angle_gamma                 92.890881
_cell_volume                      1663.12780612

loop_
_atom_site_label
_atom_site_type_symbol
_atom_type_description
_atom_site_fract_x
_atom_site_fract_y
_atom_site_fract_z
_atom_type_partial_charge
C1    C     C_R   0.501300 0.299770 0.479991 0.864700
C2    C     C_R   0.498700 0.700230 0.520009 0.864700
C3    C     C_R   0.871713 0.496294 0.503149 -0.072393
C4    C     C_R   0.128286 0.503706 0.496851 -0.072393
C5    C     C_R   0.948263 0.493620 0.605362 0.001679
C6    C     C_R   0.051736 0.506380 0.394638 0.001679
C7    C     C_R   0.498019 0.812920 0.529155 -0.140994
C8    C     C_R   0.501981 0.187080 0.470845 -0.140994
C9    C     C_R   0.465001 0.021024 0.349042 -0.098284
C10   C     C_R   0.534999 0.978976 0.650957 -0.098284
C11   C     C_R   0.473701 0.127350 0.362171 -0.222746
C12   C     C_R   0.526299 0.872650 0.637829 -0.222746
C13   C     C_R   0.527329 0.137853 0.568178 0.363627
C14   C     C_R   0.472671 0.862147 0.431822 0.363627
C15   C     C_R   0.515971 0.029544 0.555251 0.026473
C16   C     C_R   0.484029 0.970456 0.444749 0.026473
C17   C     C_R   0.409163 0.382239 0.023202 0.319903
C18   C     C_R   0.590836 0.617761 0.976798 0.319903
C19   C     C_R   0.406795 0.400802 0.143875 0.426342
C20   C     C_R   0.593205 0.599198 0.856125 0.426342
C21   C     C_R   0.545637 0.547534 0.157178 0.567665
C22   C     C_R   0.454363 0.452466 0.842822 0.567665
C23   C     C_R   0.262386 0.502052 0.499229 0.809496
C24   C     C_R   0.737614 0.497948 0.500771 0.809496
C25   C     C_R   0.534299 0.542572 0.034284 -0.283715
C26   C     C_R   0.465701 0.457427 0.965716 -0.283715
C27   C     C_R   0.193155 0.614366 0.150134 -0.099221
C28   C     C_R   0.806845 0.385634 0.849866 -0.099221
C29   C     C_R   0.159105 0.605335 0.260710 -0.051897
C30   C     C_R   0.840895 0.394665 0.739290 -0.051897
C31   C     C_R   0.096423 0.514507 0.280145 0.114821
C32   C     C_R   0.903577 0.485493 0.719855 0.114821
C33   C     C_R   0.064797 0.434760 0.186671 -0.090191
C34   C     C_R   0.935203 0.565239 0.813329 -0.090191
C35   C     C_R   0.101087 0.443480 0.076985 -0.070863
C36   C     C_R   0.898913 0.556519 0.923015 -0.070863
C37   C     C_R   0.165451 0.533169 0.058797 -0.188275
C38   C     C_R   0.834549 0.466831 0.941203 -0.188275
C39   C     C_R   0.925059 0.501805 0.399754 -0.204053
C40   C     C_R   0.074941 0.498195 0.600246 -0.204053
Cu1   Cu    Cu3+1 0.509250 0.507730 0.615930 1.071076
Cu2   Cu    Cu3+1 0.490750 0.492270 0.384070 1.071076
H1    H     H_    0.192603 0.540170 0.973595 0.158447
H2    H     H_    0.807397 0.459830 0.026405 0.158447
H3    H     H_    0.013539 0.365254 0.199210 0.154710
H4    H     H_    0.986461 0.634746 0.800790 0.154710
H5    H     H_    0.542981 0.837347 0.714017 0.234907
H6    H     H_    0.457019 0.162653 0.285983 0.234907
H7    H     H_    0.442805 0.979775 0.262572 0.228592
H8    H     H_    0.557195 0.020225 0.737427 0.228592
N1    N     N_R   0.523180 0.519350 0.790130 -0.276902
N2    N     N_R   0.476820 0.480650 0.209870 -0.276902
O1    O     O_R   0.506570 0.354460 0.582000 -0.499473
O2    O     O_R   0.493430 0.645540 0.418000 -0.499474
O3    O     O_R   0.490940 0.341410 0.386200 -0.561409
O4    O     O_R   0.509060 0.658590 0.613800 -0.561409
O5    O     O_R   0.327460 0.506540 0.597900 -0.563183
O6    O     O_R   0.672540 0.493460 0.402100 -0.563183
O7    O     O_R   0.311830 0.493480 0.402100 -0.550430
O8    O     O_R   0.688170 0.506520 0.597900 -0.550430
Cl1   Cl    Cl    0.337707 0.371930 0.757188 -0.499416
Cl2   Cl    Cl    0.662293 0.628070 0.242812 -0.499416
Cl3   Cl    Cl    0.688043 0.682621 0.791799 -0.555030
Cl4   Cl    Cl    0.311957 0.317379 0.208201 -0.555030
Cl5   Cl    Cl    0.356293 0.256752 0.952967 -0.438967
Cl6   Cl    Cl    0.643707 0.743248 0.047032 -0.438967
H9    H     H_    0.240044 0.684527 0.134450 0.203806
H10   H     H_    0.759956 0.315473 0.865550 0.203806
H11   H     H_    0.180242 0.669119 0.330743 0.150212
H12   H     H_    0.819758 0.330881 0.669257 0.150212
H13   H     H_    0.078691 0.380916 0.005893 0.187629
H14   H     H_    0.921309 0.619084 0.994107 0.187629
H15   H     H_    0.867744 0.504522 0.321375 0.190670
H16   H     H_    0.132256 0.495478 0.678625 0.190670
Cl7   Cl    Cl    0.421620 0.791240 0.294231 -0.607314
Cl8   Cl    Cl    0.578379 0.208760 0.705769 -0.607314

loop_
_geom_bond_atom_site_label_1
_geom_bond_atom_site_label_2
_ccdc_geom_bond_type
C8    C13   A    
C27   C29   A    
C1    C8    S    
C33   H3    S    
Cu1   Cu2   S    
C2    C7    S    
Cu2   O6    S    
C3    C24   S    
C23   O7    A    
C17   C26   A    
C28   H10   S    
C9    C16   A    
C20   N1    A    
C10   C15   A    
C15   C16   A    
C1    O1    A    
C17   C19   A    
C19   N2    A    
C7    C14   A    
C4    C40   A    
C31   C33   A    
C34   H4    S    
C34   C36   A    
C5    C32   S    
C6    C31   S    
C35   H13   S    
C11   H6    S    
C18   C25   A    
C12   H5    S    
C30   H12   S    
C29   H11   S    
C7    C12   A    
C9    H7    S    
C4    C6    A    
C2    O2    A    
C4    C23   S    
C25   C26   A    
C32   C34   A    
C37   H1    S    
Cu1   O4    S    
C38   H2    S    
Cu2   O3    S    
C13   Cl8   S    
C28   C38   A    
C19   Cl4   S    
C24   O8    A    
C9    C11   A    
Cu1   O1    S    
C21   Cl2   S    
C10   C12   A    
C13   C15   A    
C14   C16   A    
C10   H8    S    
C23   O5    A    
C21   C25   A    
C35   C37   A    
Cu1   O8    S    
C3    C5    A    
Cu2   O7    S    
C18   Cl6   S    
C17   Cl5   S    
C14   Cl7   S    
C20   Cl3   S    
C36   C38   A    
C1    O3    A    
Cu1   O5    S    
C29   C31   A    
C2    O4    A    
Cu2   O2    S    
C22   Cl1   S    
C30   C32   A    
C27   C37   A    
C8    C11   A    
C28   C30   A    
C33   C35   A    
C40   H16   S    
C18   C20   A    
C39   H15   S    
C27   H9    S    
C3    C39   A    
C24   O6    A    
C22   C26   A    
C5    C40   A    
C6    C39   A    
Cu1   N1    S    
C21   N2    A    
C36   H14   S    
Cu2   N2    S    
C22   N1    A    
