data_mof_unit_37314.cif
_audit_creation_date              2012-12-11T17:23:18-0500
_audit_creation_method            fapswitch 2.2
_symmetry_space_group_name_H-M    P1
_symmetry_Int_Tables_number       1
_space_group_crystal_system       triclinic
_cell_length_a                    22.414651
_cell_length_b                    7.096911
_cell_length_c                    19.402864
_cell_angle_alpha                 90.018576
_cell_angle_beta                  99.565475
_cell_angle_gamma                 90.0034
_cell_volume                      3043.59249663

loop_
_atom_site_label
_atom_site_type_symbol
_atom_type_description
_atom_site_fract_x
_atom_site_fract_y
_atom_site_fract_z
_atom_type_partial_charge
O1    O     O_R   0.443980 0.494320 0.557430 -0.533697
O2    O     O_R   0.556020 0.994320 0.442570 -0.533717
O3    O     O_R   0.441210 0.822520 0.414610 -0.537331
O4    O     O_R   0.558790 0.322520 0.585390 -0.537355
C1    C     C_R   0.426682 0.655358 0.388795 0.691016
C2    C     C_R   0.573323 0.155420 0.611205 0.691004
O5    O     O_R   0.436920 0.823940 0.555180 -0.536655
O6    O     O_R   0.563080 0.323940 0.444820 -0.536645
O7    O     O_R   0.551700 0.995760 0.584140 -0.534733
O8    O     O_R   0.448300 0.495760 0.415860 -0.534749
C3    C     C_R   0.421622 0.655416 0.574867 0.718112
C4    C     C_R   0.578376 0.155394 0.425132 0.718134
O9    O     O_3   0.537660 0.661290 0.509340 -0.370446
O10   O     O_3   0.462340 0.161290 0.490660 -0.370433
V1    V     V_3+5 0.493010 0.935560 0.498270 1.425333
V2    V     V_3+5 0.506990 0.435560 0.501730 1.425348
H1    H     H_    0.691782 0.829661 0.272095 0.128871
H2    H     H_    0.308226 0.329719 0.727848 0.128856
C5    C     C_R   0.760076 0.943873 0.218074 -0.188527
C6    C     C_R   0.239927 0.443873 0.781890 -0.188621
H3    H     H_    0.767100 0.810444 0.193531 0.166165
H4    H     H_    0.232908 0.310445 0.806408 0.166203
C7    C     C_R   0.793751 0.103007 0.204895 0.088508
C8    C     C_R   0.206244 0.602972 0.795099 0.088556
C9    C     C_R   0.783442 0.276317 0.237707 0.216727
C10   C     C_R   0.216546 0.776282 0.762318 0.216766
C11   C     C_R   0.739928 0.285083 0.282437 -0.154928
C12   C     C_R   0.260064 0.785084 0.717593 -0.154992
H5    H     H_    0.732100 0.417820 0.307125 0.126391
H6    H     H_    0.267888 0.917822 0.692932 0.126360
C13   C     C_R   0.706623 0.125315 0.295376 0.081287
C14   C     C_R   0.293375 0.625349 0.704623 0.081341
C15   C     C_R   0.717031 0.954736 0.262879 -0.157604
C16   C     C_R   0.282972 0.454770 0.737087 -0.157646
C17   C     C_1   0.838554 0.084649 0.158491 -0.053439
C18   C     C_1   0.161445 0.584585 0.841506 -0.053394
C19   C     C_1   0.661653 0.136839 0.341593 -0.045422
C20   C     C_1   0.338345 0.636903 0.658406 -0.045419
C21   C     C_1   0.623912 0.146027 0.379903 -0.187565
C22   C     C_1   0.376085 0.646091 0.620096 -0.187568
C23   C     C_1   0.876221 0.072269 0.120194 -0.186282
C24   C     C_1   0.123781 0.572204 0.879805 -0.186267
C25   C     C_R   0.632965 0.174174 0.804147 -0.157787
C26   C     C_R   0.367119 0.672159 0.195813 -0.157754
H7    H     H_    0.545754 0.197857 0.739892 0.107442
H8    H     H_    0.454339 0.695725 0.260067 0.107413
H9    H     H_    0.715165 0.168158 0.919221 0.127982
H10   H     H_    0.284947 0.665344 0.080717 0.127982
H11   H     H_    0.614494 0.195190 0.851780 0.115275
H12   H     H_    0.385627 0.692249 0.148158 0.115271
C27   C     C_R   0.615726 0.148203 0.678068 -0.037472
C28   C     C_R   0.384285 0.647913 0.321931 -0.037410
C29   C     C_R   0.910211 0.044067 0.760459 -0.161933
C30   C     C_R   0.089726 0.545517 0.239565 -0.161983
C31   C     C_R   0.873616 0.044152 0.695182 -0.119674
C32   C     C_R   0.126303 0.546103 0.304854 -0.119651
C33   C     C_R   0.811288 0.069292 0.689001 -0.156734
C34   C     C_R   0.188655 0.570690 0.311025 -0.156720
C35   C     C_R   0.783573 0.095631 0.748702 0.077389
C36   C     C_R   0.216414 0.595937 0.251303 0.077376
C37   C     C_R   0.821670 0.096770 0.815837 0.067958
C38   C     C_R   0.178341 0.596470 0.184153 0.067941
C39   C     C_R   0.719445 0.120616 0.744008 0.074068
C40   C     C_R   0.280562 0.620420 0.255989 0.074076
C41   C     C_R   0.695350 0.147412 0.806613 0.137016
C42   C     C_R   0.304705 0.646037 0.193359 0.136999
C43   C     C_R   0.733507 0.147978 0.871448 -0.197325
C44   C     C_R   0.266570 0.646038 0.128509 -0.197295
C45   C     C_R   0.795535 0.122832 0.876105 -0.190218
C46   C     C_R   0.204520 0.621433 0.123862 -0.190129
C47   C     C_R   0.678122 0.120616 0.679651 -0.214788
C48   C     C_R   0.321861 0.621021 0.320363 -0.214757
C49   C     C_R   0.593653 0.175399 0.740492 -0.166153
C50   C     C_R   0.406413 0.673862 0.259480 -0.166198
C51   C     C_R   0.885254 0.070466 0.821142 -0.080140
C52   C     C_R   0.114732 0.570761 0.178860 -0.080082
H13   H     H_    0.692801 0.101337 0.629981 0.092907
H14   H     H_    0.307145 0.602646 0.370053 0.092854
H15   H     H_    0.958488 0.022935 0.763713 0.104205
H16   H     H_    0.041426 0.524899 0.236320 0.104185
H17   H     H_    0.786110 0.067231 0.636668 0.107946
H18   H     H_    0.213816 0.569086 0.363370 0.107942
H19   H     H_    0.893765 0.023834 0.648729 0.118570
H20   H     H_    0.106119 0.526642 0.351324 0.118562
H21   H     H_    0.822978 0.124250 0.927602 0.111105
H22   H     H_    0.177093 0.622391 0.072354 0.110994
O11   O     O_R   0.051730 0.724670 0.084120 -0.533766
O12   O     O_R   0.948270 0.224670 0.915880 -0.533770
O13   O     O_R   0.063080 0.393540 0.944820 -0.534997
O14   O     O_R   0.936920 0.893540 0.055180 -0.534983
C53   C     C_R   0.078212 0.562141 0.924942 0.715538
C54   C     C_R   0.921789 0.062164 0.075059 0.715562
O15   O     O_R   0.058800 0.395030 0.085390 -0.535953
O16   O     O_R   0.941200 0.895030 0.914610 -0.535963
O17   O     O_R   0.943980 0.223310 0.057440 -0.535268
O18   O     O_R   0.056020 0.723310 0.942560 -0.535226
C55   C     C_R   0.072959 0.563543 0.111243 0.679955
C56   C     C_R   0.927035 0.063482 0.888758 0.679924
O19   O     O_3   0.962360 0.556290 0.990650 -0.369196
O20   O     O_3   0.037640 0.056290 0.009350 -0.369171
V3    V     V_3+5 0.006980 0.281990 0.001730 1.430548
V4    V     V_3+5 0.993020 0.781990 0.998270 1.430600
N1    N     N_3   0.815671 0.446031 0.226814 -0.692177
H23   H     H_    0.843356 0.428372 0.189055 0.236572
H24   H     H_    0.844055 0.478046 0.273746 0.223291
N2    N     N_3   0.184311 0.945967 0.773243 -0.692149
H25   H     H_    0.156559 0.928218 0.810925 0.236577
H26   H     H_    0.155988 0.978084 0.726289 0.223254

loop_
_geom_bond_atom_site_label_1
_geom_bond_atom_site_label_2
_ccdc_geom_bond_type
C25   C49   A    
C42   C44   A    
C39   C41   A    
O18   V4    S    
C11   H5    S    
C18   C24   T    
O1    C3    A    
H8    C50   S    
C40   C48   A    
O2    C4    A    
C10   N2    S    
C2    O7    A    
O12   V3    S    
C51   C56   S    
C45   H21   S    
C37   C51   A    
O5    C3    A    
C8    C18   S    
H1    C15   S    
C36   C38   A    
C29   H15   S    
C8    C10   A    
C28   C50   A    
C34   H18   S    
C33   C35   A    
N2    H25   S    
O16   C56   A    
C37   C45   A    
C38   C46   A    
H7    C49   S    
C24   C53   S    
O14   V4    S    
C48   H14   S    
C53   O18   A    
C26   C42   A    
C6    C8    A    
C41   C43   A    
C13   C15   A    
C1    C28   S    
C14   C20   S    
C2    C27   S    
O13   C53   A    
C25   C41   A    
C6    C16   A    
O5    V1    S    
O6    V2    S    
C38   C52   A    
C29   C51   A    
C27   C47   A    
H9    C43   S    
C32   H20   S    
C30   H16   S    
C29   C31   A    
C30   C32   A    
C35   C37   A    
C11   C13   A    
C12   C14   A    
O4    C2    A    
C5    C15   A    
O15   V3    S    
C25   H11   S    
C52   C55   S    
C54   O17   A    
C13   C19   S    
C43   C45   A    
C14   C16   A    
O4    V2    S    
C5    C7    A    
C28   C48   A    
O11   V4    S    
O14   C54   A    
O6    C4    A    
C23   C54   S    
O20   V4    S    
N1    H24   S    
O1    V2    S    
H10   C44   S    
C26   C50   A    
O2    V1    S    
H2    C16   S    
C30   C52   A    
O19   V3    S    
C39   C47   A    
C7    C17   S    
C31   C33   A    
C33   H17   S    
C31   H19   S    
C46   H22   S    
O15   C55   A    
C47   H13   S    
O3    V1    S    
C26   H12   S    
O13   V3    S    
C10   C12   A    
C9    N1    S    
C27   C49   A    
C6    H4    S    
O3    C1    A    
C9    C11   A    
C35   C39   A    
C36   C40   A    
C4    C21   S    
C12   H6    S    
O7    V1    S    
C1    O8    A    
C19   C21   T    
O8    V2    S    
C20   C22   T    
N2    H26   S    
O20   V3    S    
C32   C34   A    
C7    C9    A    
C3    C22   S    
C17   C23   T    
O19   V4    S    
O16   V4    S    
C44   C46   A    
O9    V2    S    
N1    H23   S    
O10   V1    S    
O11   C55   A    
C34   C36   A    
O12   C56   A    
O17   V3    S    
C40   C42   A    
C5    H3    S    
