data_mof_unit_19459.cif
_audit_creation_date              2012-12-10T20:38:22-0500
_audit_creation_method            fapswitch 2.2
_symmetry_space_group_name_H-M    P1
_symmetry_Int_Tables_number       1
_space_group_crystal_system       triclinic
_cell_length_a                    9.918462
_cell_length_b                    10.650367
_cell_length_c                    16.622255
_cell_angle_alpha                 90.923434
_cell_angle_beta                  83.807832
_cell_angle_gamma                 89.406889
_cell_volume                      1745.29602234

loop_
_atom_site_label
_atom_site_type_symbol
_atom_type_description
_atom_site_fract_x
_atom_site_fract_y
_atom_site_fract_z
_atom_type_partial_charge
C1    C     C_R   0.499625 0.739548 0.499403 0.911553
C2    C     C_R   0.368809 0.511141 0.792455 -0.177469
C3    C     C_R   0.507941 0.318561 0.154587 -0.050237
C4    C     C_R   0.488932 0.352393 0.235925 -0.186286
C5    C     C_R   0.609419 0.546774 0.207085 -0.156110
C6    C     C_R   0.624741 0.514796 0.125197 -0.171838
C7    C     C_R   0.571122 0.401977 0.098510 0.060139
C8    C     C_2   0.448624 0.357731 0.981815 0.379567
C9    C     C_2   0.568417 0.380070 0.011130 0.381150
C10   C     C_R   0.537405 0.467413 0.261726 -0.005577
C11   C     C_R   0.393847 0.939090 0.535512 0.112527
C12   C     C_R   0.479849 0.494278 0.652938 0.878516
C13   C     C_R   0.498620 0.871111 0.492978 -0.178467
C14   C     C_R   0.595037 0.930109 0.439025 -0.173150
C15   C     C_R   0.594015 0.060207 0.434613 0.421733
C16   C     C_R   0.499416 0.128350 0.488818 -0.225856
C17   C     C_R   0.394831 0.066912 0.533886 0.112800
C18   C     C_3   0.348000 0.080299 0.622072 -0.447134
C19   C     C_3   0.347919 0.938220 0.623966 -0.482449
C20   C     C_R   0.916430 0.543713 0.565429 0.004840
C21   C     C_R   0.941685 0.443656 0.438634 0.452435
C22   C     C_R   0.084700 0.446539 0.438247 -0.117873
C23   C     C_R   0.500898 0.260489 0.496779 0.853553
C24   C     C_R   0.058138 0.542021 0.566704 0.117735
C25   C     C_3   0.054416 0.669462 0.607719 0.193717
C26   C     C_3   0.900408 0.671034 0.603353 0.149646
C27   C     C_R   0.520472 0.497737 0.346888 0.823576
C28   C     C_R   0.465344 0.454544 0.736021 -0.066891
C29   C     C_R   0.541607 0.351061 0.757035 -0.312975
C30   C     C_R   0.527312 0.308355 0.836594 0.537365
C31   C     C_R   0.439709 0.374517 0.894963 0.057648
C32   C     C_R   0.357194 0.472553 0.872178 -0.266796
H1    H     H_    0.611255 0.303478 0.711448 0.143983
H2    H     H_    0.673518 0.580220 0.082436 0.154668
H3    H     H_    0.670377 0.875551 0.400851 0.181162
H4    H     H_    0.425403 0.123268 0.657314 0.197478
H5    H     H_    0.244807 0.123044 0.633195 0.214294
H6    H     H_    0.425072 0.897741 0.660306 0.204520
H7    H     H_    0.245166 0.899119 0.635741 0.211951
H8    H     H_    0.148802 0.404135 0.388101 0.184829
H9    H     H_    0.437241 0.288782 0.278875 0.132273
H10   H     H_    0.113236 0.740577 0.570702 0.111383
H11   H     H_    0.835053 0.669104 0.661848 0.152307
H12   H     H_    0.649679 0.634495 0.227486 0.139803
H13   H     H_    0.289090 0.523451 0.916912 0.175613
H14   H     H_    0.469163 0.229749 0.134988 0.165423
H15   H     H_    0.306886 0.587799 0.775115 0.197024
N1    N     N_R   0.857140 0.500860 0.500530 -0.153189
N2    N     N_R   0.142780 0.500820 0.500530 -0.162864
O1    O     O_R   0.385310 0.683210 0.499990 -0.620384
O2    O     O_R   0.614650 0.683240 0.500000 -0.560368
O3    O     O_R   0.371780 0.500000 0.615800 -0.577739
O4    O     O_R   0.601120 0.500040 0.615800 -0.609716
O5    O     O_R   0.385350 0.316760 0.500000 -0.606556
O6    O     O_R   0.614690 0.316790 0.500010 -0.630009
O7    O     O_R   0.398880 0.499960 0.384200 -0.616314
O8    O     O_R   0.628220 0.500000 0.384200 -0.616729
Zn1   Zn    Zn3+2 0.346870 0.499980 0.499990 0.968389
Zn2   Zn    Zn3+2 0.653130 0.500020 0.500010 0.981093
O9    O     O_3   0.685892 0.115808 0.378370 -0.738884
H16   H     H_    0.649172 0.199002 0.365521 0.322396
O10   O     O_3   0.891582 0.381952 0.375434 -0.737872
H17   H     H_    0.800699 0.352750 0.395595 0.383706
O11   O     O_3   0.090485 0.661079 0.687770 -0.598766
C33   C     C_3   0.042834 0.768472 0.734528 0.103071
H18   H     H_    0.939820 0.750288 0.765011 0.159364
H19   H     H_    0.037062 0.854765 0.697932 0.136374
C34   C     C_3   0.134521 0.794611 0.800409 -0.834694
H20   H     H_    0.240634 0.807502 0.773431 0.247495
H21   H     H_    0.099683 0.881597 0.834509 0.226635
H22   H     H_    0.130370 0.715568 0.843320 0.253946
O12   O     O_3   0.858486 0.763314 0.551305 -0.736968
H23   H     H_    0.916117 0.756362 0.498647 0.333105
O13   O     O_3   0.682694 0.404054 0.958287 -0.763624
H24   H     H_    0.761585 0.410990 0.989935 0.337544
O14   O     O_3   0.331372 0.344704 0.034129 -0.802499
H25   H     H_    0.255438 0.327413 0.001470 0.341179
O15   O     O_3   0.600333 0.206138 0.859356 -0.753307
H26   H     H_    0.656938 0.171374 0.811141 0.330079

loop_
_geom_bond_atom_site_label_1
_geom_bond_atom_site_label_2
_ccdc_geom_bond_type
C10   C27   S    
O6    Zn2   S    
C26   O12   S    
C15   O9    S    
O4    Zn2   S    
C11   C19   S    
O10   H17   S    
C12   C28   S    
C19   H7    S    
C28   C29   A    
C18   H5    S    
C3    C7    A    
C5    C6    A    
O8    Zn2   S    
C4    H9    S    
C15   C16   A    
C29   H1    S    
C8    O14   S    
C2    C32   A    
C18   C19   S    
C32   H13   S    
C34   H20   S    
C20   C24   A    
C16   C17   A    
C33   H19   S    
C1    O1    A    
C12   O4    A    
C21   N1    A    
C21   C22   A    
C12   O3    A    
C26   H11   S    
O13   H24   S    
O1    Zn1   S    
C24   C25   S    
C27   O8    A    
C14   H3    S    
O15   H26   S    
C8    C9    D    
C25   C26   S    
N2    Zn1   S    
C6    H2    S    
O9    H16   S    
C25   O11   S    
C29   C30   A    
C19   H6    S    
C31   C32   A    
C33   C34   S    
C22   H8    S    
C17   C18   S    
N1    Zn2   S    
O14   H25   S    
C1    O2    A    
C21   O10   S    
C20   N1    A    
O3    Zn1   S    
C22   N2    A    
C5    H12   S    
C16   C23   S    
C1    C13   S    
C9    O13   S    
C4    C10   A    
C3    C4    A    
C23   O5    A    
O5    Zn1   S    
C24   N2    A    
C7    C9    S    
C11   C17   A    
C27   O7    A    
C8    C31   S    
O12   H23   S    
C25   H10   S    
C23   O6    A    
C6    C7    A    
C2    H15   S    
C3    H14   S    
O11   C33   S    
C5    C10   A    
C11   C13   A    
C30   C31   A    
C20   C26   S    
C34   H22   S    
O7    Zn1   S    
C30   O15   S    
O2    Zn2   S    
C34   H21   S    
C33   H18   S    
C14   C15   A    
C2    C28   A    
C13   C14   A    
C18   H4    S    
