data_mof_unit_21284.cif
_audit_creation_date              2012-12-11T15:46:48-0500
_audit_creation_method            fapswitch 2.2
_symmetry_space_group_name_H-M    P1
_symmetry_Int_Tables_number       1
_space_group_crystal_system       triclinic
_cell_length_a                    11.540373
_cell_length_b                    11.522974
_cell_length_c                    19.506141
_cell_angle_alpha                 90.812643
_cell_angle_beta                  90.422418
_cell_angle_gamma                 60.19778
_cell_volume                      2250.63356667

loop_
_atom_site_label
_atom_site_type_symbol
_atom_type_description
_atom_site_fract_x
_atom_site_fract_y
_atom_site_fract_z
_atom_type_partial_charge
C1    C     C_R   0.640772 0.117574 0.599074 0.545645
C2    C     C_1   0.641843 0.703729 0.667922 0.005189
C3    C     C_1   0.126921 0.198170 0.859399 0.003644
C4    C     C_1   0.171442 0.170343 0.727652 -0.029674
C5    C     C_1   0.150265 0.181851 0.798962 -0.029840
C6    C     C_1   0.195148 0.161250 0.667272 0.004766
C7    C     C_1   0.678182 0.190765 0.860961 0.006884
C8    C     C_1   0.658727 0.167358 0.729020 -0.030398
C9    C     C_1   0.665397 0.180635 0.800400 -0.029352
C10   C     C_1   0.653447 0.149950 0.668506 0.005036
C11   C     C_R   0.672817 0.675805 0.189851 0.035066
C12   C     C_R   0.612726 0.745763 0.598533 0.545787
C13   C     C_R   0.553986 0.778716 0.215469 0.034925
C14   C     C_R   0.536803 0.793342 0.284864 0.042557
C15   C     C_R   0.766415 0.630325 0.304855 -0.175733
C16   C     C_R   0.784191 0.613174 0.234240 -0.160594
C17   C     C_3   0.410208 0.825121 0.202115 -0.261946
C18   C     C_3   0.392439 0.835958 0.279575 -0.251645
C19   C     C_R   0.637600 0.710681 0.330365 0.036442
C20   C     C_R   0.059991 0.244892 0.205242 0.018240
C21   C     C_R   0.109813 0.317903 0.238516 -0.028304
C22   C     C_R   0.152453 0.292875 0.304889 0.001719
C23   C     C_R   0.240865 0.145425 0.598099 0.545759
C24   C     C_R   0.088712 0.123857 0.312250 -0.172795
C25   C     C_R   0.039489 0.154233 0.244436 -0.149814
C26   C     C_3   0.213137 0.353657 0.218505 -0.044705
C27   C     C_3   0.259319 0.328152 0.292675 -0.240235
C28   C     C_R   0.156756 0.186112 0.340660 0.016256
C29   C     C_R   0.661153 0.186219 0.191183 0.044679
C30   C     C_R   0.720615 0.056065 0.216692 0.021251
C31   C     C_R   0.719010 0.034583 0.285406 0.033055
C32   C     C_R   0.579150 0.269048 0.306675 -0.159557
C33   C     C_R   0.576225 0.292431 0.236397 0.070003
C34   C     C_R   0.644660 0.111281 0.402260 0.545364
C35   C     C_3   0.852993 0.931113 0.207363 -0.267693
C36   C     C_3   0.851976 0.910415 0.284124 -0.264796
C37   C     C_R   0.659363 0.140428 0.332283 -0.009777
C38   C     C_R   0.082059 0.230862 0.928714 0.560574
C39   C     C_R   0.683771 0.604584 0.929616 0.543075
C40   C     C_R   0.708127 0.206326 0.930348 0.543303
C41   C     C_R   0.024475 0.269313 0.132918 0.551927
C42   C     C_R   0.683144 0.615262 0.123986 0.545930
C43   C     C_R   0.706763 0.211352 0.126538 0.545724
C44   C     C_R   0.615082 0.741322 0.401760 0.543772
C45   C     C_R   0.238782 0.143599 0.402833 0.535899
C46   C     C_1   0.669945 0.646747 0.860271 0.006456
C47   C     C_1   0.655156 0.683653 0.728445 -0.030455
C48   C     C_1   0.663285 0.666876 0.799781 -0.029850
Cr1   Cr    Cr6+3 0.404720 0.198220 0.499960 1.027484
Cr2   Cr    Cr6+3 0.698290 0.897110 0.500380 1.030401
Cr3   Cr    Cr6+3 0.396970 0.904720 0.499610 1.028777
Cr4   Cr    Cr6+3 0.926290 0.152010 0.028150 1.030581
Cr5   Cr    Cr6+3 0.921440 0.451830 0.027490 1.046551
Cr6   Cr    Cr6+3 0.626370 0.446880 0.028730 1.073255
H1    H     H_    0.850667 0.576811 0.338960 0.123864
H2    H     H_    0.360744 0.241134 0.300553 0.180120
H3    H     H_    0.239623 0.420642 0.320951 0.133074
H4    H     H_    0.517502 0.351167 0.341182 0.147169
H5    H     H_    0.935610 0.947625 0.191592 0.154620
H6    H     H_    0.843994 0.854114 0.176472 0.152023
H7    H     H_    0.845657 0.820389 0.297176 0.160502
H8    H     H_    0.929354 0.922379 0.312563 0.135576
H9    H     H_    0.881690 0.541053 0.215126 0.136195
H10   H     H_    0.390900 0.749761 0.177366 0.189980
H11   H     H_    0.358973 0.923830 0.176703 0.194170
H12   H     H_    0.331618 0.939606 0.297843 0.164750
H13   H     H_    0.367782 0.762235 0.301380 0.165861
H14   H     H_    0.082726 0.046070 0.339771 0.118571
H15   H     H_    0.992812 0.102049 0.221556 0.129381
H16   H     H_    0.167597 0.460489 0.203929 0.136497
O1    O     O_R   0.267750 0.231960 0.575440 -0.504402
O2    O     O_R   0.685950 0.784660 0.430010 -0.504357
O3    O     O_R   0.502510 0.767000 0.423980 -0.517045
O4    O     O_R   0.288320 0.026340 0.429250 -0.507496
O5    O     O_3   0.499990 0.000020 0.499980 -0.254314
O6    O     O_R   0.821590 0.119350 0.952850 -0.504125
O7    O     O_R   0.037230 0.162540 0.957390 -0.488792
O8    O     O_R   0.056530 0.344750 0.951370 -0.489311
O9    O     O_R   0.798000 0.560370 0.957490 -0.496131
O10   O     O_R   0.596230 0.579400 0.952760 -0.500624
O11   O     O_R   0.639160 0.321170 0.958690 -0.487923
O12   O     O_R   0.527290 0.186640 0.570530 -0.493432
O13   O     O_R   0.821370 0.124220 0.104400 -0.543701
O14   O     O_R   0.037020 0.167050 0.097880 -0.495993
O15   O     O_R   0.056310 0.349620 0.102920 -0.487548
O16   O     O_R   0.797790 0.564880 0.097980 -0.533079
O17   O     O_R   0.596000 0.584270 0.104310 -0.484939
O18   O     O_R   0.638950 0.325690 0.099180 -0.453913
O19   O     O_3   0.824700 0.350240 0.028120 -0.285567
O20   O     O_R   0.728110 0.003450 0.576380 -0.504511
O21   O     O_R   0.682980 0.789190 0.570500 -0.493938
O22   O     O_R   0.499300 0.771880 0.575540 -0.503933
O23   O     O_R   0.285350 0.030870 0.569740 -0.494045
O24   O     O_R   0.270960 0.227070 0.423890 -0.517383
O25   O     O_R   0.530270 0.182120 0.430040 -0.508919
O26   O     O_R   0.731320 0.998570 0.424830 -0.513040
C49   C     C_2   0.316166 0.257268 0.168030 0.622108
O27   O     O_2   0.379653 0.137466 0.179855 -0.554383
O28   O     O_R   0.338316 0.306484 0.107413 -0.651003
H17   H     H_    0.409988 0.233412 0.077772 0.335865
I1    I     I_    0.439258 0.490419 0.207927 -0.415293

loop_
_geom_bond_atom_site_label_1
_geom_bond_atom_site_label_2
_ccdc_geom_bond_type
C21   C26   S    
C1    O20   A    
C34   C37   S    
C43   O13   A    
C14   C18   S    
C12   O21   A    
C35   C36   S    
Cr3   O4    S    
C32   H4    S    
C2    C12   S    
C20   C41   S    
C15   C19   A    
C26   C27   S    
C30   C35   S    
C33   I1    S    
C43   O18   A    
Cr5   O9    S    
Cr3   O5    S    
C17   H10   S    
Cr6   O17   S    
C20   C25   A    
C15   C16   A    
C29   C33   A    
C11   C42   S    
C35   H5    S    
Cr4   O14   S    
Cr2   O2    S    
Cr2   O20   S    
C47   C48   S    
C3    C38   S    
C8    C9    S    
C7    C40   S    
Cr1   O5    S    
Cr5   O16   S    
C42   O16   A    
C16   H9    S    
Cr1   O24   S    
C24   C28   A    
C22   C28   A    
C21   C22   A    
C29   C43   S    
Cr4   O19   S    
C36   H8    S    
C45   O24   A    
C14   C19   A    
C49   O28   S    
C49   O27   D    
Cr6   O10   S    
C46   C48   T    
C28   C45   S    
C23   O1    A    
C24   C25   A    
Cr6   O19   S    
C4    C6    T    
C27   H3    S    
C27   H2    S    
C38   O8    A    
Cr4   O6    S    
C18   H13   S    
C41   O14   A    
Cr1   O25   S    
C23   O23   A    
C31   C37   A    
C35   H6    S    
C15   H1    S    
Cr1   O12   S    
Cr4   O13   S    
C29   C30   A    
Cr3   O22   S    
C11   C16   A    
O28   H17   S    
C17   C18   S    
C32   C37   A    
C34   O25   A    
Cr3   O23   S    
C39   C46   S    
C22   C27   S    
Cr5   O19   S    
C26   H16   S    
C25   H15   S    
Cr4   O7    S    
C19   C44   S    
C7    C9    T    
C40   O11   A    
C12   O22   A    
C1    C10   S    
Cr3   O3    S    
C34   O26   A    
C4    C5    S    
C3    C5    T    
C38   O7    A    
C2    C47   T    
C18   H12   S    
C41   O15   A    
C17   H11   S    
C13   C17   S    
C32   C33   A    
Cr5   O8    S    
C1    O12   A    
Cr2   O5    S    
C39   O10   A    
Cr6   O18   S    
C11   C13   A    
Cr2   O26   S    
C30   C31   A    
C6    C23   S    
C44   O2    A    
C44   O3    A    
C24   H14   S    
C26   C49   S    
C40   O6    A    
Cr2   O21   S    
C20   C21   A    
C8    C10   T    
Cr1   O1    S    
C31   C36   S    
C45   O4    A    
Cr5   O15   S    
C42   O17   A    
C13   C14   A    
Cr6   O11   S    
C36   H7    S    
C39   O9    A    
