data_mof_unit_28952.cif
_audit_creation_date              2012-12-10T17:25:33-0500
_audit_creation_method            fapswitch 2.2
_symmetry_space_group_name_H-M    P1
_symmetry_Int_Tables_number       1
_space_group_crystal_system       triclinic
_cell_length_a                    10.109964
_cell_length_b                    10.686591
_cell_length_c                    23.517021
_cell_angle_alpha                 90.229383
_cell_angle_beta                  82.014707
_cell_angle_gamma                 95.788325
_cell_volume                      2503.20904834

loop_
_atom_site_label
_atom_site_type_symbol
_atom_type_description
_atom_site_fract_x
_atom_site_fract_y
_atom_site_fract_z
_atom_type_partial_charge
C1    C     C_R   0.556127 0.733245 0.492729 0.963255
C2    C     C_R   0.386094 0.447085 0.302516 -0.117887
C3    C     C_R   0.479514 0.631917 0.759710 0.011054
C4    C     C_R   0.384734 0.460680 0.242674 0.006280
C5    C     C_R   0.513260 0.527519 0.789757 0.206801
C6    C     C_R   0.502721 0.511939 0.207632 0.210241
C7    C     C_2   0.587302 0.865756 0.478797 -0.353749
C8    C     C_2   0.410837 0.133478 0.492641 -0.415544
C9    C     C_2   0.487003 0.931983 0.469318 -0.146211
C10   C     C_2   0.507688 0.066959 0.467657 -0.176900
C11   C     C_2   0.929195 0.515300 0.502260 -0.126898
C12   C     C_R   0.443490 0.266612 0.500888 0.939834
C13   C     C_2   0.071980 0.488154 0.495918 -0.131958
C14   C     C_R   0.501696 0.501519 0.610138 0.942240
C15   C     C_R   0.499029 0.499465 0.389434 0.892693
C16   C     C_R   0.484493 0.402896 0.118039 0.538341
C17   C     C_R   0.583518 0.624221 0.876111 0.534649
C18   C     C_R   0.549586 0.623995 0.116499 0.505279
C19   C     C_R   0.445399 0.428619 0.883016 0.504110
C20   C     C_R   0.562491 0.625979 0.056645 -0.027474
C21   C     C_R   0.457153 0.418459 0.941073 -0.026774
C22   C     C_R   0.517397 0.517439 0.028143 -0.067987
C23   C     C_R   0.546373 0.418650 0.759747 -0.177485
C24   C     C_R   0.516748 0.521987 0.968478 -0.067735
C25   C     C_R   0.473562 0.404431 0.059161 -0.051876
C26   C     C_R   0.576026 0.629499 0.936270 -0.050072
C27   C     C_R   0.617349 0.734306 0.025075 -0.238641
C28   C     C_R   0.410792 0.307152 0.971884 -0.234501
C29   C     C_R   0.627720 0.736286 0.965170 0.218795
C30   C     C_R   0.421204 0.297944 0.030312 0.218778
C31   C     C_3   0.586790 0.937938 0.930711 -0.721881
C32   C     C_3   0.230337 0.152521 0.066888 -0.737294
C33   C     C_3   0.396466 0.225766 0.673221 -0.759741
C34   C     C_R   0.615182 0.558465 0.232340 -0.180430
C35   C     C_3   0.840209 0.549192 0.309985 -0.740637
C36   C     C_R   0.495609 0.742799 0.664998 0.113536
C37   C     C_R   0.622359 0.802696 0.643152 -0.180839
C38   C     C_R   0.633080 0.918700 0.615165 -0.169545
C39   C     C_R   0.517408 0.973999 0.607807 -0.086707
C40   C     C_R   0.390494 0.912675 0.627575 -0.153523
C41   C     C_R   0.379307 0.797355 0.656610 -0.097890
C42   C     C_R   0.278819 0.363221 0.337445 0.138408
C43   C     C_R   0.311687 0.251204 0.360704 -0.137060
C44   C     C_R   0.210527 0.161792 0.386098 -0.129759
C45   C     C_R   0.532633 0.406640 0.702048 0.155221
C46   C     C_R   0.075932 0.182318 0.387573 -0.141624
C47   C     C_R   0.042521 0.293405 0.364694 -0.184271
C48   C     C_R   0.143292 0.385727 0.341650 -0.134108
C49   C     C_R   0.422723 0.740282 0.790956 0.145245
C50   C     C_R   0.299155 0.720743 0.826874 -0.180811
C51   C     C_R   0.239642 0.822595 0.853328 -0.148549
C52   C     C_R   0.302558 0.944767 0.843949 -0.121453
C53   C     C_R   0.426261 0.965102 0.808872 -0.172069
C54   C     C_R   0.486983 0.863349 0.783016 -0.056228
C55   C     C_R   0.260121 0.426678 0.216483 0.119672
C56   C     C_R   0.612759 0.558071 0.291456 0.161618
C57   C     C_R   0.199399 0.521224 0.191461 -0.185767
C58   C     C_R   0.079527 0.491905 0.168747 -0.157530
C59   C     C_R   0.018652 0.368368 0.171314 -0.135050
C60   C     C_R   0.079023 0.273428 0.195540 -0.165614
C61   C     C_R   0.200387 0.301819 0.217175 -0.027484
C62   C     C_R   0.507674 0.511647 0.671418 -0.126410
C63   C     C_R   0.498918 0.500944 0.327008 -0.146556
C64   C     C_R   0.488767 0.626467 0.699366 -0.133664
H1    H     H_    0.653401 0.818073 0.046696 0.189167
H2    H     H_    0.689111 0.909955 0.478429 0.140353
H3    H     H_    0.105967 0.414641 0.467298 0.188637
H4    H     H_    0.896560 0.592244 0.529174 0.159849
H5    H     H_    0.768668 0.890005 0.949719 0.216163
H6    H     H_    0.632525 0.015286 0.900687 0.238745
H7    H     H_    0.555732 0.978333 0.973500 0.206116
H8    H     H_    0.496819 0.891314 0.914247 0.263660
H9    H     H_    0.424811 0.108443 0.043638 0.222299
H10   H     H_    0.201028 0.075170 0.098919 0.241356
H11   H     H_    0.197521 0.121495 0.025451 0.212530
H12   H     H_    0.368393 0.225736 0.950499 0.183518
H13   H     H_    0.178681 0.235664 0.082240 0.258888
H14   H     H_    0.592692 0.226921 0.691598 0.221882
H15   H     H_    0.380446 0.134987 0.697260 0.239821
H16   H     H_    0.384068 0.208535 0.627688 0.225250
H17   H     H_    0.316632 0.284653 0.691748 0.251698
H18   H     H_    0.748779 0.710736 0.300801 0.226465
H19   H     H_    0.886758 0.546474 0.264444 0.227031
H20   H     H_    0.811358 0.451577 0.326309 0.251431
H21   H     H_    0.915041 0.595492 0.335700 0.231392
H22   H     H_    0.712759 0.761118 0.649365 0.139114
H23   H     H_    0.122485 0.621113 0.550135 0.159830
H24   H     H_    0.730951 0.965884 0.599257 0.133303
H25   H     H_    0.527015 0.064095 0.586321 0.161658
H26   H     H_    0.301078 0.955501 0.621177 0.126741
H27   H     H_    0.281074 0.751748 0.673223 0.129993
H28   H     H_    0.415421 0.231324 0.357481 0.124271
H29   H     H_    0.236350 0.074967 0.403152 0.138031
H30   H     H_    0.997509 0.111624 0.405870 0.126660
H31   H     H_    0.938360 0.307006 0.364093 0.128901
H32   H     H_    0.115785 0.471182 0.323963 0.138438
H33   H     H_    0.247917 0.626876 0.833591 0.153639
H34   H     H_    0.874549 0.371654 0.454559 0.162019
H35   H     H_    0.144087 0.806898 0.880711 0.147296
H36   H     H_    0.256079 0.023544 0.864247 0.159375
H37   H     H_    0.475637 0.059610 0.802098 0.153313
H38   H     H_    0.583774 0.880671 0.756748 0.152132
H39   H     H_    0.244151 0.617804 0.190197 0.153644
H40   H     H_    0.032849 0.565293 0.149831 0.140557
H41   H     H_    0.925066 0.346110 0.154277 0.146957
H42   H     H_    0.032402 0.177563 0.197066 0.141409
H43   H     H_    0.246608 0.227079 0.235346 0.157273
H44   H     H_    0.572392 0.338735 0.782533 0.158281
H45   H     H_    0.705385 0.597262 0.205237 0.164153
H46   H     H_    0.608217 0.110789 0.452513 0.186048
H47   H     H_    0.384722 0.888290 0.470318 0.184281
H48   H     H_    0.310814 0.089314 0.508253 0.150185
N1    N     N_R   0.511270 0.513251 0.146109 -0.345074
N2    N     N_R   0.511855 0.528556 0.851038 -0.343960
N3    N     N_2   0.842710 0.448880 0.476480 -0.196436
N4    N     N_2   0.157290 0.551120 0.523520 -0.199104
N5    N     N_2   0.683338 0.848658 0.934983 -0.251699
N6    N     N_2   0.374387 0.182763 0.059942 -0.244541
N7    N     N_2   0.530587 0.285968 0.676358 -0.307435
N8    N     N_2   0.724013 0.619153 0.315158 -0.286567
O1    O     O_R   0.431060 0.692470 0.504730 -0.610686
O2    O     O_2   0.664129 0.711347 0.842880 -0.550842
O3    O     O_2   0.574412 0.731932 0.144923 -0.577694
O4    O     O_2   0.368353 0.338920 0.858611 -0.592471
O5    O     O_R   0.568940 0.307530 0.495270 -0.613257
O6    O     O_R   0.651120 0.659650 0.489640 -0.612843
O7    O     O_R   0.348880 0.340350 0.510360 -0.604815
O8    O     O_R   0.389950 0.516450 0.591390 -0.610020
O9    O     O_R   0.610050 0.483550 0.408610 -0.591176
O10   O     O_R   0.610020 0.483630 0.576300 -0.605721
O11   O     O_R   0.389980 0.516370 0.423700 -0.612568
O12   O     O_2   0.470134 0.292732 0.147113 -0.548456
Zn1   Zn    Zn3+2 0.353060 0.521920 0.510080 0.947024
Zn2   Zn    Zn3+2 0.646940 0.478080 0.489920 0.942726

loop_
_geom_bond_atom_site_label_1
_geom_bond_atom_site_label_2
_ccdc_geom_bond_type
O5    Zn2   S    
C9    H47   S    
C34   C56   A    
C23   C45   A    
C5    N2    S    
C27   C29   A    
C35   H21   S    
H18   N8    S    
C16   N1    A    
C32   H11   S    
C35   N8    S    
C12   O7    A    
C53   C54   A    
C2    C63   A    
C59   H41   S    
C17   C26   A    
C36   C37   A    
C19   C21   A    
C24   C26   A    
C8    H48   S    
C32   H10   S    
C38   C39   A    
C49   C54   A    
C14   C62   S    
C45   C62   A    
C25   C30   A    
C14   O8    A    
C31   N5    S    
C62   C64   A    
C44   H29   S    
C32   H13   S    
C31   H6    S    
C53   H37   S    
C22   C25   A    
C5    C23   A    
C11   N3    D    
C9    C10   S    
C18   O3    S    
C15   O9    A    
C45   N7    S    
C31   H7    S    
C59   C60   A    
C56   N8    S    
C36   C41   A    
O10   Zn2   S    
C16   O12   S    
C18   N1    A    
C44   C46   A    
C17   N2    A    
C51   H35   S    
C57   H39   S    
C19   O4    S    
C51   C52   A    
C3    C49   S    
C37   H22   S    
C1    O6    A    
C4    C6    A    
C39   C40   A    
C35   H19   S    
C11   H4    S    
C33   H15   S    
N4    Zn1   S    
C30   N6    S    
C19   N2    A    
C3    C5    A    
C58   C59   A    
C3    C64   A    
C29   N5    S    
C52   H36   S    
C6    C34   A    
C38   H24   S    
C60   C61   A    
C2    C4    A    
C43   C44   A    
C6    N1    S    
C37   C38   A    
C27   H1    S    
C47   C48   A    
C46   H30   S    
C8    C12   S    
C50   C51   A    
C56   C63   A    
C42   C48   A    
H23   N4    S    
C40   C41   A    
C41   H27   S    
C21   C28   A    
C20   C22   A    
C33   N7    S    
C55   C57   A    
C4    C55   S    
C22   C24   A    
C58   H40   S    
C42   C43   A    
C28   H12   S    
C60   H42   S    
C52   C53   A    
C14   O10   A    
C16   C25   A    
C7    C9    D    
C46   C47   A    
C31   H8    S    
C50   H33   S    
C47   H31   S    
H9    N6    S    
C48   H32   S    
C1    C7    S    
C54   H38   S    
C13   H3    S    
O7    Zn1   S    
C32   N6    S    
O11   Zn1   S    
C35   H20   S    
C33   H16   S    
C12   O5    A    
C20   C27   A    
C43   H28   S    
O1    Zn1   S    
C28   C30   A    
H14   N7    S    
O8    Zn1   S    
C7    H2    S    
C11   C13   S    
C57   C58   A    
C2    C42   S    
C23   H44   S    
C55   C61   A    
H5    N5    S    
N3    Zn2   S    
C10   H46   S    
H34   N3    S    
C18   C20   A    
C61   H43   S    
C1    O1    A    
C13   N4    D    
O9    Zn2   S    
C17   O2    S    
C15   O11   A    
O6    Zn2   S    
C26   C29   A    
C8    C10   D    
C49   C50   A    
C21   C24   A    
C34   H45   S    
C15   C63   S    
C40   H26   S    
C36   C64   S    
C33   H17   S    
C39   H25   S    
