data_mof_unit_28815.cif
_audit_creation_date              2012-12-10T16:52:08-0500
_audit_creation_method            fapswitch 2.2
_symmetry_space_group_name_H-M    P1
_symmetry_Int_Tables_number       1
_space_group_crystal_system       triclinic
_cell_length_a                    7.778739
_cell_length_b                    8.663515
_cell_length_c                    14.915308
_cell_angle_alpha                 91.153164
_cell_angle_beta                  85.243444
_cell_angle_gamma                 93.565901
_cell_volume                      999.646502545

loop_
_atom_site_label
_atom_site_type_symbol
_atom_type_description
_atom_site_fract_x
_atom_site_fract_y
_atom_site_fract_z
_atom_type_partial_charge
C1    C     C_R   0.545525 0.794237 0.497252 0.856877
C2    C     C_R   0.561451 0.626807 0.810764 -0.238706
C3    C     C_R   0.496798 0.507043 0.232359 -0.084888
C4    C     C_R   0.503202 0.492956 0.767641 -0.084888
C5    C     C_R   0.555143 0.641052 0.185563 -0.049292
C6    C     C_R   0.444856 0.358947 0.814437 -0.049292
C7    C     C_R   0.556456 0.639103 0.091692 0.072886
C8    C     C_R   0.443544 0.360897 0.908308 0.072886
C9    C     C_R   0.498929 0.501693 0.046952 0.037491
C10   C     C_R   0.501071 0.498307 0.953048 0.037491
C11   C     C_R   0.439387 0.367681 0.096175 0.071623
C12   C     C_R   0.454475 0.205763 0.502748 0.856878
C13   C     C_R   0.560613 0.632319 0.903825 0.071623
C14   C     C_R   0.614424 0.770817 0.041752 -0.228984
C15   C     C_R   0.385576 0.229183 0.958248 -0.228984
C16   C     C_1   0.611160 0.779517 0.234199 0.154468
C17   C     C_1   0.388839 0.220483 0.765801 0.154468
C18   C     C_1   0.677832 0.908249 0.901376 0.160196
C19   C     C_1   0.322168 0.091751 0.098624 0.160196
C20   C     C_R   0.616795 0.768542 0.948709 -0.008546
C21   C     C_R   0.383204 0.231458 0.051291 -0.008546
C22   C     C_2   0.568965 0.956897 0.488694 0.206959
C23   C     C_2   0.431035 0.043103 0.511306 0.206960
C24   C     C_R   0.500980 0.497733 0.672575 0.870570
C25   C     C_R   0.499020 0.502267 0.327425 0.870570
C26   C     C_R   0.438549 0.373193 0.189236 -0.238705
H1    H     H_    0.394938 0.272949 0.229296 0.160951
H2    H     H_    0.605062 0.727051 0.770704 0.160951
H3    H     H_    0.658553 0.876871 0.074760 0.167524
H4    H     H_    0.341447 0.123129 0.925240 0.167525
H5    H     H_    0.810381 0.941360 0.437341 0.370766
H6    H     H_    0.189619 0.058640 0.562660 0.370765
H7    H     H_    0.937667 0.303567 0.388096 0.362613
H8    H     H_    0.062333 0.696433 0.611904 0.362613
N1    N     N_2   0.950330 0.457950 0.475660 0.181185
N2    N     N_2   0.049670 0.542050 0.524340 0.181185
N3    N     N_1   0.655852 0.890623 0.272178 -0.184112
N4    N     N_1   0.344148 0.109377 0.727822 -0.184113
N5    N     N_1   0.726720 0.019976 0.863604 -0.184354
N6    N     N_1   0.273279 0.980023 0.136395 -0.184354
O1    O     O_R   0.389250 0.738570 0.505970 -0.572469
O2    O     O_3   0.272386 0.978119 0.547070 -0.755010
O3    O     O_3   0.031167 0.358239 0.419683 -0.640165
O4    O     O_3   0.968833 0.641761 0.580317 -0.640165
O5    O     O_R   0.610750 0.261430 0.494030 -0.572469
O6    O     O_R   0.678390 0.711620 0.490370 -0.602969
O7    O     O_R   0.321610 0.288380 0.509630 -0.602969
O8    O     O_R   0.355420 0.513510 0.639950 -0.630896
O9    O     O_R   0.644580 0.486490 0.360050 -0.630896
O10   O     O_R   0.644560 0.486560 0.624350 -0.575409
O11   O     O_R   0.355440 0.513440 0.375650 -0.575409
O12   O     O_3   0.727614 0.021881 0.452930 -0.755011
Zn1   Zn    Zn3+2 0.306940 0.517990 0.510420 1.081689
Zn2   Zn    Zn3+2 0.693060 0.482010 0.489580 1.081689

loop_
_geom_bond_atom_site_label_1
_geom_bond_atom_site_label_2
_ccdc_geom_bond_type
C2    C4    A    
C18   N5    T    
C25   O11   A    
N1    O3    S    
C9    C10   A    
C16   N3    T    
N1    N2    D    
C11   C26   A    
C15   C21   A    
H5    O12   S    
O7    Zn1   S    
O6    Zn2   S    
C5    C7    A    
C1    C22   S    
N1    Zn2   S    
C9    C11   A    
C12   C23   S    
O1    Zn1   S    
C26   H1    S    
O10   Zn2   S    
C23   O2    S    
C12   O7    A    
C22   O12   S    
C19   C21   S    
O5    Zn2   S    
C8    C15   A    
C18   C20   S    
C17   N4    T    
C3    C26   A    
C24   O10   A    
O8    Zn1   S    
C4    C24   S    
C25   O9    A    
C1    O6    A    
N2    O4    S    
C4    C6    A    
C2    H2    S    
C19   N6    T    
C14   H3    S    
O9    Zn2   S    
C24   O8    A    
C14   C20   A    
C3    C25   S    
C2    C13   A    
H8    O4    S    
C15   H4    S    
C8    C10   A    
C1    O1    A    
C7    C9    A    
C6    C17   S    
H6    O2    S    
C22   C23   D    
C5    C16   S    
C6    C8    A    
N2    Zn1   S    
C13   C20   A    
C3    C5    A    
C11   C21   A    
C7    C14   A    
C12   O5    A    
O11   Zn1   S    
C10   C13   A    
H7    O3    S    
