data_mof_unit_48811.cif
_audit_creation_date              2013-03-05T15:42:42-0500
_audit_creation_method            fapswitch 2.2
_symmetry_space_group_name_H-M    P1
_symmetry_Int_Tables_number       1
_space_group_crystal_system       triclinic
_cell_length_a                    19.135317
_cell_length_b                    11.184767
_cell_length_c                    18.761799
_cell_angle_alpha                 90.484953
_cell_angle_beta                  90.549893
_cell_angle_gamma                 89.982548
_cell_volume                      4015.14757484

loop_
_atom_site_label
_atom_site_type_symbol
_atom_site_description
_atom_site_fract_x
_atom_site_fract_y
_atom_site_fract_z
_atom_type_partial_charge
O1    O     O_R   0.788190 0.043000 0.172520 -0.455381
O2    O     O_R   0.211810 0.043000 0.827480 -0.476324
O3    O     O_R   0.288190 0.543000 0.172520 -0.460043
O4    O     O_R   0.711810 0.543000 0.827480 -0.463760
O5    O     O_R   0.766240 0.292300 0.176860 -0.500346
O6    O     O_R   0.233760 0.292300 0.823140 -0.496267
O7    O     O_R   0.266240 0.792300 0.176860 -0.502787
O8    O     O_R   0.733760 0.792300 0.823140 -0.494197
C1    C     C_R   0.727871 0.368690 0.143018 0.547608
C2    C     C_R   0.272256 0.368691 0.857083 0.578158
C3    C     C_R   0.227709 0.867997 0.142831 0.569464
C4    C     C_R   0.772184 0.869186 0.856951 0.546905
O9    O     O_R   0.670310 0.409160 0.168720 -0.512816
O10   O     O_R   0.329690 0.409160 0.831280 -0.512881
O11   O     O_R   0.170310 0.909160 0.168720 -0.502629
O12   O     O_R   0.829690 0.909160 0.831280 -0.530786
O13   O     O_R   0.556160 0.251900 0.173380 -0.463754
O14   O     O_R   0.443840 0.251900 0.826620 -0.501520
O15   O     O_R   0.056160 0.751900 0.173380 -0.494406
O16   O     O_R   0.943840 0.751900 0.826620 -0.473669
C5    C     C_R   0.560198 0.151354 0.137715 0.558018
C6    C     C_R   0.468871 0.154674 0.854581 0.567015
C7    C     C_R   0.031352 0.654177 0.145321 0.569929
C8    C     C_R   0.940165 0.652171 0.862306 0.559408
O17   O     O_R   0.545410 0.050140 0.168240 -0.523110
O18   O     O_R   0.454590 0.050140 0.831760 -0.440362
O19   O     O_R   0.045410 0.550140 0.168240 -0.443099
O20   O     O_R   0.954590 0.550140 0.831760 -0.528878
O21   O     O_R   0.681530 0.958350 0.176970 -0.529434
O22   O     O_R   0.318470 0.958350 0.823030 -0.518218
O23   O     O_R   0.181530 0.458350 0.176970 -0.501866
O24   O     O_R   0.818470 0.458350 0.823030 -0.544414
C9    C     C_R   0.743946 0.964512 0.151525 0.558430
C10   C     C_R   0.256363 0.964735 0.848610 0.546801
C11   C     C_R   0.243695 0.464251 0.151408 0.576250
C12   C     C_R   0.756128 0.464999 0.848502 0.538388
O25   O     O_R   0.788610 0.044480 0.334450 -0.542777
O26   O     O_R   0.211390 0.044480 0.665550 -0.485550
O27   O     O_R   0.288610 0.544480 0.334450 -0.510667
O28   O     O_R   0.711390 0.544480 0.665550 -0.467573
O29   O     O_R   0.766630 0.293670 0.326970 -0.457529
O30   O     O_R   0.233370 0.293670 0.673030 -0.441076
O31   O     O_R   0.266630 0.793670 0.326970 -0.489721
O32   O     O_R   0.733370 0.793670 0.673030 -0.440557
C13   C     C_R   0.710734 0.333663 0.361079 0.556540
C14   C     C_R   0.288993 0.334247 0.638075 0.595398
C15   C     C_R   0.210583 0.834906 0.361407 0.531161
C16   C     C_R   0.770481 0.872689 0.643561 0.597019
O33   O     O_R   0.670730 0.410640 0.330640 -0.463643
O34   O     O_R   0.329270 0.410640 0.669360 -0.523329
O35   O     O_R   0.170730 0.910640 0.330640 -0.453715
O36   O     O_R   0.829270 0.910640 0.669360 -0.532745
O37   O     O_R   0.556550 0.253260 0.323480 -0.527166
O38   O     O_R   0.443450 0.253260 0.676520 -0.558561
O39   O     O_R   0.056550 0.753260 0.323480 -0.537685
O40   O     O_R   0.943450 0.753260 0.676520 -0.523746
C17   C     C_R   0.533871 0.153825 0.353714 0.539629
C18   C     C_R   0.465464 0.157663 0.646351 0.544250
C19   C     C_R   0.033789 0.654233 0.353837 0.517658
C20   C     C_R   0.965805 0.658320 0.646579 0.564691
O41   O     O_R   0.545830 0.051610 0.330160 -0.524351
O42   O     O_R   0.454170 0.051610 0.669840 -0.441352
O43   O     O_R   0.045830 0.551610 0.330160 -0.531402
O44   O     O_R   0.954170 0.551610 0.669840 -0.447667
O45   O     O_R   0.681920 0.959720 0.327070 -0.461659
O46   O     O_R   0.318080 0.959720 0.672930 -0.463674
O47   O     O_R   0.181920 0.459720 0.327070 -0.449520
O48   O     O_R   0.818080 0.459720 0.672930 -0.480893
C21   C     C_R   0.744476 0.972195 0.355074 0.569773
C22   C     C_R   0.256556 0.964614 0.646895 0.577070
C23   C     C_R   0.232988 0.507048 0.363792 0.520539
C24   C     C_R   0.758009 0.467748 0.645162 0.579385
Cr1   Cr    Cr6+3 0.772820 0.169820 0.252640 1.074816
Cr2   Cr    Cr6+3 0.227180 0.169820 0.747360 1.081035
Cr3   Cr    Cr6+3 0.272820 0.669820 0.252640 1.068894
Cr4   Cr    Cr6+3 0.727180 0.669820 0.747360 1.098997
Cr5   Cr    Cr6+3 0.615040 0.323610 0.249150 1.077075
Cr6   Cr    Cr6+3 0.384960 0.323610 0.750850 1.030182
Cr7   Cr    Cr6+3 0.115040 0.823610 0.249150 1.067952
Cr8   Cr    Cr6+3 0.884960 0.823610 0.750850 1.034197
Cr9   Cr    Cr6+3 0.616720 0.011130 0.250660 1.059446
Cr10  Cr    Cr6+3 0.383280 0.011130 0.749340 1.104250
Cr11  Cr    Cr6+3 0.116720 0.511130 0.250660 1.108476
Cr12  Cr    Cr6+3 0.883280 0.511130 0.749340 1.036639
O49   O     O_3   0.668190 0.168190 0.250820 -0.331298
O50   O     O_3   0.331810 0.168190 0.749180 -0.305195
O51   O     O_3   0.168190 0.668190 0.250820 -0.331220
O52   O     O_3   0.831810 0.668190 0.749180 -0.292710
C25   C     C_3   0.571857 0.200027 0.955066 -0.119853
C26   C     C_3   0.534428 0.270747 0.015524 -0.077613
C27   C     C_3   0.966892 0.771559 0.985813 -0.077214
C28   C     C_3   0.928980 0.701058 0.045360 -0.119607
C29   C     C_3   0.575519 0.089344 0.004136 -0.178325
C30   C     C_3   0.462740 0.227385 0.986248 -0.063634
C31   C     C_3   0.038251 0.726393 0.014537 -0.064351
C32   C     C_3   0.924596 0.590903 0.994909 -0.177950
H1    H     H_    0.622365 0.032856 0.012633 0.128734
H2    H     H_    0.415394 0.279824 0.976136 0.163027
H3    H     H_    0.086050 0.777730 0.025130 0.162443
H4    H     H_    0.877350 0.535369 0.985785 0.129990
H5    H     H_    0.616309 0.225529 0.921054 0.165689
H6    H     H_    0.542971 0.363173 0.034759 0.183727
H7    H     H_    0.958963 0.864236 0.967636 0.184413
H8    H     H_    0.884727 0.726660 0.079869 0.168820
C33   C     C_3   0.537545 0.159234 0.062862 0.005535
C34   C     C_3   0.500283 0.157606 0.926969 0.044349
C35   C     C_3   0.000174 0.656731 0.072906 0.041774
C36   C     C_3   0.963037 0.660620 0.937079 0.010222
C37   C     C_3   0.466913 0.117134 0.034260 0.003623
C38   C     C_3   0.504029 0.047703 0.975501 0.013175
C39   C     C_3   0.995769 0.547476 0.023018 0.010240
C40   C     C_3   0.033356 0.616595 0.965132 0.002896
C41   C     C_R   0.760284 0.889149 0.934599 -0.037017
C42   C     C_R   0.240017 0.886608 0.065121 -0.001313
C43   C     C_R   0.260063 0.387495 0.934806 0.001788
C44   C     C_R   0.740034 0.388709 0.065418 -0.040754
C45   C     C_R   0.704796 0.835006 0.973393 -0.011152
C46   C     C_R   0.295425 0.831221 0.026014 0.018359
C47   C     C_R   0.204464 0.332265 0.973142 0.019759
C48   C     C_R   0.795220 0.334089 0.025831 -0.011689
C49   C     C_R   0.708512 0.833396 0.049127 -0.021341
C50   C     C_R   0.292618 0.831738 0.950062 0.020950
C51   C     C_R   0.207465 0.331450 0.048997 0.013977
C52   C     C_R   0.791643 0.333744 0.949979 -0.015084
C53   C     C_R   0.819246 0.936805 0.047372 0.116854
C54   C     C_R   0.181186 0.930314 0.952050 0.158193
C55   C     C_R   0.319181 0.429278 0.048219 0.154517
C56   C     C_R   0.681340 0.438176 0.953077 0.120144
C57   C     C_R   0.817265 0.936967 0.973561 -0.131054
C58   C     C_R   0.182787 0.932260 0.025946 -0.122644
C59   C     C_R   0.317498 0.432104 0.974410 -0.127040
C60   C     C_R   0.683413 0.438027 0.026942 -0.129384
C61   C     C_R   0.644997 0.784106 0.940645 -0.033834
C62   C     C_R   0.353010 0.773532 0.058628 -0.090939
C63   C     C_R   0.146486 0.276018 0.939793 -0.087537
C64   C     C_R   0.854543 0.281331 0.057903 -0.035192
C65   C     C_R   0.100477 0.206762 0.978990 -0.121945
C66   C     C_R   0.903320 0.219659 0.016765 -0.082871
C67   C     C_R   0.595975 0.722596 0.980893 -0.083326
C68   C     C_R   0.398941 0.704544 0.018404 -0.125092
C69   C     C_R   0.604271 0.710591 0.053850 -0.146835
C70   C     C_R   0.390614 0.694320 0.945065 -0.086935
C71   C     C_R   0.108920 0.195273 0.052144 -0.082642
C72   C     C_R   0.895048 0.208827 0.943624 -0.150353
C73   C     C_R   0.660306 0.765110 0.087948 -0.082297
C74   C     C_R   0.338776 0.759265 0.910740 -0.027461
C75   C     C_R   0.161067 0.259122 0.087357 -0.026474
C76   C     C_R   0.839457 0.264955 0.910254 -0.084824
C77   C     C_R   0.760206 0.900642 0.084776 0.008305
C78   C     C_R   0.241062 0.899440 0.914874 0.053860
C79   C     C_R   0.259228 0.398226 0.084980 0.051979
C80   C     C_R   0.740160 0.401888 0.915126 0.009231
H9    H     H_    0.632728 0.795197 0.884965 0.195370
H10   H     H_    0.365687 0.783182 0.114361 0.156623
H11   H     H_    0.133577 0.287015 0.884291 0.154253
H12   H     H_    0.866668 0.291069 0.113795 0.192340
H13   H     H_    0.862705 0.970457 0.946712 0.163764
H14   H     H_    0.135443 0.959515 0.052368 0.156477
H15   H     H_    0.364833 0.459318 0.948250 0.156008
H16   H     H_    0.638167 0.472235 0.054161 0.164205
H17   H     H_    0.055603 0.166811 0.952951 0.148511
H18   H     H_    0.949579 0.183010 0.041554 0.184845
H19   H     H_    0.549691 0.686497 0.955497 0.184925
H20   H     H_    0.443685 0.663795 0.043809 0.151120
H21   H     H_    0.072868 0.141210 0.082129 0.158098
H22   H     H_    0.932505 0.158630 0.912547 0.125823
H23   H     H_    0.566573 0.660626 0.084227 0.133631
H24   H     H_    0.426493 0.640220 0.914319 0.153809
H25   H     H_    0.666213 0.752334 0.144815 0.161715
H26   H     H_    0.333637 0.749436 0.853488 0.144905
H27   H     H_    0.166237 0.248678 0.144475 0.164345
H28   H     H_    0.833540 0.252815 0.853221 0.136235
H29   H     H_    0.435698 0.292417 0.418105 0.149597
H30   H     H_    0.407481 0.285739 0.545225 0.118579
H31   H     H_    0.939106 0.799614 0.418823 0.128830
H32   H     H_    0.912241 0.801919 0.546609 0.142872
C81   C     C_R   0.491488 0.168355 0.573688 0.020548
C82   C     C_R   0.507349 0.144565 0.426704 0.017601
C83   C     C_R   0.992678 0.672364 0.574461 0.017663
C84   C     C_R   0.007548 0.647095 0.427226 0.022892
C85   C     C_R   0.539698 0.085294 0.547045 -0.017461
C86   C     C_R   0.531963 0.052149 0.474318 0.018825
C87   C     C_R   0.041228 0.589979 0.547626 -0.019669
C88   C     C_R   0.033326 0.556280 0.475138 0.016205
C89   C     C_R   0.461989 0.230063 0.453186 -0.113457
C90   C     C_R   0.449357 0.232596 0.525843 -0.102232
C91   C     C_R   0.964082 0.735940 0.454038 -0.114287
C92   C     C_R   0.951898 0.741127 0.526986 -0.095214
C93   C     C_R   0.578166 0.012104 0.594157 0.025619
C94   C     C_R   0.538223 0.925994 0.458047 0.073157
C95   C     C_R   0.083307 0.520615 0.593949 0.017929
C96   C     C_R   0.042534 0.430773 0.458907 0.069401
C97   C     C_R   0.094802 0.401631 0.576094 -0.088924
C98   C     C_R   0.070866 0.356293 0.511389 -0.095204
C99   C     C_R   0.581312 0.891054 0.578661 -0.072273
C100  C     C_R   0.559403 0.848423 0.512430 -0.083746
H33   H     H_    0.117967 0.341591 0.614315 0.205223
H34   H     H_    0.071736 0.260653 0.503189 0.203748
H35   H     H_    0.598696 0.828908 0.618920 0.198866
H36   H     H_    0.556898 0.752760 0.504129 0.196547
C101  C     C_R   0.751942 0.904170 0.570426 -0.029103
C102  C     C_R   0.218289 0.870060 0.435410 -0.012685
C103  C     C_R   0.283183 0.366913 0.563064 -0.029146
C104  C     C_R   0.720489 0.366140 0.434622 0.004562
C105  C     C_R   0.784189 0.006081 0.543326 -0.029755
C106  C     C_R   0.161167 0.879122 0.482928 -0.005129
C107  C     C_R   0.322113 0.466420 0.536725 0.001575
C108  C     C_R   0.664706 0.371843 0.483216 -0.011814
C109  C     C_R   0.802985 0.003627 0.471925 -0.024472
C110  C     C_R   0.175215 0.881047 0.556910 -0.000787
C111  C     C_R   0.296385 0.522016 0.476673 -0.031059
C112  C     C_R   0.680135 0.375333 0.556592 -0.004365
C113  C     C_R   0.728370 0.830824 0.449093 0.177750
C114  C     C_R   0.298746 0.907933 0.529507 0.159760
C115  C     C_R   0.230707 0.340701 0.446671 0.196964
C116  C     C_R   0.801295 0.413572 0.526708 0.164444
C117  C     C_R   0.725482 0.814973 0.521960 0.126911
C118  C     C_R   0.283235 0.908425 0.457937 0.184696
C119  C     C_R   0.241164 0.301366 0.515168 0.116237
C120  C     C_R   0.785492 0.407092 0.455368 0.214666
C121  C     C_R   0.809507 0.098561 0.588212 -0.089784
C122  C     C_R   0.093461 0.913030 0.459993 -0.048519
C123  C     C_R   0.385674 0.512374 0.567212 -0.083535
C124  C     C_R   0.596171 0.400563 0.461757 -0.054317
C125  C     C_R   0.868483 0.161631 0.569019 -0.104714
C126  C     C_R   0.043609 0.950004 0.509029 -0.101276
C127  C     C_R   0.416801 0.615933 0.543594 -0.111353
C128  C     C_R   0.546988 0.433136 0.511895 -0.104745
C129  C     C_R   0.895395 0.147656 0.500976 -0.115626
C130  C     C_R   0.054939 0.933717 0.581418 -0.089100
C131  C     C_R   0.387772 0.673013 0.486428 -0.073315
C132  C     C_R   0.560562 0.417192 0.584194 -0.091527
C133  C     C_R   0.862350 0.071528 0.452030 -0.082435
C134  C     C_R   0.119033 0.890747 0.605014 -0.082051
C135  C     C_R   0.325424 0.632981 0.458269 -0.091093
C136  C     C_R   0.625433 0.377818 0.605960 -0.083627
C137  C     C_R   0.763260 0.928834 0.424450 -0.017030
C138  C     C_R   0.244752 0.899818 0.580138 0.016595
C139  C     C_R   0.249111 0.458601 0.431752 -0.024827
C140  C     C_R   0.748278 0.403150 0.578212 0.000800
H37   H     H_    0.789555 0.111292 0.641616 0.134695
H38   H     H_    0.078989 0.923907 0.405083 0.181693
H39   H     H_    0.416022 0.465180 0.605779 0.142902
H40   H     H_    0.580466 0.412255 0.407331 0.184410
H41   H     H_    0.894372 0.218164 0.608078 0.163016
H42   H     H_    0.993945 0.982737 0.490217 0.110330
H43   H     H_    0.465421 0.647202 0.567041 0.135219
H44   H     H_    0.496958 0.462272 0.492743 0.123135
H45   H     H_    0.942347 0.194650 0.486418 0.168970
H46   H     H_    0.014020 0.954051 0.619065 0.133527
H47   H     H_    0.413282 0.748046 0.462880 0.179598
H48   H     H_    0.522435 0.436036 0.624331 0.117057
H49   H     H_    0.887638 0.059667 0.401196 0.168244
H50   H     H_    0.126892 0.880232 0.661851 0.128765
H51   H     H_    0.303760 0.685826 0.418138 0.154688
H52   H     H_    0.635011 0.367612 0.662590 0.118611
C141  C     C_2   0.608004 0.059200 0.662260 0.222872
H53   H     H_    0.608675 0.154555 0.672667 0.083354
O53   O     O_2   0.631939 0.992343 0.707447 -0.503493
C142  C     C_2   0.507741 0.864587 0.394161 0.283305
H54   H     H_    0.466942 0.905599 0.362930 0.180457
O54   O     O_2   0.527505 0.765221 0.375822 -0.490851
C143  C     C_2   0.111761 0.569919 0.662109 0.247587
H55   H     H_    0.106151 0.664158 0.674549 0.093091
O55   O     O_2   0.142217 0.506247 0.704882 -0.478455
C144  C     C_2   0.008524 0.366265 0.397963 0.300137
H56   H     H_    0.966591 0.406492 0.368130 0.188832
O56   O     O_2   0.027399 0.266190 0.379927 -0.502458
Br1   Br    Br    0.693327 0.712319 0.380871 -0.331796
Br2   Br    Br    0.394322 0.929599 0.552835 -0.518940
Br3   Br    Br    0.198887 0.226869 0.373806 -0.298082
Br4   Br    Br    0.896131 0.440991 0.547635 -0.529351
Br5   Br    Br    0.684032 0.669207 0.546978 -0.480503
Br6   Br    Br    0.341158 0.996306 0.392788 -0.430941
Br7   Br    Br    0.195183 0.160121 0.538169 -0.493568
Br8   Br    Br    0.840287 0.497848 0.388266 -0.427394
C145  C     C_2   0.407524 0.072447 0.078191 0.262620
H57   H     H_    0.415119 0.996000 0.112497 0.113791
O57   O     O_2   0.350666 0.121727 0.075728 -0.496798
C146  C     C_2   0.492277 0.918963 0.963273 0.230298
H58   H     H_    0.488594 0.864148 0.009922 0.082586
O58   O     O_2   0.492268 0.874478 0.903772 -0.495607
C147  C     C_2   0.006182 0.418566 0.034176 0.227999
H59   H     H_    0.008371 0.363123 0.987108 0.083218
O59   O     O_2   0.006998 0.374892 0.093443 -0.495172
C148  C     C_2   0.092460 0.571533 0.920473 0.260857
H60   H     H_    0.084418 0.495739 0.885006 0.123523
O60   O     O_2   0.149552 0.619962 0.923523 -0.499942
Br9   Br    Br    0.906180 0.973633 0.096782 -0.581950
Br10  Br    Br    0.093343 0.945300 0.902015 -0.562968
Br11  Br    Br    0.406932 0.446292 0.098494 -0.529963
Br12  Br    Br    0.594110 0.472581 0.904187 -0.602079

loop_
_geom_bond_atom_site_label_1
_geom_bond_atom_site_label_2
_geom_bond_distance
_ccdc_geom_bond_type
O4    C12   1.278603 A    
O25   C21   1.236363 A    
C70   C74   1.386199 A    
C45   C61   1.411366 A    
Cr7   O51   2.014050 S    
C122  H38   1.072129 S    
C110  C138  1.411382 A    
O39   C19   1.325367 A    
C17   C82   1.469488 S    
C31   H3    1.095757 S    
C121  C125  1.383267 A    
C143  O55   1.221177 D    
C1    O9    1.287176 A    
O44   Cr12  2.078579 S    
C3    O11   1.288563 A    
C4    O12   1.287193 A    
C123  H39   1.066603 S    
C25   C34   1.536590 S    
C132  H48   1.073090 S    
C69   C73   1.382543 A    
C29   C38   1.535902 S    
O2    C10   1.284217 A    
C32   C36   1.535030 S    
O17   Cr9   2.100972 S    
C42   C58   1.410948 A    
C124  C128  1.383586 A    
H32   C92   1.083761 S    
O31   Cr3   1.961653 S    
O16   Cr8   1.980308 S    
C94   C142  1.490468 S    
C83   C92   1.411275 A    
O13   C5    1.306377 A    
C81   C90   1.403088 A    
O28   Cr4   2.089850 S    
O12   Cr8   2.077691 S    
O22   Cr10  1.960900 S    
O15   C7    1.297275 A    
C87   C88   1.414898 A    
C84   C91   1.389738 A    
O46   Cr10  1.973455 S    
C108  C112  1.405398 A    
C7    C35   1.479092 S    
C119  Br7   1.864356 S    
C66   H18   1.078415 S    
C82   C86   1.447610 A    
C53   C77   1.397400 A    
C64   C66   1.395398 A    
C14   C103  1.460191 S    
C61   C67   1.395078 A    
C114  C118  1.372463 A    
C115  C139  1.396334 A    
C63   C65   1.392293 A    
C25   H5    1.107118 S    
C1    C44   1.495345 S    
O5    Cr1   1.985791 S    
Cr12  O52   2.013685 S    
C26   C33   1.538069 S    
C27   H7    1.103931 S    
C55   Br11  1.926715 S    
C17   O41   1.244151 A    
C47   C51   1.423895 A    
C30   C37   1.534858 S    
C19   O43   1.249429 A    
C20   O44   1.294368 A    
H31   C91   1.083432 S    
Cr8   O52   2.014127 S    
C9    C77   1.472308 S    
C148  O60   1.220175 D    
O46   C22   1.271602 A    
C103  C107  1.433426 A    
C49   C77   1.403829 A    
C130  C134  1.387081 A    
C50   C74   1.408322 A    
C55   C59   1.385496 A    
C28   H8    1.107010 S    
C70   H24   1.082449 S    
C99   C100  1.388265 A    
C53   C57   1.384991 A    
C16   O36   1.290863 A    
C97   C98   1.385556 A    
C54   C58   1.386448 A    
C86   C94   1.446317 A    
O31   C15   1.337291 A    
C53   Br9   1.939225 S    
O32   C16   1.267782 A    
C127  C131  1.366170 A    
O47   Cr11  1.980294 S    
O21   C9    1.292546 A    
C39   C40   1.524478 S    
C131  H47   1.071660 S    
C121  H37   1.083906 S    
C20   C83   1.461800 S    
C117  Br5   1.878394 S    
H29   C89   1.083468 S    
O24   C12   1.291235 A    
C19   C84   1.472930 S    
C114  C138  1.413671 A    
C109  C137  1.430310 A    
C123  C127  1.380911 A    
C28   C32   1.549118 S    
C114  Br2   1.891603 S    
C141  H53   1.082681 S    
C46   C50   1.425557 A    
O32   Cr4   1.978304 S    
C26   H6    1.103757 S    
C55   C79   1.389936 A    
C56   C80   1.395973 A    
O11   Cr7   2.089717 S    
C111  C135  1.407031 A    
O27   Cr3   2.107084 S    
O3    Cr3   2.080923 S    
C134  H50   1.082865 S    
C46   C62   1.413591 A    
Cr5   O49   2.014050 S    
C145  H57   1.083488 S    
C107  C111  1.378226 A    
C112  C136  1.404459 A    
C99   H35   1.080855 S    
C32   C39   1.535913 S    
O22   C10   1.287678 A    
C116  C140  1.413272 A    
C104  C108  1.411505 A    
C146  H58   1.075701 S    
C2    O10   1.288910 A    
C27   C28   1.557913 S    
C12   C80   1.475294 S    
C126  C130  1.386810 A    
C44   C48   1.430728 A    
C15   C102  1.446000 S    
C96   C98   1.400276 A    
O5    C1    1.293071 A    
C106  C110  1.411275 A    
C44   C60   1.410893 A    
O3    C11   1.282839 A    
O8    C4    1.290240 A    
C59   H15   1.079432 S    
Cr1   O49   2.002180 S    
C144  O56   1.222090 D    
C41   C45   1.430576 A    
Cr3   O51   2.002180 S    
C43   C47   1.432968 A    
C29   H1    1.107589 S    
O26   Cr2   2.089850 S    
C33   C37   1.522695 S    
O29   C13   1.327268 A    
O28   C24   1.295830 A    
O14   C6    1.300657 A    
C35   C39   1.534812 S    
C51   C79   1.404914 A    
C116  C120  1.370690 A    
C142  H54   1.076475 S    
C37   C145  1.498636 S    
C128  H44   1.070977 S    
C108  C124  1.406054 A    
O40   Cr8   1.956388 S    
C102  C118  1.376363 A    
C145  O57   1.220157 D    
C135  H51   1.043770 S    
O41   Cr9   2.072893 S    
C67   C69   1.384115 A    
C98   H34   1.079573 S    
C106  C122  1.413967 A    
C81   C85   1.401573 A    
C32   H4    1.108168 S    
O33   Cr5   2.089219 S    
C49   C73   1.409788 A    
C129  C133  1.394319 A    
O35   Cr7   2.089219 S    
O29   Cr1   1.961653 S    
C84   C88   1.445592 A    
C56   Br12  1.936954 S    
C147  H59   1.075900 S    
C101  C105  1.398136 A    
C131  C135  1.373753 A    
C22   C138  1.457498 S    
Cr9   O49   2.014164 S    
C18   O42   1.287929 A    
Cr11  O51   2.014164 S    
O26   C22   1.291290 A    
O20   Cr12  2.095703 S    
C10   C78   1.478911 S    
C143  H55   1.083170 S    
C85   C86   1.417301 A    
C107  C123  1.432723 A    
C52   C76   1.409791 A    
C104  C120  1.377129 A    
C50   C78   1.406420 A    
C68   C70   1.387407 A    
C31   C40   1.534681 S    
C34   C38   1.537181 S    
C120  Br8   1.939677 S    
C30   H2    1.095015 S    
O30   C14   1.337039 A    
C71   H21   1.082376 S    
C5    O17   1.305332 A    
C54   Br10  1.925342 S    
C85   C93   1.411625 A    
C88   C96   1.444987 A    
C126  H42   1.075769 S    
C8    C36   1.467833 S    
C100  H36   1.080949 S    
O42   Cr10  2.078579 S    
O18   Cr10  2.095703 S    
C11   C79   1.475919 S    
O34   Cr6   2.100942 S    
C26   C30   1.549229 S    
C38   C146  1.473159 S    
C71   C75   1.386336 A    
O24   Cr12  1.960900 S    
C73   H25   1.082476 S    
O30   Cr2   1.978304 S    
C69   H23   1.082138 S    
O48   Cr12  1.973455 S    
C8    O20   1.303359 A    
O37   C17   1.327667 A    
C15   O35   1.277389 A    
Cr10  O50   2.013685 S    
C125  C129  1.388723 A    
C36   C40   1.523299 S    
C72   H22   1.082188 S    
O48   C24   1.260962 A    
C48   C64   1.411156 A    
C23   C139  1.420778 S    
O37   Cr5   1.966133 S    
C95   C97   1.387558 A    
O21   Cr9   1.953611 S    
C115  C119  1.374675 A    
O39   Cr7   1.966133 S    
C93   C99   1.383788 A    
O45   Cr9   1.980294 S    
C13   O33   1.285653 A    
O13   Cr5   1.970818 S    
O23   Cr11  1.953611 S    
C136  H52   1.083413 S    
O15   Cr7   1.970818 S    
C112  C140  1.396280 A    
C31   C35   1.538620 S    
O23   C11   1.288776 A    
C68   H20   1.078698 S    
C128  C132  1.391607 A    
C129  H45   1.079587 S    
C27   C36   1.536438 S    
O6    C2    1.288563 A    
C93   C141  1.486894 S    
C58   H14   1.079483 S    
O1    Cr1   2.080923 S    
O19   Cr11  2.100972 S    
C91   C92   1.391285 A    
C37   C38   1.524152 S    
C89   C90   1.386768 A    
C62   H10   1.075694 S    
C13   C104  1.434325 S    
O45   C21   1.309649 A    
C67   H19   1.078572 S    
O47   C23   1.300405 A    
C110  C134  1.413860 A    
C47   C63   1.413691 A    
O40   C20   1.272942 A    
C6    O18   1.270619 A    
O43   Cr11  2.072893 S    
C66   C72   1.384147 A    
C25   C26   1.557353 S    
O36   Cr8   2.100942 S    
C5    C33   1.469122 S    
O38   Cr6   1.956388 S    
C147  O59   1.218269 D    
C54   C78   1.389078 A    
C132  C136  1.376440 A    
C72   C76   1.382432 A    
C57   H13   1.077917 S    
O1    C9    1.277022 A    
C43   C59   1.409709 A    
O7    C3    1.291433 A    
C60   H16   1.077847 S    
C41   C57   1.409859 A    
C61   H9    1.076699 S    
C146  O58   1.218344 D    
C113  C137  1.369718 A    
C62   C68   1.392798 A    
C148  H60   1.083363 S    
C64   H12   1.076443 S    
C122  C126  1.391966 A    
C63   H11   1.075961 S    
C3    C42   1.495408 S    
C45   C49   1.422275 A    
C29   C33   1.534111 S    
C82   C89   1.383632 A    
O16   C8    1.308067 A    
C24   C140  1.454208 S    
O6    Cr2   1.969169 S    
C7    O19   1.271753 A    
Cr4   O52   2.002174 S    
O2    Cr2   2.098318 S    
C94   C100  1.401760 A    
Cr6   O50   2.014127 S    
C52   C80   1.405217 A    
C118  Br6   1.932795 S    
O27   C23   1.275370 A    
C25   C29   1.550183 S    
C40   C148  1.498617 S    
C56   C60   1.386058 A    
C75   H27   1.082550 S    
C83   C87   1.402229 A    
C125  H41   1.080559 S    
O9    Cr5   2.089717 S    
C142  O54   1.221618 D    
C113  C117  1.381693 A    
C124  H40   1.070731 S    
O7    Cr3   1.985791 S    
C6    C34   1.480014 S    
C127  H43   1.082182 S    
C16   C101  1.459927 S    
C141  O53   1.220967 D    
C95   C143  1.486870 S    
C28   C35   1.535983 S    
C105  C109  1.390431 A    
C65   H17   1.078961 S    
C96   C144  1.491157 S    
Cr2   O50   2.002174 S    
C42   C46   1.432859 A    
O14   Cr6   1.980308 S    
C51   C75   1.408264 A    
C74   H26   1.082386 S    
O8    Cr4   1.969169 S    
C111  C139  1.416798 A    
C4    C41   1.491595 S    
O38   C18   1.278725 A    
O25   Cr1   2.107084 S    
C30   C34   1.537031 S    
C87   C95   1.415343 A    
C133  H49   1.080758 S    
C14   O34   1.285230 A    
C103  C119  1.402416 A    
C101  C117  1.433394 A    
H30   C90   1.062685 S    
C97   H33   1.078672 S    
C105  C121  1.411229 A    
C76   H28   1.082345 S    
C18   C81   1.461750 S    
O10   Cr6   2.077691 S    
C65   C71   1.387467 A    
C109  C133  1.421258 A    
O4    Cr4   2.098318 S    
C144  H56   1.074714 S    
C39   C147  1.471904 S    
C27   C31   1.549269 S    
C102  C106  1.420195 A    
C113  Br1   1.949396 S    
C115  Br3   1.953372 S    
C130  H46   1.082347 S    
C21   C137  1.435342 S    
C116  Br4   1.877763 S    
C2    C43   1.492118 S    
C48   C52   1.424068 A    
