data_mof_unit_28423.cif
_audit_creation_date              2012-10-26T19:04:45-0400
_audit_creation_method            fapswitch 2.2
_symmetry_space_group_name_H-M    P1
_symmetry_Int_Tables_number       1
_space_group_crystal_system       triclinic
_cell_length_a                    9.629005
_cell_length_b                    10.891489
_cell_length_c                    13.539165
_cell_angle_alpha                 96.509498
_cell_angle_beta                  73.812342
_cell_angle_gamma                 88.780561
_cell_volume                      1352.74119702

loop_
_atom_site_label
_atom_site_type_symbol
_atom_type_description
_atom_site_fract_x
_atom_site_fract_y
_atom_site_fract_z
_atom_type_partial_charge
C1    C     C_R   0.496023 0.737803 0.506869 0.619446
C2    C     C_R   0.378475 0.515689 0.813700 -0.009496
C3    C     C_R   0.255251 0.895474 0.657818 0.376263
C4    C     C_R   0.422904 0.509286 0.699863 0.576240
C5    C     C_R   0.135133 0.969053 0.717743 -0.101126
C6    C     C_R   0.130901 0.095483 0.714899 -0.081707
C7    C     C_R   0.247988 0.150542 0.653831 0.394660
C8    C     C_R   0.369645 0.078141 0.586430 -0.065417
C9    C     C_R   0.370376 0.946932 0.586583 -0.073415
C10   C     C_R   0.490362 0.872761 0.519870 -0.017250
C11   C     C_R   0.615382 0.927800 0.469580 0.385734
C12   C     C_R   0.436929 0.526266 0.979419 0.024562
C13   C     C_R   0.622578 0.054278 0.480429 0.260951
C14   C     C_R   0.495695 0.131478 0.526226 -0.038500
C15   C     C_R   0.919010 0.344656 0.342215 0.438801
C16   C     C_R   0.497790 0.263906 0.509947 0.685273
C17   C     C_R   0.020026 0.280923 0.258817 0.279257
C18   C     C_R   0.162463 0.287943 0.250873 -0.125272
C19   C     C_R   0.208199 0.343721 0.332989 0.216375
C20   C     C_R   0.108310 0.423230 0.420560 0.121110
C21   C     C_R   0.956654 0.424188 0.421953 0.086111
C22   C     C_R   0.897135 0.573488 0.570933 0.024125
C23   C     C_R   0.472688 0.551279 0.875037 0.011585
C24   C     C_R   0.043866 0.572439 0.571744 0.032327
C25   C     C_R   0.575120 0.511138 0.302491 0.637538
C26   C     C_R   0.786760 0.584290 0.038066 -0.074676
C27   C     C_R   0.611240 0.536422 0.193818 0.033328
C28   C     C_R   0.244177 0.470274 0.860351 -0.065394
C29   C     C_R   0.211155 0.442903 0.961189 0.214534
C30   C     C_R   0.308348 0.466036 0.019237 -0.036845
C31   C     C_R   0.537059 0.552388 0.037771 0.060957
C32   C     C_R   0.678851 0.583054 0.986790 0.029822
C33   C     C_R   0.708361 0.617028 0.887124 -0.113906
C34   C     C_R   0.602396 0.609434 0.835118 -0.091351
C35   C     C_R   0.500206 0.552357 0.145671 0.203005
C36   C     C_R   0.754884 0.552954 0.138822 -0.072981
Cl1   Cl    Cl    0.799290 0.105764 0.443011 -0.406935
Cl2   Cl    Cl    0.966981 0.170745 0.172063 -0.341833
Cl3   Cl    Cl    0.380455 0.268533 0.311108 -0.511277
Cl4   Cl    Cl    0.325810 0.617001 0.219849 -0.559047
Cl5   Cl    Cl    0.052591 0.368283 0.010153 -0.584423
Cu1   Cu    Cu3+1 0.359340 0.500010 0.500010 1.174221
Cu2   Cu    Cu3+1 0.640660 0.499990 0.499990 1.122341
F1    F     F_    0.262976 0.777353 0.679078 -0.659869
F2    F     F_    0.244318 0.274856 0.670632 -0.643166
F3    F     F_    0.786317 0.312696 0.342897 -0.525833
F4    F     F_    0.734533 0.857595 0.410268 -0.548546
H1    H     H_    0.841181 0.548185 0.175461 0.191645
H2    H     H_    0.284329 0.432538 0.093782 0.179596
H3    H     H_    0.623559 0.648956 0.763448 0.135130
H4    H     H_    0.047664 0.928435 0.770875 0.155546
H5    H     H_    0.039710 0.152553 0.765658 0.181309
H6    H     H_    0.819309 0.635983 0.628074 0.098455
H7    H     H_    0.236596 0.233167 0.184075 0.209241
H8    H     H_    0.812110 0.652214 0.850318 0.112171
H9    H     H_    0.073728 0.632177 0.630987 0.160842
H10   H     H_    0.896315 0.605949 0.999224 0.162255
H11   H     H_    0.168044 0.447173 0.816422 0.211116
N1    N     N_R   0.852480 0.498790 0.499000 -0.234818
N2    N     N_R   0.148360 0.498710 0.498970 -0.216880
O1    O     O_R   0.381190 0.680360 0.500010 -0.451426
O2    O     O_R   0.618760 0.680340 0.500000 -0.474423
O3    O     O_R   0.323240 0.499990 0.650990 -0.445488
O4    O     O_R   0.560820 0.499960 0.650980 -0.548955
O5    O     O_R   0.381240 0.319660 0.500000 -0.400351
O6    O     O_R   0.618810 0.319640 0.499990 -0.404579
O7    O     O_R   0.439180 0.500040 0.349020 -0.431870
O8    O     O_R   0.676760 0.500010 0.349010 -0.448821

loop_
_geom_bond_atom_site_label_1
_geom_bond_atom_site_label_2
_ccdc_geom_bond_type
Cu2   O8    S    
C33   H8    S    
Cu1   O5    S    
C2    C4    S    
C26   C32   A    
C29   C30   A    
C3    C9    A    
C28   H11   S    
C27   C36   A    
C20   N2    A    
C2    C28   A    
C9    C10   A    
C4    O4    A    
C13   Cl1   S    
C19   C20   A    
Cu1   O1    S    
Cu2   N1    S    
C24   N2    A    
C23   C34   A    
C12   C30   A    
C32   C33   A    
C17   C18   A    
C29   Cl5   S    
C7    C8    A    
C22   N1    A    
C13   C14   A    
C1    O2    A    
C11   C13   A    
C4    O3    A    
C6    C7    A    
C25   O8    A    
C19   Cl3   S    
C27   C35   A    
Cu2   O6    S    
C7    F2    S    
C22   C24   A    
C26   C36   A    
C28   C29   A    
C30   H2    S    
C33   C34   A    
Cu2   O4    S    
C21   N1    A    
C22   H6    S    
C31   C35   A    
C17   Cl2   S    
C12   C31   A    
C5    C6    A    
C26   H10   S    
C14   C16   S    
C3    F1    S    
C34   H3    S    
C24   H9    S    
Cu1   O7    S    
C18   H7    S    
C35   Cl4   S    
C15   C21   A    
C36   H1    S    
C16   O6    A    
C20   C21   A    
Cu2   O2    S    
C25   O7    A    
C18   C19   A    
C10   C11   A    
Cu1   N2    S    
C2    C23   A    
C15   C17   A    
C5    H4    S    
C12   C23   A    
C16   O5    A    
C8    C14   A    
C15   F3    S    
C6    H5    S    
C11   F4    S    
Cu1   O3    S    
C1    C10   S    
C31   C32   A    
Cu1   Cu2   S    
C8    C9    A    
C3    C5    A    
C25   C27   S    
C1    O1    A    
