data_mof_unit_8623.cif
_audit_creation_date              2012-10-26T20:16:49-0400
_audit_creation_method            fapswitch 2.2
_symmetry_space_group_name_H-M    P1
_symmetry_Int_Tables_number       1
_space_group_crystal_system       triclinic
_cell_length_a                    10.975976
_cell_length_b                    11.116607
_cell_length_c                    10.629651
_cell_angle_alpha                 91.515561
_cell_angle_beta                  92.643102
_cell_angle_gamma                 86.69518
_cell_volume                      1293.08088139

loop_
_atom_site_label
_atom_site_type_symbol
_atom_type_description
_atom_site_fract_x
_atom_site_fract_y
_atom_site_fract_z
_atom_type_partial_charge
C1    C     C_R   0.502655 0.261764 0.499344 0.527818
C2    C     C_R   0.572266 0.839167 0.811918 -0.036446
C3    C     C_R   0.523951 0.114887 0.266907 0.072553
C4    C     C_R   0.475906 0.885110 0.733080 0.072557
C5    C     C_R   0.645031 0.121240 0.234059 -0.077777
C6    C     C_R   0.354811 0.878739 0.765890 -0.077821
C7    C     C_R   0.670514 0.176385 0.123905 -0.103991
C8    C     C_R   0.329304 0.823605 0.876043 -0.104010
C9    C     C_R   0.575124 0.226093 0.046767 -0.039212
C10   C     C_R   0.424686 0.773908 0.953210 -0.039221
C11   C     C_R   0.493959 0.934510 0.385920 -0.017901
C12   C     C_R   0.497319 0.738236 0.500656 0.527763
C13   C     C_R   0.505923 0.065492 0.614079 -0.017864
C14   C     C_R   0.496263 0.872305 0.500320 -0.056796
C15   C     C_R   0.503655 0.127696 0.499679 -0.056765
C16   C     C_R   0.262143 0.496637 0.497765 0.554531
C17   C     C_R   0.737859 0.503352 0.502234 0.554540
C18   C     C_R   0.499211 0.940281 0.613847 -0.069194
C19   C     C_R   0.500677 0.059719 0.386150 -0.069218
C20   C     C_1   0.500061 0.500236 0.072561 0.077782
C21   C     C_1   0.499933 0.499772 0.927439 0.077778
C22   C     C_R   0.169726 0.691136 0.115074 -0.053785
C23   C     C_R   0.871761 0.506600 0.504324 0.006570
C24   C     C_R   0.830030 0.308907 0.884839 -0.053769
C25   C     C_R   0.134752 0.670379 0.236501 0.151057
C26   C     C_R   0.865123 0.329632 0.763453 0.151096
C27   C     C_R   0.108451 0.552799 0.268418 0.060656
C28   C     C_R   0.891559 0.447185 0.731573 0.060602
C29   C     C_R   0.124157 0.457062 0.180910 -0.096396
C30   C     C_R   0.875891 0.542929 0.819081 -0.096426
C31   C     C_R   0.163782 0.478332 0.061395 -0.122541
C32   C     C_R   0.836173 0.521689 0.938562 -0.122524
C33   C     C_R   0.184672 0.595572 0.027690 -0.158242
C34   C     C_R   0.128247 0.493367 0.495667 0.006606
C35   C     C_R   0.815138 0.404472 0.972228 -0.158234
C36   C     C_R   0.928061 0.539425 0.394674 0.058350
C37   C     C_R   0.071948 0.460527 0.605312 0.058390
C38   C     C_2   0.480212 0.872262 0.262258 0.619189
C39   C     C_2   0.519634 0.127738 0.737746 0.619217
C40   C     C_R   0.944633 0.470717 0.610742 -0.061794
C41   C     C_R   0.055379 0.529245 0.389247 -0.061795
C42   C     C_R   0.453604 0.217669 0.078259 -0.059671
C43   C     C_R   0.546217 0.782338 0.921746 -0.059658
C44   C     C_R   0.427579 0.160847 0.188100 -0.036501
Cu1   Cu    Cu3+1 0.500000 0.500000 0.625300 1.029118
Cu2   Cu    Cu3+1 0.500000 0.500000 0.374700 1.029070
H1    H     H_    0.213558 0.611820 0.934207 0.112073
H2    H     H_    0.895793 0.633600 0.794935 0.102587
H3    H     H_    0.176701 0.403999 0.994753 0.116847
H4    H     H_    0.823287 0.596026 0.005204 0.116859
H5    H     H_    0.595177 0.273422 0.963860 0.178777
H6    H     H_    0.404622 0.726583 0.036119 0.178806
H7    H     H_    0.379855 0.257754 0.019584 0.145245
H8    H     H_    0.619961 0.742251 0.980433 0.145276
H9    H     H_    0.333677 0.155683 0.213712 0.114022
H10   H     H_    0.666179 0.844345 0.786336 0.114058
H11   H     H_    0.659367 0.821128 0.258957 0.297342
H12   H     H_    0.786191 0.388246 0.065687 0.112088
H13   H     H_    0.340489 0.178944 0.740956 0.297327
H14   H     H_    0.039413 0.778534 0.358677 0.214164
H15   H     H_    0.187969 0.748658 0.402239 0.238778
H16   H     H_    0.960608 0.221198 0.641671 0.214139
H17   H     H_    0.812272 0.251520 0.597486 0.238611
H18   H     H_    0.879557 0.671143 0.268446 0.220066
H19   H     H_    0.871620 0.527497 0.210867 0.231444
H20   H     H_    0.120447 0.328779 0.731518 0.219967
H21   H     H_    0.128375 0.472425 0.789131 0.231424
H22   H     H_    0.719416 0.084692 0.294727 0.096409
H23   H     H_    0.280433 0.915271 0.705194 0.096382
H24   H     H_    0.764677 0.181597 0.101359 0.090778
H25   H     H_    0.235130 0.818393 0.898567 0.090759
H26   H     H_    0.185624 0.782051 0.090077 0.158851
H27   H     H_    0.814044 0.218006 0.909813 0.158912
H28   H     H_    0.104347 0.366373 0.205081 0.102585
N1    N     N_1   0.500010 0.499990 0.186410 -0.173807
N2    N     N_1   0.499990 0.500010 0.813590 -0.173800
N3    N     N_3   0.127721 0.769199 0.325777 -0.612434
N4    N     N_3   0.872175 0.230799 0.674191 -0.612348
N5    N     N_3   0.855151 0.584515 0.288351 -0.591879
N6    N     N_3   0.144857 0.415421 0.711631 -0.591834
O1    O     O_R   0.499990 0.319650 0.605810 -0.466064
O2    O     O_R   0.580844 0.814623 0.205802 -0.688125
O3    O     O_2   0.620008 0.125318 0.791929 -0.511418
O4    O     O_R   0.418994 0.185422 0.794150 -0.688122
O5    O     O_R   0.500010 0.680350 0.394190 -0.466099
O6    O     O_R   0.499990 0.319640 0.394190 -0.508313
O7    O     O_R   0.500010 0.680360 0.605810 -0.508307
O8    O     O_R   0.319640 0.500010 0.605810 -0.460670
O9    O     O_R   0.680360 0.499990 0.394190 -0.460663
O10   O     O_R   0.319650 0.500010 0.394190 -0.508509
O11   O     O_R   0.680350 0.499990 0.605810 -0.508456
O12   O     O_2   0.379813 0.874626 0.208134 -0.511414

loop_
_geom_bond_atom_site_label_1
_geom_bond_atom_site_label_2
_ccdc_geom_bond_type
C6    H23   S    
C16   O10   A    
H19   N5    S    
C27   C29   A    
C34   C37   A    
C14   C18   A    
C9    H5    S    
C10   H6    S    
C7    H24   S    
Cu2   O9    S    
Cu1   Cu2   S    
C15   C19   A    
C21   N2    T    
C11   C19   A    
C9    C42   A    
C26   N4    S    
C13   C18   A    
C35   H12   S    
C25   N3    S    
C30   H2    S    
Cu1   O7    S    
C24   C26   A    
C39   O4    S    
C37   C40   A    
C42   H7    S    
C11   C14   A    
C24   H27   S    
C28   C40   S    
C1    O1    A    
C23   C40   A    
C38   O12   D    
C16   C34   S    
H15   N3    S    
C22   C25   A    
C17   O11   A    
C31   C33   A    
C3    C19   S    
C1    C15   S    
Cu2   O5    S    
C4    C18   S    
C38   O2    S    
C36   C41   A    
C34   C41   A    
C42   C44   A    
C31   H3    S    
C5    H22   S    
C22   H26   S    
Cu2   N1    S    
H14   N3    S    
C37   N6    S    
C3    C44   A    
C24   C35   A    
C32   C35   A    
Cu1   O8    S    
C17   O9    A    
H13   O4    S    
C4    C6    A    
C5    C7    A    
C6    C8    A    
C29   H28   S    
C20   N1    T    
C11   C38   S    
C2    C4    A    
C27   C41   S    
C43   H8    S    
C2    C43   A    
C17   C23   S    
C32   H4    S    
C12   O5    A    
C12   C14   S    
C13   C15   A    
C33   H1    S    
H18   N5    S    
C1    O6    A    
C7    C9    A    
C22   C33   A    
C8    H25   S    
C12   O7    A    
C10   C43   A    
H16   N4    S    
Cu1   O1    S    
H21   N6    S    
C3    C5    A    
C36   N5    S    
Cu2   O10   S    
C25   C27   A    
H20   N6    S    
C26   C28   A    
C28   C30   A    
C39   O3    D    
C29   C31   A    
C2    H10   S    
C30   C32   A    
C44   H9    S    
Cu1   N2    S    
Cu1   O11   S    
C13   C39   S    
C20   C21   S    
C8    C10   A    
C23   C36   A    
C16   O8    A    
H11   O2    S    
Cu2   O6    S    
H17   N4    S    
