data_mof_unit_22374.cif
_audit_creation_date              2012-10-26T19:46:53-0400
_audit_creation_method            fapswitch 2.2
_symmetry_space_group_name_H-M    P1
_symmetry_Int_Tables_number       1
_space_group_crystal_system       triclinic
_cell_length_a                    10.775334
_cell_length_b                    9.784441
_cell_length_c                    16.027562
_cell_angle_alpha                 90.006136
_cell_angle_beta                  92.464089
_cell_angle_gamma                 89.321365
_cell_volume                      1688.11479331

loop_
_atom_site_label
_atom_site_type_symbol
_atom_type_description
_atom_site_fract_x
_atom_site_fract_y
_atom_site_fract_z
_atom_type_partial_charge
C1    C     C_R   0.870689 0.497579 0.499626 0.022490
C2    C     C_R   0.518098 0.385048 0.958500 0.204495
C3    C     C_R   0.511119 0.508118 0.913084 -0.051529
C4    C     C_R   0.488834 0.508358 0.086901 -0.051314
C5    C     C_1   0.511160 0.503780 0.822960 0.121768
C6    C     C_1   0.488823 0.503963 0.177028 0.122062
C7    C     C_1   0.492379 0.501220 0.252287 0.047620
C8    C     C_1   0.507650 0.501091 0.747704 0.047210
C9    C     C_R   0.430387 0.073188 0.442360 0.110398
C10   C     C_R   0.588217 0.927485 0.545702 0.129286
C11   C     C_R   0.570151 0.071253 0.557415 0.107996
C12   C     C_R   0.128160 0.499566 0.499645 0.024978
C13   C     C_R   0.412880 0.929933 0.453810 0.129512
C14   C     C_R   0.067917 0.392802 0.539180 -0.120777
C15   C     C_R   0.930646 0.602506 0.458962 -0.127890
C16   C     C_R   0.939151 0.391595 0.538988 -0.128378
C17   C     C_R   0.058726 0.602847 0.458530 -0.137139
C18   C     C_3   0.393061 0.131980 0.357875 -0.238619
C19   C     C_3   0.507751 0.131772 0.304515 -0.341280
C20   C     C_3   0.714854 0.871269 0.576052 -0.234263
C21   C     C_3   0.714496 0.792011 0.658592 -0.357799
C22   C     C_3   0.606714 0.128647 0.642126 -0.240610
C23   C     C_R   0.262748 0.500324 0.499652 0.539926
C24   C     C_3   0.491451 0.131550 0.694948 -0.339246
C25   C     C_3   0.287474 0.876661 0.423586 -0.245650
C26   C     C_3   0.289071 0.799416 0.340264 -0.370509
C27   C     C_R   0.736865 0.499167 0.500231 0.538750
C28   C     C_R   0.497924 0.500141 0.341741 0.534409
C29   C     C_R   0.502149 0.500106 0.658256 0.533619
C30   C     C_R   0.495470 0.633587 0.955624 0.204863
C31   C     C_R   0.481464 0.385550 0.041403 0.204398
C32   C     C_R   0.504793 0.633410 0.044432 0.205219
Cu1   Cu    Cu3+1 0.500000 0.640660 0.500000 0.943175
Cu2   Cu    Cu3+1 0.500000 0.359340 0.500000 0.911153
H1    H     H_    0.120302 0.311479 0.570840 0.131847
H2    H     H_    0.722642 0.680603 0.648081 0.175136
H3    H     H_    0.796209 0.821130 0.699074 0.142593
H4    H     H_    0.629683 0.815177 0.693250 0.191827
H5    H     H_    0.763829 0.819489 0.526132 0.166508
H6    H     H_    0.780244 0.957437 0.585884 0.086991
H7    H     H_    0.481046 0.031516 0.726422 0.169711
H8    H     H_    0.404734 0.152949 0.656831 0.164272
H9    H     H_    0.500420 0.212926 0.742153 0.218731
H10   H     H_    0.676418 0.066080 0.678009 0.115422
H11   H     H_    0.654726 0.226987 0.636305 0.189098
H12   H     H_    0.878457 0.682627 0.426009 0.129074
H13   H     H_    0.372728 0.824058 0.305273 0.195066
H14   H     H_    0.284668 0.687744 0.349720 0.172622
H15   H     H_    0.205975 0.828673 0.300533 0.139996
H16   H     H_    0.241995 0.824941 0.474430 0.169613
H17   H     H_    0.220664 0.963502 0.414766 0.091404
H18   H     H_    0.640176 0.836102 0.217766 0.358547
H19   H     H_    0.722361 0.188158 0.824805 0.368371
H20   H     H_    0.359639 0.840230 0.782677 0.359639
H21   H     H_    0.276578 0.194739 0.175045 0.369216
H22   H     H_    0.893285 0.309608 0.570532 0.119727
H23   H     H_    0.101930 0.681752 0.423948 0.111746
H24   H     H_    0.517712 0.031534 0.272885 0.169447
H25   H     H_    0.594831 0.150661 0.342295 0.168012
H26   H     H_    0.498453 0.213501 0.257422 0.218851
H27   H     H_    0.322729 0.071743 0.322235 0.117282
H28   H     H_    0.345193 0.231558 0.363992 0.196021
N1    N     N_R   0.500000 0.852070 0.500000 -0.220894
N2    N     N_R   0.500000 0.147930 0.500000 -0.235620
O1    O     O_R   0.319640 0.618740 0.499990 -0.512322
O2    O     O_2   0.420150 0.849838 0.128369 -0.246787
O3    O     O_3   0.628713 0.747748 0.188464 -0.553649
O4    O     O_2   0.666900 0.166493 0.985086 -0.161080
O5    O     O_2   0.489241 0.139638 0.886576 -0.208069
O6    O     O_3   0.680968 0.275380 0.839314 -0.578782
O7    O     O_2   0.391374 0.886880 0.949351 -0.117571
O8    O     O_2   0.580297 0.847735 0.871685 -0.246678
O9    O     O_3   0.371507 0.751426 0.811743 -0.551565
O10   O     O_2   0.331635 0.171803 0.014556 -0.162127
O11   O     O_2   0.509143 0.139070 0.113031 -0.207053
O12   O     O_R   0.680360 0.381260 0.500010 -0.504826
O13   O     O_3   0.318060 0.280780 0.160448 -0.577159
O14   O     O_R   0.680360 0.618740 0.500010 -0.519047
O15   O     O_R   0.319640 0.381260 0.499990 -0.509719
O16   O     O_R   0.499970 0.618750 0.380310 -0.485898
O17   O     O_R   0.500030 0.381250 0.619690 -0.519724
O18   O     O_R   0.500030 0.618750 0.619690 -0.483554
O19   O     O_R   0.499970 0.381250 0.380310 -0.517474
O20   O     O_2   0.609277 0.883786 0.050884 -0.117846
S1    S     S_3+6 0.539587 0.784849 0.102506 0.087848
S2    S     S_3+6 0.588411 0.235768 0.917463 0.078080
S3    S     S_3+6 0.460835 0.786038 0.897638 0.088274
S4    S     S_3+6 0.410440 0.238421 0.082262 0.078149

loop_
_geom_bond_atom_site_label_1
_geom_bond_atom_site_label_2
_ccdc_geom_bond_type
C9    N2    A    
O4    S2    D    
C10   N1    A    
C27   O14   A    
O2    S1    D    
C16   H22   S    
Cu1   O1    S    
C21   H2    S    
C12   C23   S    
C8    C29   S    
C20   H6    S    
Cu1   O14   S    
C24   H8    S    
C18   C19   S    
C9    C13   A    
C25   H16   S    
O9    S3    S    
C22   H10   S    
C21   H4    S    
O13   S4    S    
C10   C20   S    
C12   C17   A    
C1    C15   A    
Cu2   O17   S    
Cu1   O18   S    
C26   H14   S    
C28   O19   A    
C24   H7    S    
C13   C25   S    
H19   O6    S    
C19   H24   S    
O3    S1    S    
O20   S1    D    
C4    C6    S    
C11   N2    A    
C26   H15   S    
C14   H1    S    
C20   H5    S    
C18   H28   S    
C19   H25   S    
C25   C26   S    
C7    C28   S    
C2    C31   A    
C3    C30   A    
C25   H17   S    
C29   O17   A    
Cu2   O15   S    
H20   O9    S    
C9    C18   S    
C13   N1    A    
Cu1   N1    S    
Cu2   N2    S    
Cu1   Cu2   S    
C18   H27   S    
C1    C16   A    
C4    C32   A    
H18   O3    S    
C26   H13   S    
O7    S3    D    
C12   C14   A    
C14   C16   A    
Cu2   O19   S    
C27   O12   A    
O6    S2    S    
O8    S3    D    
C15   C17   A    
C31   S4    S    
C3    C5    S    
C5    C8    T    
Cu1   O16   S    
C6    C7    T    
C19   H26   S    
C11   C22   S    
O10   S4    D    
C23   O1    A    
C2    C3    A    
C29   O18   A    
C30   C32   A    
H21   O13   S    
C32   S1    S    
C2    S2    S    
C22   C24   S    
C28   O16   A    
C4    C31   A    
C10   C11   A    
O11   S4    D    
C22   H11   S    
C21   H3    S    
C20   C21   S    
Cu2   O12   S    
C1    C27   S    
C24   H9    S    
C15   H12   S    
C23   O15   A    
C30   S3    S    
O5    S2    D    
C17   H23   S    
