data_mof_unit_30042.cif
_audit_creation_date              2012-12-10T19:43:26-0500
_audit_creation_method            fapswitch 2.2
_symmetry_space_group_name_H-M    P1
_symmetry_Int_Tables_number       1
_space_group_crystal_system       triclinic
_cell_length_a                    10.858876
_cell_length_b                    10.873877
_cell_length_c                    9.564795
_cell_angle_alpha                 89.800261
_cell_angle_beta                  91.473204
_cell_angle_gamma                 92.088865
_cell_volume                      1128.26542629

loop_
_atom_site_label
_atom_site_type_symbol
_atom_type_description
_atom_site_fract_x
_atom_site_fract_y
_atom_site_fract_z
_atom_type_partial_charge
C1    C     C_R   0.507511 0.262521 0.501735 0.797503
C2    C     C_R   0.139409 0.688882 0.979225 0.308425
C3    C     C_R   0.931514 0.545602 0.389082 -0.238682
C4    C     C_R   0.871479 0.496482 0.505115 -0.074205
C5    C     C_R   0.940773 0.447312 0.617629 0.008325
C6    C     C_R   0.068376 0.449424 0.610654 -0.186748
C7    C     C_R   0.128438 0.499518 0.494728 -0.064527
C8    C     C_R   0.058882 0.547082 0.381552 0.014772
C9    C     C_R   0.873946 0.457769 0.864362 -0.111625
C10   C     C_R   0.835330 0.400210 0.987446 -0.134780
C11   C     C_R   0.811179 0.273145 0.989855 -0.129399
C12   C     C_R   0.262356 0.501097 0.497979 0.818360
C13   C     C_R   0.826097 0.203521 0.869246 -0.153944
C14   C     C_R   0.862203 0.261248 0.745145 -0.161738
C15   C     C_R   0.885991 0.388903 0.742097 0.119279
C16   C     C_R   0.540726 0.116565 0.769536 -0.174187
C17   C     C_R   0.514399 0.055167 0.893725 -0.179891
C18   C     C_R   0.458585 0.938765 0.889356 -0.119974
C19   C     C_R   0.439880 0.879593 0.761474 -0.107460
C20   C     C_R   0.477579 0.935905 0.634456 0.091611
C21   C     C_R   0.511583 0.062212 0.637202 0.096986
C22   C     C_R   0.514146 0.128148 0.507854 -0.115632
C23   C     C_R   0.491632 0.737271 0.500682 0.794272
C24   C     C_R   0.508175 0.063785 0.381242 -0.217824
C25   C     C_R   0.498012 0.936878 0.380339 -0.214462
C26   C     C_R   0.483767 0.871385 0.505363 -0.103298
C27   C     C_R   0.658661 0.668232 0.147601 -0.181760
C28   C     C_R   0.735256 0.750758 0.076802 -0.229279
C29   C     C_R   0.735536 0.750076 0.932891 -0.197501
C30   C     C_R   0.659528 0.666531 0.859075 -0.153429
C31   C     C_R   0.577704 0.582695 0.926824 0.209315
C32   C     C_R   0.577432 0.583076 0.076579 0.212588
C33   C     C_R   0.427238 0.420343 0.072172 -0.060906
C34   C     C_R   0.737565 0.497172 0.502023 0.777535
C35   C     C_R   0.427056 0.420560 0.924066 -0.069152
C36   C     C_R   0.123721 0.770031 0.089920 -0.182756
C37   C     C_R   0.109403 0.724486 0.225668 -0.207238
C38   C     C_R   0.110949 0.597324 0.251346 0.141993
C39   C     C_R   0.132534 0.517004 0.140875 -0.169899
C40   C     C_R   0.147843 0.562924 0.005597 -0.174644
Cu1   Cu    Cu3+1 0.499990 0.499990 0.640660 0.938798
Cu2   Cu    Cu3+1 0.500010 0.500010 0.359340 0.934172
H1    H     H_    0.782071 0.228493 0.085413 0.129128
H2    H     H_    0.808985 0.104841 0.871699 0.143953
H3    H     H_    0.874478 0.206339 0.652613 0.127666
H4    H     H_    0.512458 0.111550 0.281783 0.158046
H5    H     H_    0.588326 0.204508 0.781055 0.189337
H6    H     H_    0.535319 0.099158 0.993360 0.132829
H7    H     H_    0.432351 0.892833 0.985324 0.145375
H8    H     H_    0.392851 0.790950 0.765094 0.206742
H9    H     H_    0.500797 0.890040 0.280713 0.167279
H10   H     H_    0.367506 0.355234 0.126156 0.131981
H11   H     H_    0.116526 0.867568 0.069882 0.158909
H12   H     H_    0.669089 0.674652 0.257785 0.203071
H13   H     H_    0.796254 0.814494 0.134424 0.156214
H14   H     H_    0.796887 0.813090 0.877807 0.171132
H15   H     H_    0.671266 0.670109 0.749466 0.205008
H16   H     H_    0.367084 0.355663 0.867075 0.138772
H17   H     H_    0.089213 0.787302 0.308983 0.153897
H18   H     H_    0.130049 0.418428 0.157980 0.132133
H19   H     H_    0.159589 0.499809 0.920376 0.151832
H20   H     H_    0.878842 0.583550 0.302389 0.153219
H21   H     H_    0.121154 0.409324 0.695928 0.145848
H22   H     H_    0.896726 0.555460 0.864712 0.164530
H23   H     H_    0.826003 0.453788 0.081426 0.146699
N1    N     N_R   0.501190 0.501210 0.147910 -0.195025
N2    N     N_R   0.501230 0.501290 0.852040 -0.197931
O1    O     O_R   0.499990 0.319640 0.618810 -0.594939
O2    O     O_R   0.500000 0.319660 0.381240 -0.585547
O3    O     O_R   0.319640 0.500000 0.618780 -0.568617
O4    O     O_R   0.319650 0.500020 0.381210 -0.578379
O5    O     O_R   0.500000 0.680340 0.618760 -0.613966
O6    O     O_R   0.500010 0.680360 0.381190 -0.597189
O7    O     O_R   0.680350 0.499980 0.618790 -0.594184
O8    O     O_R   0.680360 0.500000 0.381220 -0.607995
Br1   Br    Br    0.134984 0.747933 0.791059 -0.628818

loop_
_geom_bond_atom_site_label_1
_geom_bond_atom_site_label_2
_ccdc_geom_bond_type
C16   C21   A    
C9    H22   S    
Cu1   Cu2   S    
C19   C20   A    
C17   H6    S    
C27   H12   S    
C7    C8    A    
Cu1   N2    S    
C33   H10   S    
C31   N2    A    
Cu2   O8    S    
C29   C30   A    
C35   H16   S    
C36   C37   A    
C5    C6    A    
C3    H20   S    
C30   H15   S    
C1    O1    A    
C18   C19   A    
C23   C26   S    
C36   H11   S    
Cu1   O7    S    
C16   C17   A    
C11   H1    S    
Cu1   O1    S    
C9    C10   A    
C34   O8    A    
C1    C22   S    
C21   C22   A    
C8    C38   S    
C23   O6    A    
C16   H5    S    
C28   H13   S    
C33   N1    A    
C14   H3    S    
C7    C12   S    
C4    C34   S    
C38   C39   A    
C24   C25   A    
C3    C8    A    
C39   C40   A    
C25   C26   A    
Cu2   O2    S    
C1    O2    A    
C40   H19   S    
C6    H21   S    
C25   H9    S    
C37   C38   A    
C31   C32   A    
C35   N2    A    
C17   C18   A    
C37   H17   S    
C34   O7    A    
Cu1   O5    S    
C12   O4    A    
C22   C24   A    
C3    C4    A    
C2    Br1   S    
C32   N1    A    
C10   H23   S    
C2    C36   A    
C12   O3    A    
C28   C29   A    
Cu2   O6    S    
C27   C32   A    
C23   O5    A    
C4    C5    A    
C6    C7    A    
C29   H14   S    
C24   H4    S    
C9    C15   A    
C11   C13   A    
C19   H8    S    
C30   C31   A    
C20   C26   A    
C39   H18   S    
Cu2   O4    S    
C33   C35   A    
C5    C15   S    
C10   C11   A    
C2    C40   A    
C20   C21   A    
C27   C28   A    
Cu2   N1    S    
C14   C15   A    
C13   C14   A    
C13   H2    S    
C18   H7    S    
Cu1   O3    S    
