data_mof_unit_52387.cif
_audit_creation_date              2012-12-10T20:38:20-0500
_audit_creation_method            fapswitch 2.2
_symmetry_space_group_name_H-M    P1
_symmetry_Int_Tables_number       1
_space_group_crystal_system       triclinic
_cell_length_a                    9.861542
_cell_length_b                    10.68388
_cell_length_c                    16.650965
_cell_angle_alpha                 90.054384
_cell_angle_beta                  85.032693
_cell_angle_gamma                 89.509344
_cell_volume                      1747.68244257

loop_
_atom_site_label
_atom_site_type_symbol
_atom_type_description
_atom_site_fract_x
_atom_site_fract_y
_atom_site_fract_z
_atom_type_partial_charge
C1    C     C_R   0.500088 0.740232 0.497201 0.878192
C2    C     C_R   0.344735 0.437379 0.779651 -0.205478
C3    C     C_R   0.435398 0.325647 0.160591 -0.160851
C4    C     C_R   0.423267 0.378226 0.236870 -0.209286
C5    C     C_R   0.652945 0.458853 0.215011 -0.174320
C6    C     C_R   0.664321 0.407517 0.137825 -0.185602
C7    C     C_R   0.553759 0.344702 0.109497 0.204817
C8    C     C_2   0.446629 0.358499 0.984966 -0.231833
C9    C     C_2   0.554503 0.321746 0.023047 -0.243477
C10   C     C_R   0.530600 0.447761 0.263867 -0.033807
C11   C     C_R   0.381996 0.937734 0.475741 0.141613
C12   C     C_R   0.480952 0.497629 0.653619 0.856202
C13   C     C_R   0.502601 0.871651 0.483053 -0.105732
C14   C     C_R   0.627611 0.934308 0.473307 -0.230374
C15   C     C_R   0.628264 0.063725 0.472919 -0.226760
C16   C     C_R   0.503954 0.128942 0.482103 -0.102175
C17   C     C_R   0.382783 0.065579 0.475130 0.130746
C18   C     C_3   0.249460 0.075554 0.524713 -0.471898
C19   C     C_3   0.248855 0.933873 0.525812 -0.504698
C20   C     C_R   0.918567 0.529723 0.568251 0.118350
C21   C     C_R   0.937429 0.452711 0.436065 0.555638
C22   C     C_R   0.082408 0.456389 0.435630 -0.259552
C23   C     C_R   0.501017 0.259987 0.496766 0.878282
C24   C     C_R   0.060851 0.528397 0.568553 0.194116
C25   C     C_3   0.059021 0.647498 0.615128 -0.496571
C26   C     C_3   0.905143 0.649600 0.613998 -0.480741
C27   C     C_R   0.519015 0.492405 0.346781 0.855112
C28   C     C_R   0.469452 0.474243 0.740088 -0.036835
C29   C     C_R   0.586865 0.474664 0.781711 -0.210969
C30   C     C_R   0.580988 0.434937 0.861008 -0.148750
C31   C     C_R   0.457538 0.392719 0.899662 0.207382
C32   C     C_R   0.338973 0.397067 0.859216 -0.182025
H1    H     H_    0.683955 0.503782 0.752708 0.147715
H2    H     H_    0.756290 0.422875 0.098712 0.125690
H3    H     H_    0.724014 0.884686 0.472296 0.168245
H4    H     H_    0.724819 0.111419 0.471990 0.167961
H5    H     H_    0.258458 0.117826 0.585080 0.207425
H6    H     H_    0.168472 0.116872 0.490217 0.197463
H7    H     H_    0.258395 0.894458 0.586880 0.202415
H8    H     H_    0.166957 0.893696 0.492102 0.201974
H9    H     H_    0.145919 0.426027 0.383028 0.162297
H10   H     H_    0.093409 0.633775 0.676370 0.195844
H11   H     H_    0.330176 0.363128 0.274944 0.145522
H12   H     H_    0.109613 0.724152 0.579928 0.211146
H13   H     H_    0.850841 0.637782 0.674741 0.195209
H14   H     H_    0.866848 0.727706 0.577816 0.209168
H15   H     H_    0.738253 0.508983 0.235865 0.180688
H16   H     H_    0.651383 0.300503 0.989621 0.145726
H17   H     H_    0.242238 0.368329 0.889063 0.124167
H18   H     H_    0.350331 0.274433 0.140338 0.127736
H19   H     H_    0.252657 0.436166 0.748595 0.151848
H20   H     H_    0.350292 0.380372 0.019011 0.150244
H21   H     H_    0.672868 0.440023 0.891867 0.122025
N1    N     N_R   0.857140 0.500860 0.500530 -0.148161
N2    N     N_R   0.142780 0.500820 0.500530 -0.123039
O1    O     O_R   0.385310 0.683210 0.499990 -0.608898
O2    O     O_R   0.614650 0.683240 0.500000 -0.625066
O3    O     O_R   0.371780 0.500000 0.615800 -0.616319
O4    O     O_R   0.601120 0.500040 0.615800 -0.614936
O5    O     O_R   0.385350 0.316760 0.500000 -0.619815
O6    O     O_R   0.614690 0.316790 0.500010 -0.606500
O7    O     O_R   0.398880 0.499960 0.384200 -0.628279
O8    O     O_R   0.628220 0.500000 0.384200 -0.552485
Zn1   Zn    Zn3+2 0.346870 0.499980 0.499990 0.938458
Zn2   Zn    Zn3+2 0.653130 0.500020 0.500010 0.981346
O9    O     O_3   0.875943 0.410130 0.369750 -0.581614
C33   C     C_3   0.919918 0.287096 0.349647 -0.349656
H22   H     H_    0.844686 0.244157 0.312377 0.202862
H23   H     H_    0.926163 0.226700 0.403782 0.140350
H24   H     H_    0.019248 0.288144 0.312737 0.152526

loop_
_geom_bond_atom_site_label_1
_geom_bond_atom_site_label_2
_ccdc_geom_bond_type
C10   C27   S    
C25   H10   S    
O7    Zn1   S    
O1    Zn1   S    
C22   N2    A    
C4    H11   S    
O6    Zn2   S    
C21   O9    S    
C1    O2    A    
C11   C13   A    
C8    H20   S    
C31   C32   A    
C6    C7    A    
C21   N1    A    
O5    Zn1   S    
C33   H24   S    
C12   O3    A    
N2    Zn1   S    
O8    Zn2   S    
C17   C18   S    
C18   H6    S    
C5    C10   A    
N1    Zn2   S    
C21   C22   A    
O4    Zn2   S    
C24   N2    A    
C5    H15   S    
C30   C31   A    
C11   C19   S    
C29   C30   A    
C20   C26   S    
C12   C28   S    
C5    C6    A    
C19   H7    S    
C25   H12   S    
C2    C32   A    
C28   C29   A    
C27   O7    A    
C18   H5    S    
O9    C33   S    
C16   C23   S    
C3    C7    A    
C12   O4    A    
O3    Zn1   S    
C23   O5    A    
C30   H21   S    
C1    O1    A    
C32   H17   S    
C22   H9    S    
C1    C13   S    
C15   C16   A    
C26   H14   S    
C4    C10   A    
C33   H22   S    
C29   H1    S    
C15   H4    S    
C23   O6    A    
C24   C25   S    
C9    H16   S    
C20   N1    A    
C18   C19   S    
C19   H8    S    
C14   H3    S    
C7    C9    S    
C20   C24   A    
C14   C15   A    
C27   O8    A    
C2    C28   A    
C26   H13   S    
C25   C26   S    
C13   C14   A    
C8    C31   S    
C3    H18   S    
C11   C17   A    
C3    C4    A    
C6    H2    S    
C16   C17   A    
O2    Zn2   S    
C8    C9    D    
C33   H23   S    
C2    H19   S    
