data_mof_unit_66400.cif
_audit_creation_date              2012-10-26T18:36:08-0400
_audit_creation_method            fapswitch 2.2
_symmetry_space_group_name_H-M    P1
_symmetry_Int_Tables_number       1
_space_group_crystal_system       triclinic
_cell_length_a                    10.748316
_cell_length_b                    12.749306
_cell_length_c                    13.900135
_cell_angle_alpha                 97.930729
_cell_angle_beta                  90.236253
_cell_angle_gamma                 93.207453
_cell_volume                      1883.47659245

loop_
_atom_site_label
_atom_site_type_symbol
_atom_type_description
_atom_site_fract_x
_atom_site_fract_y
_atom_site_fract_z
_atom_type_partial_charge
C1    C     C_R   0.498845 0.483577 0.315828 0.561650
C2    C     C_1   0.498461 0.474188 0.212495 -0.012534
C3    C     C_2   0.464386 0.028171 0.473634 -0.164032
C4    C     C_R   0.259510 0.500544 0.502076 0.535508
C5    C     C_2   0.535663 0.971827 0.526396 -0.164387
C6    C     C_1   0.525595 0.854633 0.519114 0.133576
C7    C     C_1   0.474435 0.145367 0.480904 0.134114
C8    C     C_R   0.501422 0.516426 0.684178 0.538115
C9    C     C_R   0.740449 0.500319 0.504373 0.574450
C10   C     C_3   0.068628 0.460817 0.401043 -0.238061
C11   C     C_3   0.924692 0.464784 0.401038 -0.044254
C12   C     C_3   0.878474 0.501687 0.506150 0.105726
C13   C     C_3   0.068002 0.428638 0.576524 -0.236522
C14   C     C_3   0.080352 0.615587 0.535012 -0.188826
C15   C     C_3   0.121939 0.501341 0.503808 0.018278
C16   C     C_3   0.924203 0.423069 0.572858 -0.241892
C17   C     C_3   0.937590 0.615374 0.545551 -0.014826
C18   C     C_1   0.502366 0.525832 0.787513 -0.018416
C19   C     C_2   0.504020 0.543574 0.978404 -0.120485
C20   C     C_2   0.497640 0.456471 0.021610 -0.122319
C21   C     C_1   0.498090 0.465633 0.125434 -0.050672
C22   C     C_1   0.503193 0.534406 0.874578 -0.050219
Cu1   Cu    Cu3+1 0.491980 0.395330 0.493960 0.974441
Cu2   Cu    Cu3+1 0.508020 0.604670 0.506040 0.976151
H1    H     H_    0.094156 0.377631 0.378524 0.117270
H2    H     H_    0.100656 0.346973 0.558926 0.133626
H3    H     H_    0.889491 0.340615 0.544638 0.113943
H4    H     H_    0.127853 0.650161 0.604499 0.150821
H5    H     H_    0.109721 0.667145 0.479721 0.104193
H6    H     H_    0.902652 0.675190 0.502269 0.148864
H7    H     H_    0.943113 0.724959 0.668976 0.223032
H8    H     H_    0.810304 0.650857 0.655253 0.250176
H9    H     H_    0.899684 0.496216 0.261475 0.229491
H10   H     H_    0.932413 0.605587 0.341552 0.227598
H11   H     H_    0.101225 0.460018 0.651476 0.133859
H12   H     H_    0.887144 0.441470 0.647527 0.148594
H13   H     H_    0.491890 0.377986 0.979321 0.135401
H14   H     H_    0.509723 0.622061 0.020691 0.137026
H15   H     H_    0.604337 0.014183 0.577069 0.123417
H16   H     H_    0.395715 0.985807 0.422963 0.124136
H17   H     H_    0.111147 0.508989 0.347401 0.118081
H18   H     H_    0.884348 0.382740 0.377285 0.148130
N1    N     N_1   0.479930 0.238040 0.484880 -0.190851
N2    N     N_1   0.520070 0.761960 0.515120 -0.192129
N3    N     N_3   0.906668 0.647293 0.648039 -0.655799
N4    N     N_3   0.881541 0.532515 0.331784 -0.635973
O1    O     O_R   0.492240 0.399110 0.356330 -0.488666
O2    O     O_R   0.505790 0.575900 0.366540 -0.481738
O3    O     O_R   0.310920 0.411610 0.494880 -0.502371
O4    O     O_R   0.324460 0.588390 0.505090 -0.506834
O5    O     O_R   0.494210 0.424100 0.633460 -0.493467
O6    O     O_R   0.507760 0.600890 0.643670 -0.498512
O7    O     O_R   0.675540 0.411610 0.494910 -0.508922
O8    O     O_R   0.689080 0.588390 0.505120 -0.496958

loop_
_geom_bond_atom_site_label_1
_geom_bond_atom_site_label_2
_ccdc_geom_bond_type
C12   C17   S    
Cu2   O6    S    
Cu1   Cu2   S    
C1    O2    A    
C13   H11   S    
H10   N4    S    
C19   H14   S    
C7    N1    T    
H8    N3    S    
C8    O6    A    
Cu1   O5    S    
C19   C20   D    
C8    O5    A    
C4    O3    A    
C11   C12   S    
C16   H3    S    
C5    H15   S    
Cu1   N1    S    
C6    N2    T    
C16   H12   S    
C10   H17   S    
C20   H13   S    
C14   C17   S    
C17   H6    S    
C2    C21   T    
C10   H1    S    
C17   N3    S    
C3    H16   S    
Cu1   O7    S    
C3    C7    S    
C10   C15   S    
C13   C15   S    
C4    C15   S    
Cu2   O4    S    
C5    C6    S    
Cu2   N2    S    
C9    C12   S    
C13   H2    S    
Cu1   O3    S    
C9    O7    A    
C10   C11   S    
C14   H5    S    
Cu2   O8    S    
Cu2   O2    S    
C19   C22   S    
Cu1   O1    S    
C20   C21   S    
C11   H18   S    
C1    C2    S    
H7    N3    S    
C13   C16   S    
C4    O4    A    
C14   C15   S    
C1    O1    A    
C11   N4    S    
C9    O8    A    
C14   H4    S    
C18   C22   T    
C8    C18   S    
C12   C16   S    
H9    N4    S    
C3    C5    D    
