data_mof_unit_17679.cif
_audit_creation_date              2012-12-10T16:49:25-0500
_audit_creation_method            fapswitch 2.2
_symmetry_space_group_name_H-M    P1
_symmetry_Int_Tables_number       1
_space_group_crystal_system       triclinic
_cell_length_a                    7.746288
_cell_length_b                    8.60586
_cell_length_c                    12.873367
_cell_angle_alpha                 89.92999
_cell_angle_beta                  87.957132
_cell_angle_gamma                 93.19332
_cell_volume                      856.301776426

loop_
_atom_site_label
_atom_site_type_symbol
_atom_type_description
_atom_site_fract_x
_atom_site_fract_y
_atom_site_fract_z
_atom_type_partial_charge
C1    C     C_R   0.455701 0.205502 0.497456 0.948045
C2    C     C_R   0.711496 0.460436 0.140113 -0.185467
C3    C     C_R   0.588907 0.471780 0.868799 -0.231343
C4    C     C_R   0.411093 0.528220 0.131200 -0.231342
C5    C     C_R   0.578617 0.480692 0.975250 0.175002
C6    C     C_R   0.421382 0.519308 0.024750 0.175002
C7    C     C_2   0.441007 0.044937 0.479395 0.089637
C8    C     C_2   0.558993 0.955063 0.520605 0.089637
C9    C     C_R   0.544299 0.794498 0.502544 0.948046
C10   C     C_R   0.465709 0.501831 0.699857 0.895840
C11   C     C_R   0.534291 0.498169 0.300143 0.895840
C12   C     C_R   0.554628 0.496843 0.188965 -0.044173
C13   C     C_R   0.445372 0.503156 0.811035 -0.044173
C14   C     C_R   0.276522 0.547666 0.967225 -0.200448
C15   C     C_R   0.723478 0.452334 0.032775 -0.200447
C16   C     C_R   0.288504 0.539564 0.859887 -0.185467
Cl1   Cl    Cl    0.293316 0.985356 0.382255 -0.584990
Cl2   Cl    Cl    0.706683 0.014644 0.617745 -0.584990
H1    H     H_    0.289870 0.558220 0.168778 0.171533
H2    H     H_    0.710130 0.441780 0.831222 0.171533
H3    H     H_    0.823134 0.436303 0.184573 0.170552
H4    H     H_    0.176866 0.563697 0.815427 0.170552
H5    H     H_    0.155371 0.576906 0.005057 0.144864
H6    H     H_    0.844628 0.423094 0.994943 0.144864
H7    H     H_    0.998181 0.615724 0.421856 0.214665
H8    H     H_    0.001819 0.384276 0.578144 0.214665
N1    N     N_2   0.054030 0.541640 0.471970 -0.155274
N2    N     N_2   0.945970 0.458360 0.528030 -0.155274
O1    O     O_R   0.609680 0.261530 0.506880 -0.581648
O2    O     O_R   0.390320 0.738470 0.493120 -0.581648
O3    O     O_R   0.323330 0.288220 0.488910 -0.593898
O4    O     O_R   0.676670 0.711780 0.511090 -0.593898
O5    O     O_R   0.619510 0.488830 0.661140 -0.611069
O6    O     O_R   0.380490 0.511170 0.338860 -0.611069
O7    O     O_R   0.333160 0.515520 0.643180 -0.642353
O8    O     O_R   0.666840 0.484480 0.356820 -0.642354
Zn1   Zn    Zn3+2 0.691200 0.482180 0.511990 1.020524
Zn2   Zn    Zn3+2 0.308800 0.517820 0.488010 1.020524

loop_
_geom_bond_atom_site_label_1
_geom_bond_atom_site_label_2
_ccdc_geom_bond_type
C14   H5    S    
C11   C12   S    
C10   O7    A    
C4    C12   A    
H8    N2    S    
C3    C13   A    
O3    Zn2   S    
C1    O3    A    
C2    C12   A    
C2    H3    S    
C1    O1    A    
C3    H2    S    
C15   H6    S    
O4    Zn1   S    
C2    C15   A    
N2    Zn1   S    
C9    O2    A    
C11   O8    A    
C10   O5    A    
C5    C6    A    
C14   C16   A    
C5    C15   A    
C6    C14   A    
C8    Cl2   S    
N1    Zn2   S    
C7    C8    D    
O7    Zn2   S    
O2    Zn2   S    
C4    C6    A    
C13   C16   A    
O1    Zn1   S    
N1    N2    D    
O8    Zn1   S    
C16   H4    S    
C9    O4    A    
C7    Cl1   S    
C1    C7    S    
C4    H1    S    
C10   C13   S    
C11   O6    A    
O5    Zn1   S    
C8    C9    S    
C3    C5    A    
H7    N1    S    
O6    Zn2   S    
