data_mof_unit_46315.cif
_audit_creation_date              2012-12-11T15:34:26-0500
_audit_creation_method            fapswitch 2.2
_symmetry_space_group_name_H-M    P1
_symmetry_Int_Tables_number       1
_space_group_crystal_system       triclinic
_cell_length_a                    15.035752
_cell_length_b                    15.048695
_cell_length_c                    34.873429
_cell_angle_alpha                 90.551808
_cell_angle_beta                  90.036613
_cell_angle_gamma                 60.043086
_cell_volume                      6836.16437316

loop_
_atom_site_label
_atom_site_type_symbol
_atom_type_description
_atom_site_fract_x
_atom_site_fract_y
_atom_site_fract_z
_atom_type_partial_charge
C1    C     C_R   0.303379 0.608054 0.556156 0.602569
C2    C     C_R   0.630583 0.664368 0.672611 -0.020115
C3    C     C_R   0.223782 0.683327 0.273435 0.154658
C4    C     C_R   0.141833 0.692807 0.296094 -0.013171
C5    C     C_R   0.051937 0.706710 0.279030 -0.149054
C6    C     C_R   0.044477 0.705083 0.239157 0.112112
C7    C     C_R   0.128006 0.690599 0.216175 0.044013
C8    C     C_R   0.195894 0.576530 0.352054 0.130625
C9    C     C_R   0.231908 0.557114 0.390184 0.228732
C10   C     C_R   0.176013 0.739284 0.398833 0.189465
C11   C     C_R   0.141673 0.757056 0.361154 -0.093724
C12   C     C_R   0.155076 0.676263 0.337438 -0.047594
C13   C     C_R   0.562351 0.740428 0.647927 -0.157089
C14   C     C_R   0.230740 0.637019 0.412441 0.013930
C15   C     C_R   0.735223 0.027547 0.943600 0.575978
C16   C     C_R   0.745040 0.722168 0.945234 0.541004
C17   C     C_R   0.039972 0.732784 0.948452 0.565813
C18   C     C_R   0.722767 0.039748 0.052654 0.548223
C19   C     C_R   0.732970 0.733522 0.054715 0.588921
C20   C     C_R   0.028773 0.744097 0.057800 0.549238
C21   C     C_R   0.562425 0.720393 0.608593 0.110451
C22   C     C_R   0.626314 0.698166 0.791202 0.371612
C23   C     C_R   0.618637 0.682161 0.714179 0.328231
C24   C     C_R   0.754307 0.627455 0.843644 0.094418
C25   C     C_R   0.781956 0.627741 0.882151 0.114971
C26   C     C_R   0.605273 0.759787 0.897198 0.202250
C27   C     C_R   0.578401 0.760312 0.858546 0.149443
C28   C     C_R   0.652887 0.695330 0.831784 0.005141
C29   C     C_R   0.610573 0.587909 0.555754 0.556540
C30   C     C_R   0.709329 0.699132 0.908620 -0.021257
C31   C     C_R   0.720608 0.082113 0.906692 0.073211
C32   C     C_R   0.629899 0.114469 0.884883 0.091004
C33   C     C_R   0.629328 0.137465 0.846120 -0.087988
C34   C     C_R   0.715613 0.132421 0.828980 0.041133
C35   C     C_R   0.800188 0.113220 0.851300 -0.091459
C36   C     C_R   0.803279 0.089261 0.890293 0.208056
C37   C     C_R   0.726992 0.222098 0.770544 0.140508
C38   C     C_R   0.720437 0.234555 0.730504 0.245346
C39   C     C_R   0.709450 0.162740 0.707134 -0.063439
C40   C     C_R   0.590860 0.299590 0.553596 0.574348
C41   C     C_R   0.707118 0.079911 0.723896 -0.177510
C42   C     C_R   0.711325 0.068607 0.763703 0.211020
C43   C     C_R   0.718695 0.141327 0.787077 0.047068
C44   C     C_R   0.593261 0.199669 0.652837 -0.153207
C45   C     C_R   0.561720 0.231288 0.615261 0.077274
C46   C     C_R   0.732645 0.206361 0.601221 0.256039
C47   C     C_R   0.763184 0.174274 0.639351 0.230266
C48   C     C_R   0.690142 0.177290 0.665587 -0.054172
C49   C     C_R   0.629904 0.240795 0.589762 0.024582
C50   C     C_R   0.097209 0.691499 0.911518 0.017069
C51   C     C_R   0.297044 0.611660 0.446808 0.557396
C52   C     C_R   0.120231 0.753666 0.887825 0.090756
C53   C     C_R   0.136338 0.730359 0.848450 -0.089545
C54   C     C_R   0.135315 0.645085 0.832833 0.004743
C55   C     C_R   0.128567 0.574139 0.857199 0.215862
C56   C     C_R   0.112291 0.596461 0.896925 0.255850
C57   C     C_R   0.233451 0.557797 0.773964 -0.147245
C58   C     C_R   0.247051 0.551617 0.733979 0.156324
C59   C     C_R   0.166435 0.624557 0.710915 0.067697
C60   C     C_R   0.071811 0.698258 0.727594 0.138426
C61   C     C_R   0.059438 0.701400 0.767902 0.256489
C62   C     C_R   0.609079 0.591370 0.445869 0.527952
C63   C     C_R   0.142139 0.633281 0.790733 -0.011625
C64   C     C_R   0.233793 0.689524 0.660154 0.217053
C65   C     C_R   0.262132 0.690448 0.621524 0.183763
C66   C     C_R   0.201362 0.571819 0.604235 0.178927
C67   C     C_R   0.168708 0.576132 0.642323 -0.196429
C68   C     C_R   0.186848 0.632556 0.670104 0.004004
C69   C     C_R   0.251708 0.626213 0.594016 0.071147
C70   C     C_R   0.692429 0.714808 0.091055 0.036876
C71   C     C_R   0.599412 0.791853 0.107445 0.204721
C72   C     C_R   0.576930 0.784968 0.146437 0.085175
C73   C     C_R   0.588480 0.301917 0.443806 0.553310
C74   C     C_R   0.644848 0.698363 0.167824 -0.012894
C75   C     C_R   0.730397 0.615912 0.150205 0.201967
C76   C     C_R   0.751795 0.622011 0.111124 0.187056
C77   C     C_R   0.602703 0.633308 0.227847 0.307626
C78   C     C_R   0.607026 0.625101 0.267989 0.164505
C79   C     C_R   0.640901 0.681904 0.290220 -0.032547
C80   C     C_R   0.669171 0.748082 0.272237 0.107918
C81   C     C_R   0.666125 0.753643 0.232126 -0.133632
C82   C     C_R   0.634024 0.697080 0.209915 0.008941
C83   C     C_R   0.562499 0.744972 0.355191 0.154725
C84   C     C_R   0.630082 0.620570 0.593859 0.018101
C85   C     C_R   0.556806 0.725711 0.394226 0.243470
C86   C     C_R   0.717004 0.564052 0.388119 -0.114178
C87   C     C_R   0.726608 0.584714 0.349954 0.206182
C88   C     C_R   0.644955 0.671830 0.332470 -0.032570
C89   C     C_R   0.629879 0.630128 0.409936 -0.075830
C90   C     C_R   0.701033 0.101622 0.088138 -0.005453
C91   C     C_R   0.784542 0.094701 0.108794 -0.088408
C92   C     C_R   0.772687 0.130844 0.146332 0.236881
C93   C     C_R   0.675906 0.170490 0.164466 -0.008325
C94   C     C_R   0.589864 0.190980 0.142329 -0.148389
C95   C     C_R   0.706606 0.547032 0.618389 0.135847
C96   C     C_R   0.601483 0.157961 0.104027 0.115397
C97   C     C_R   0.584047 0.260578 0.224869 -0.120596
C98   C     C_R   0.575320 0.263491 0.264677 -0.130928
C99   C     C_R   0.649517 0.182897 0.286587 0.069215
C100  C     C_R   0.730987 0.098087 0.268498 -0.080529
C101  C     C_R   0.738348 0.093870 0.228719 -0.120463
C102  C     C_R   0.666522 0.176354 0.206622 0.019380
C103  C     C_R   0.718072 0.213180 0.346389 0.217683
C104  C     C_R   0.706000 0.241670 0.385650 0.113312
C105  C     C_R   0.561212 0.211930 0.389320 -0.133316
C106  C     C_R   0.707460 0.569345 0.657498 0.238714
C107  C     C_R   0.569792 0.186983 0.350146 0.095406
C108  C     C_R   0.646376 0.192312 0.328551 0.036633
C109  C     C_R   0.622951 0.246484 0.406564 -0.022751
C110  C     C_R   0.082330 0.710212 0.095045 0.034695
C111  C     C_R   0.078588 0.631330 0.115631 0.199282
C112  C     C_R   0.099129 0.622178 0.155064 -0.114399
C113  C     C_R   0.120028 0.691665 0.174110 -0.006468
C114  C     C_R   0.133956 0.762343 0.153126 -0.036891
C115  C     C_R   0.120679 0.768712 0.113606 0.192844
C116  C     C_R   0.218004 0.679165 0.233337 0.134997
Cr1   Cr    Cr6+3 0.421670 0.426920 0.499620 1.092456
Cr2   Cr    Cr6+3 0.427030 0.651190 0.500980 1.085346
Cr3   Cr    Cr6+3 0.651280 0.421870 0.499380 1.064958
Cr4   Cr    Cr6+3 0.910810 0.908010 0.001130 1.076201
Cr5   Cr    Cr6+3 0.682800 0.909890 0.998370 1.083425
Cr6   Cr    Cr6+3 0.908370 0.682300 0.002180 1.128182
H1    H     H_    0.562031 0.156967 0.828926 0.122864
H2    H     H_    0.699345 0.025245 0.705777 0.122324
H3    H     H_    0.541035 0.195444 0.673081 0.131401
H4    H     H_    0.865736 0.112172 0.837908 0.114518
H5    H     H_    0.132623 0.532388 0.650733 0.110194
H6    H     H_    0.294655 0.506551 0.792731 0.126803
H7    H     H_    0.148612 0.779014 0.829099 0.142958
H8    H     H_    0.692551 0.799575 0.217654 0.128603
H9    H     H_    0.776375 0.492811 0.400109 0.171274
H10   H     H_    0.861105 0.056630 0.096508 0.185371
H11   H     H_    0.512496 0.329776 0.278505 0.095819
H12   H     H_    0.527482 0.324372 0.208375 0.101855
H13   H     H_    0.506270 0.814736 0.659524 0.130006
H14   H     H_    0.788987 0.035719 0.285212 0.121559
H15   H     H_    0.800698 0.026408 0.215176 0.139591
H16   H     H_    0.514328 0.226447 0.155398 0.109891
H17   H     H_    0.501910 0.210496 0.406316 0.157815
H18   H     H_    0.107641 0.834015 0.349845 0.155785
H19   H     H_    0.095428 0.563032 0.171169 0.111480
H20   H     H_    0.988945 0.715298 0.296802 0.135151
H21   H     H_    0.155010 0.813249 0.167557 0.168965
N1    N     N_R   0.623145 0.617526 0.775118 -0.249396
N2    N     N_R   0.619221 0.609743 0.737239 -0.188292
N3    N     N_R   0.617572 0.765059 0.730304 -0.250995
N4    N     N_R   0.621843 0.772638 0.768261 -0.230859
O1    O     O_R   0.502070 0.323090 0.541280 -0.498822
O2    O     O_R   0.520720 0.641670 0.461580 -0.475552
O3    O     O_R   0.674120 0.502090 0.457500 -0.515231
O4    O     O_R   0.640110 0.338380 0.459630 -0.461823
O5    O     O_3   0.499990 0.499990 0.499990 -0.284494
O6    O     O_R   0.017640 0.822070 0.960410 -0.490657
O7    O     O_R   0.822000 0.989470 0.960340 -0.435059
O8    O     O_R   0.666920 0.007430 0.955290 -0.480601
O9    O     O_R   0.694410 0.812480 0.959650 -0.484304
O10   O     O_R   0.831550 0.656950 0.958960 -0.472008
O11   O     O_R   0.998590 0.685540 0.963930 -0.437987
O12   O     O_R   0.338340 0.520690 0.539540 -0.455219
O13   O     O_R   0.008220 0.831200 0.045060 -0.513232
O14   O     O_R   0.813270 0.997930 0.038810 -0.516857
O15   O     O_R   0.657500 0.016560 0.039940 -0.472405
O16   O     O_R   0.685680 0.820940 0.038120 -0.461896
O17   O     O_R   0.822130 0.666070 0.043610 -0.435377
O18   O     O_R   0.989860 0.694000 0.042400 -0.433183
O19   O     O_3   0.833990 0.833400 0.000560 -0.292229
O20   O     O_R   0.324760 0.674070 0.543580 -0.459189
O21   O     O_R   0.522400 0.640310 0.540110 -0.458872
O22   O     O_R   0.675940 0.500630 0.542210 -0.485145
O23   O     O_R   0.641790 0.337020 0.538150 -0.442566
O24   O     O_R   0.500260 0.324550 0.456580 -0.507351
O25   O     O_R   0.336660 0.522040 0.461020 -0.434508
O26   O     O_R   0.322940 0.675540 0.458880 -0.491254
N5    N     N_2   0.781560 0.448504 0.604192 -0.448934
H22   H     H_    0.798196 0.388836 0.622538 0.309417
C117  C     C_3   0.872858 0.444694 0.588965 -0.258723
H23   H     H_    0.923989 0.367620 0.576253 0.151745
H24   H     H_    0.852398 0.502758 0.566162 0.148321
H25   H     H_    0.914876 0.459142 0.612191 0.153656
O27   O     O_3   0.887757 0.069075 0.912252 -0.664384
H26   H     H_    0.935636 0.081738 0.896842 0.314787
O28   O     O_3   0.862875 0.144011 0.650112 -0.712047
H27   H     H_    0.876942 0.112414 0.675765 0.336510
O29   O     O_3   0.720440 0.319815 0.715963 -0.660432
H28   H     H_    0.700465 0.328860 0.688683 0.349939
N6    N     N_2   0.739996 0.292174 0.794401 -0.512834
H29   H     H_    0.789721 0.313934 0.783269 0.296539
C118  C     C_3   0.645346 0.379017 0.808019 -0.283666
H30   H     H_    0.663065 0.423677 0.829120 0.151198
H31   H     H_    0.596386 0.353131 0.822359 0.133644
H32   H     H_    0.602924 0.429795 0.783732 0.196403
O30   O     O_3   0.708134 0.987359 0.780493 -0.689093
H33   H     H_    0.703444 0.943349 0.760163 0.333707
N7    N     N_2   0.461860 0.254420 0.602822 -0.477662
H34   H     H_    0.462100 0.202729 0.583133 0.259138
C119  C     C_3   0.377932 0.294420 0.630165 -0.279363
H35   H     H_    0.304281 0.325831 0.614494 0.164372
H36   H     H_    0.376548 0.357321 0.647540 0.176051
H37   H     H_    0.384640 0.232370 0.649034 0.124359
N8    N     N_2   0.490917 0.799896 0.584434 -0.457662
H38   H     H_    0.426909 0.856379 0.598495 0.259222
C120  C     C_3   0.536430 0.841949 0.559098 -0.295401
H39   H     H_    0.570472 0.880370 0.576081 0.131698
H40   H     H_    0.476392 0.899255 0.540044 0.142109
H41   H     H_    0.596805 0.780747 0.540805 0.142947
O31   O     O_3   0.800986 0.206102 0.574545 -0.681440
H42   H     H_    0.869289 0.181206 0.586205 0.370111
N9    N     N_2   0.126118 0.838537 0.904064 -0.461602
H43   H     H_    0.165292 0.822260 0.929675 0.264467
C121  C     C_3   0.144545 0.905190 0.879713 -0.289975
H44   H     H_    0.141546 0.968571 0.897284 0.148609
H45   H     H_    0.084102 0.939897 0.857457 0.156801
H46   H     H_    0.221773 0.861792 0.866192 0.132003
O32   O     O_3   0.107129 0.528510 0.922083 -0.676763
H47   H     H_    0.125758 0.463033 0.908826 0.362838
N10   N     N_2   0.341309 0.475461 0.716403 -0.520968
H48   H     H_    0.368076 0.499756 0.693943 0.267999
C122  C     C_3   0.421326 0.396114 0.739343 -0.307107
H49   H     H_    0.484445 0.341057 0.720360 0.150146
H50   H     H_    0.390957 0.353152 0.755181 0.148446
H51   H     H_    0.453052 0.430343 0.759596 0.152063
N11   N     N_2   0.989975 0.770079 0.704151 -0.544829
H52   H     H_    0.985974 0.742876 0.677337 0.254545
C123  C     C_3   0.978519 0.871414 0.703088 -0.284662
H53   H     H_    0.046020 0.868414 0.688886 0.194488
H54   H     H_    0.969915 0.903879 0.732481 0.180678
H55   H     H_    0.908760 0.923206 0.686533 0.143321
O33   O     O_3   0.968713 0.770522 0.786055 -0.700632
H56   H     H_    0.912747 0.801819 0.767052 0.361259
O34   O     O_3   0.255974 0.738548 0.689195 -0.710313
H57   H     H_    0.317922 0.741899 0.681991 0.338753
N12   N     N_2   0.883796 0.556965 0.894089 -0.447387
H58   H     H_    0.940494 0.545660 0.874848 0.305757
C124  C     C_3   0.896235 0.461428 0.908257 -0.251043
H59   H     H_    0.975400 0.413537 0.919305 0.157310
H60   H     H_    0.883307 0.418659 0.884801 0.145153
H61   H     H_    0.841372 0.476111 0.932084 0.158299
O35   O     O_3   0.303805 0.749903 0.610464 -0.680706
H62   H     H_    0.274363 0.812525 0.626786 0.327732
O36   O     O_3   0.132541 0.485568 0.843450 -0.747532
H63   H     H_    0.133820 0.483813 0.815130 0.327739
O37   O     O_3   0.185398 0.514714 0.576681 -0.685703
H64   H     H_    0.147359 0.483569 0.588333 0.312774
O38   O     O_3   0.532014 0.871883 0.084615 -0.698369
H65   H     H_    0.464496 0.910785 0.097563 0.352421
O39   O     O_3   0.830355 0.538838 0.092119 -0.665902
H66   H     H_    0.838998 0.474964 0.103521 0.337122
O40   O     O_3   0.814633 0.515233 0.330522 -0.707780
H67   H     H_    0.817702 0.543514 0.305378 0.335041
N13   N     N_2   0.572044 0.563088 0.285908 -0.488317
H68   H     H_    0.539987 0.587380 0.312783 0.246732
C125  C     C_3   0.642425 0.453748 0.283821 -0.227300
H69   H     H_    0.609219 0.413384 0.299553 0.141802
H70   H     H_    0.716697 0.434207 0.297318 0.199021
H71   H     H_    0.655878 0.426284 0.253593 0.215132
O41   O     O_3   0.567207 0.578239 0.207393 -0.698331
H72   H     H_    0.557887 0.598521 0.180151 0.325985
N14   N     N_2   0.487509 0.866290 0.164263 -0.521608
H73   H     H_    0.453209 0.844601 0.184910 0.256863
C126  C     C_3   0.493493 0.956560 0.174754 -0.318609
H74   H     H_    0.512257 0.954394 0.205654 0.129605
H75   H     H_    0.417977 0.025942 0.169635 0.149314
H76   H     H_    0.552700 0.962583 0.157709 0.158378
N15   N     N_2   0.705913 0.804196 0.294131 -0.518236
H77   H     H_    0.710308 0.794757 0.323412 0.263379
C127  C     C_3   0.673710 0.908009 0.282440 -0.312651
H78   H     H_    0.688613 0.949196 0.305915 0.151300
H79   H     H_    0.590396 0.950395 0.275867 0.143268
H80   H     H_    0.718026 0.907066 0.256893 0.136735
O42   O     O_3   0.784503 0.495911 0.679975 -0.677639
H81   H     H_    0.794152 0.529245 0.702960 0.336166
N16   N     N_2   0.482125 0.836523 0.338772 -0.483387
H82   H     H_    0.470102 0.835839 0.309734 0.232305
C128  C     C_3   0.470978 0.932382 0.352826 -0.249546
H83   H     H_    0.482403 0.973603 0.328898 0.133543
H84   H     H_    0.527563 0.920838 0.375571 0.163907
H85   H     H_    0.392293 0.980706 0.364532 0.175438
O43   O     O_3   0.475849 0.799495 0.415527 -0.652998
H86   H     H_    0.501810 0.800326 0.441582 0.317782
O44   O     O_3   0.794797 0.533036 0.172560 -0.699459
H87   H     H_    0.865441 0.501172 0.162055 0.329337
N17   N     N_2   0.513368 0.181765 0.081680 -0.494693
H88   H     H_    0.463460 0.259657 0.079913 0.250010
C129  C     C_3   0.460954 0.127184 0.092346 -0.273631
H89   H     H_    0.422436 0.154770 0.120640 0.108337
H90   H     H_    0.516469 0.043962 0.093716 0.215468
H91   H     H_    0.402092 0.140051 0.070499 0.162425
N18   N     N_2   0.503452 0.155560 0.332437 -0.540282
H92   H     H_    0.503654 0.150747 0.302959 0.248220
C130  C     C_3   0.406356 0.181921 0.350425 -0.325113
H93   H     H_    0.359700 0.163598 0.330629 0.132175
H94   H     H_    0.362462 0.264776 0.357472 0.170240
H95   H     H_    0.419581 0.136818 0.376916 0.148985
O45   O     O_3   0.858123 0.121968 0.164665 -0.687790
H96   H     H_    0.835420 0.169002 0.187160 0.343591
O46   O     O_3   0.795420 0.210252 0.323953 -0.714583
H97   H     H_    0.852849 0.201267 0.340378 0.333902
N19   N     N_2   0.771051 0.273898 0.403124 -0.494524
H98   H     H_    0.790397 0.317508 0.386176 0.259821
C131  C     C_3   0.856534 0.194624 0.424054 -0.271447
H99   H     H_    0.898988 0.228015 0.438613 0.150334
H100  H     H_    0.909793 0.132529 0.404211 0.140241
H101  H     H_    0.828656 0.161729 0.446248 0.168122
O47   O     O_3   0.051099 0.566812 0.097282 -0.649469
H102  H     H_    0.050338 0.518066 0.116041 0.326325
O48   O     O_3   0.142681 0.835195 0.094467 -0.669379
H103  H     H_    0.167816 0.806296 0.068476 0.335993
N20   N     N_2   0.830360 0.558895 0.817064 -0.525966
H104  H     H_    0.807414 0.518870 0.799412 0.274311
C132  C     C_3   0.883878 0.601779 0.796730 -0.273452
H105  H     H_    0.948986 0.540082 0.780278 0.146836
H106  H     H_    0.914962 0.636446 0.817135 0.204104
H107  H     H_    0.831555 0.661206 0.776372 0.172213
N21   N     N_2   0.314460 0.672713 0.290662 -0.509707
H108  H     H_    0.341102 0.626030 0.314298 0.257059
C133  C     C_3   0.317612 0.766984 0.294692 -0.300152
H109  H     H_    0.386712 0.757794 0.279750 0.155781
H110  H     H_    0.321477 0.784104 0.325516 0.180872
H111  H     H_    0.249143 0.833564 0.281962 0.146146
N22   N     N_2   0.305004 0.656123 0.210099 -0.512266
H112  H     H_    0.346685 0.689838 0.219043 0.293884
C134  C     C_3   0.369227 0.548071 0.201366 -0.270552
H113  H     H_    0.409993 0.506180 0.227609 0.168734
H114  H     H_    0.426566 0.537533 0.179165 0.176492
H115  H     H_    0.322692 0.515225 0.189902 0.130338
N23   N     N_2   0.952719 0.718703 0.222044 -0.519018
H116  H     H_    0.890139 0.789884 0.227818 0.250923
C135  C     C_3   0.931359 0.636460 0.228904 -0.296751
H117  H     H_    0.872482 0.642457 0.208344 0.182884
H118  H     H_    0.902214 0.641686 0.258583 0.161352
H119  H     H_    0.001351 0.560402 0.224609 0.145638
N24   N     N_2   0.207280 0.494229 0.327973 -0.529096
H120  H     H_    0.148088 0.513186 0.308965 0.262228
C136  C     C_3   0.307415 0.434410 0.310288 -0.325808
H121  H     H_    0.313466 0.364582 0.296708 0.144371
H122  H     H_    0.369235 0.410732 0.331946 0.177289
H123  H     H_    0.318641 0.479023 0.287635 0.148108
O49   O     O_3   0.272674 0.460251 0.405634 -0.679168
H124  H     H_    0.250213 0.419168 0.390462 0.342124
O50   O     O_3   0.157259 0.823334 0.420968 -0.670667
H125  H     H_    0.149866 0.808226 0.447990 0.336774
O51   O     O_3   0.528188 0.820793 0.922819 -0.692474
H126  H     H_    0.547634 0.789589 0.948544 0.330821
N25   N     N_2   0.475129 0.824651 0.846608 -0.492197
H127  H     H_    0.421868 0.821866 0.864433 0.276079
C137  C     C_3   0.449397 0.928908 0.838541 -0.265699
H128  H     H_    0.451912 0.968378 0.865265 0.177986
H129  H     H_    0.370660 0.971362 0.826588 0.135032
H130  H     H_    0.503568 0.930050 0.817187 0.183192
N26   N     N_2   0.540170 0.120457 0.901136 -0.480644
H131  H     H_    0.495245 0.108606 0.881707 0.246030
C138  C     C_3   0.480330 0.210824 0.924720 -0.275885
H132  H     H_    0.415378 0.206742 0.937997 0.158626
H133  H     H_    0.449004 0.280944 0.906933 0.133553
H134  H     H_    0.528048 0.215802 0.948057 0.161057

loop_
_geom_bond_atom_site_label_1
_geom_bond_atom_site_label_2
_ccdc_geom_bond_type
C134  H114  S    
Cr1   O12   S    
C130  H95   S    
N7    C119  S    
C87   C88   A    
C17   O6    A    
C57   H6    S    
C114  C115  A    
Cr4   O19   S    
C103  O46   S    
C39   C41   A    
O40   H67   S    
Cr5   O19   S    
N17   H88   S    
C118  H32   S    
C129  H89   S    
C5    C6    A    
C134  H115  S    
C54   C63   S    
C1    O20   A    
N13   C125  S    
O38   H65   S    
C34   C35   A    
C61   C63   A    
O28   H27   S    
C15   O7    A    
C132  H105  S    
C117  H25   S    
Cr2   O26   S    
N16   H82   S    
C36   O27   S    
C50   C52   A    
N23   H116  S    
C4    C12   S    
C83   C88   A    
C59   C60   A    
C77   O41   S    
C124  H60   S    
O33   H56   S    
C132  H106  S    
C120  H39   S    
C3    N21   S    
C1    O12   A    
O50   H125  S    
C101  H15   S    
O51   H126  S    
C4    C5    A    
N21   H108  S    
C133  H109  S    
C124  H61   S    
Cr2   O2    S    
C75   C76   A    
C37   C38   A    
C46   C49   A    
C138  H132  S    
N12   C124  S    
O48   H103  S    
Cr6   O11   S    
C13   C21   A    
N10   H48   S    
C94   C96   A    
C126  H75   S    
O46   H97   S    
C78   N13   S    
C115  O48   S    
N19   H98   S    
C131  H99   S    
N3    N4    A    
C45   N7    S    
C62   O3    A    
O32   H47   S    
C129  H91   S    
C119  H35   S    
C6    C7    A    
N1    N2    A    
C114  H21   S    
O44   H87   S    
C64   C65   A    
Cr1   O25   S    
C77   C82   A    
N26   H131  S    
N8    C120  S    
C98   C99   A    
C20   O13   A    
C22   N1    A    
Cr4   O13   S    
C31   C36   A    
C29   O22   A    
N6    H29   S    
C44   C48   A    
N18   C130  S    
C125  H69   S    
C112  H19   S    
C25   N12   S    
Cr5   O9    S    
N14   C126  S    
C111  C112  A    
C136  H123  S    
C26   O51   S    
C97   C98   A    
C81   H8    S    
C53   C54   A    
C20   O18   A    
C105  C107  A    
C133  H111  S    
C64   C68   A    
C29   O21   A    
N10   C122  S    
C71   O38   S    
C128  H83   S    
C137  H128  S    
C3    C116  A    
C38   C39   A    
C18   O14   A    
C16   C30   S    
C40   C49   S    
Cr5   O16   S    
C138  H134  S    
Cr2   O20   S    
C38   O29   S    
O29   H28   S    
C118  H31   S    
C6    N23   S    
N5    H22   S    
N12   H58   S    
C110  C111  A    
C137  H129  S    
C47   C48   A    
N15   H77   S    
C107  C108  A    
C56   O32   S    
C131  H101  S    
C117  H24   S    
C66   C67   A    
Cr6   O18   S    
C13   H13   S    
C83   N16   S    
C119  H37   S    
C10   O50   S    
N20   C132  S    
C57   C63   A    
C27   N25   S    
C23   N3    A    
C44   H3    S    
N24   H120  S    
C29   C84   S    
C10   C14   A    
C91   C92   A    
C136  H121  S    
C2    C106  A    
C50   C56   A    
C84   C95   A    
N22   C134  S    
C7    C116  A    
C32   N26   S    
C95   C106  A    
C122  H50   S    
C31   C32   A    
C8    C12   A    
Cr4   O7    S    
C19   O16   A    
N11   C123  S    
C127  H79   S    
Cr3   O22   S    
C125  H71   S    
C20   C110  S    
C104  N19   S    
C26   C30   A    
C121  H45   S    
C65   O35   S    
C53   H7    S    
C3    C4    A    
C52   C53   A    
C122  H51   S    
Cr3   O5    S    
C46   O31   S    
C105  C109  A    
C54   C55   A    
C117  H23   S    
O42   H81   S    
C34   C43   S    
C24   C28   A    
C135  H117  S    
C127  H80   S    
C15   C31   S    
C121  H46   S    
N17   C129  S    
C75   O44   S    
C129  H90   S    
N14   H73   S    
C71   C72   A    
Cr2   O5    S    
C64   O34   S    
C57   C58   A    
C100  C101  A    
C134  H113  S    
C128  H84   S    
C10   C11   A    
N25   H127  S    
N16   C128  S    
C2    C23   S    
O43   H86   S    
N23   C135  S    
C100  H14   S    
C55   C56   A    
C101  C102  A    
C128  H85   S    
C41   C42   A    
C35   C36   A    
C80   N15   S    
C123  H53   S    
C40   O23   A    
C116  N22   S    
C77   C78   A    
C98   H11   S    
C26   C27   A    
C120  H40   S    
C137  H130  S    
C41   H2    S    
C51   O25   A    
C126  H76   S    
O45   H96   S    
N21   C133  S    
C111  O47   S    
C62   C89   S    
C92   O45   S    
C133  H110  S    
C130  H93   S    
O39   H66   S    
N9    H43   S    
C120  H41   S    
C138  H133  S    
C16   O9    A    
C70   C71   A    
C55   O36   S    
C97   C102  A    
Cr3   O3    S    
N7    H34   S    
C22   C28   S    
N19   C131  S    
C74   C82   S    
C135  H119  S    
C79   C88   S    
C131  H100  S    
O49   H124  S    
C61   O33   S    
C40   O1    A    
C67   C68   A    
C18   C90   S    
C72   C74   A    
O35   H62   S    
C85   C89   A    
C86   C87   A    
C126  H74   S    
C91   H10   S    
C58   C59   A    
C1    C69   S    
C60   C61   A    
C37   C43   A    
C9    C14   A    
C99   C108  S    
C105  H17   S    
Cr1   O24   S    
C14   C51   S    
C21   C84   A    
C45   C49   A    
O37   H64   S    
C90   C96   A    
C119  H36   S    
C83   C85   A    
Cr1   O1    S    
C94   H16   S    
C124  H59   S    
N6    C118  S    
C123  H55   S    
C8    N24   S    
O27   H26   S    
C125  H70   S    
C113  C114  A    
C25   C30   A    
C46   C47   A    
Cr5   O8    S    
C16   O10   A    
O31   H42   S    
C86   C89   A    
C60   N11   S    
C93   C102  S    
C73   C109  S    
C32   C33   A    
N13   H68   S    
N22   H112  S    
C18   O15   A    
C90   C91   A    
C65   C69   A    
Cr5   O15   S    
Cr2   O21   S    
C92   C93   A    
Cr6   O10   S    
O34   H57   S    
N5    C117  S    
C22   N4    A    
N15   C127  S    
C103  C104  A    
C85   O43   S    
C110  C115  A    
C39   C48   S    
C132  H107  S    
C72   N14   S    
C93   C94   A    
Cr6   O19   S    
C62   O2    A    
C11   H18   S    
C81   C82   A    
C5    H20   S    
Cr6   O17   S    
C87   O40   S    
C23   N2    A    
C95   N5    S    
N24   C136  S    
C104  C109  A    
C136  H122  S    
C86   H9    S    
C66   C69   A    
C51   O26   A    
C2    C13   A    
O36   H63   S    
C37   N6    S    
C8    C9    A    
C103  C108  A    
O30   H33   S    
C73   O24   A    
C73   O4    A    
C97   H12   S    
C47   O28   S    
C112  C113  A    
Cr3   O4    S    
C74   C75   A    
C24   C25   A    
C135  H118  S    
C78   C79   A    
N8    H38   S    
C66   O37   S    
C96   N17   S    
C118  H30   S    
C24   N20   S    
C35   H4    S    
N26   C138  S    
C67   H5    S    
C59   C68   S    
C99   C100  A    
O41   H72   S    
C33   C34   A    
C17   O11   A    
Cr4   O14   S    
O47   H102  S    
N25   C137  S    
C106  O42   S    
C70   C76   A    
C21   N8    S    
N20   H104  S    
C52   N9    S    
C15   O8    A    
C76   O39   S    
C44   C45   A    
C80   C81   A    
C123  H54   S    
C17   C50   S    
C11   C12   A    
C9    O49   S    
N18   H92   S    
C7    C113  S    
C107  N18   S    
C122  H49   S    
Cr4   O6    S    
Cr1   O5    S    
C130  H94   S    
C19   O17   A    
N11   H52   S    
C127  H78   S    
Cr3   O23   S    
C79   C80   A    
C42   O30   S    
N9    C121  S    
C121  H44   S    
C42   C43   A    
C27   C28   A    
C33   H1    S    
C19   C70   S    
C58   N10   S    
