data_mof_unit_35537.cif
_audit_creation_date              2012-12-10T18:09:54-0500
_audit_creation_method            fapswitch 2.2
_symmetry_space_group_name_H-M    P1
_symmetry_Int_Tables_number       1
_space_group_crystal_system       triclinic
_cell_length_a                    10.614774
_cell_length_b                    12.590271
_cell_length_c                    13.088144
_cell_angle_alpha                 82.242346
_cell_angle_beta                  90.22648
_cell_angle_gamma                 102.415566
_cell_volume                      1692.02976146

loop_
_atom_site_label
_atom_site_type_symbol
_atom_type_description
_atom_site_fract_x
_atom_site_fract_y
_atom_site_fract_z
_atom_type_partial_charge
C1    C     C_R   0.488156 0.438715 0.691331 0.852778
C2    C     C_R   0.502439 0.449637 0.973678 0.092839
C3    C     C_R   0.547394 0.464977 0.870555 0.095974
C4    C     C_R   0.741891 0.500522 0.500487 0.803307
C5    C     C_R   0.554443 0.530447 0.036527 0.084199
C6    C     C_R   0.663484 0.614157 0.001838 0.118203
C7    C     C_R   0.716519 0.619731 0.903561 -0.228173
C8    C     C_R   0.659006 0.546288 0.838424 -0.208470
C9    C     C_R   0.499685 0.530787 0.132662 -0.249125
C10   C     C_R   0.675397 0.679174 0.169237 -0.011645
C11   C     C_R   0.478156 0.399568 0.801276 -0.117689
C12   C     C_3   0.121301 0.500269 0.500586 0.174856
C13   C     C_R   0.314366 0.086339 0.352002 -0.307059
C14   C     C_R   0.663563 0.802483 0.620718 -0.093095
C15   C     C_R   0.706327 0.910259 0.639917 0.447444
C16   C     C_R   0.522908 0.561327 0.309094 0.843026
C17   C     C_R   0.641470 0.990146 0.596273 -0.308775
C18   C     C_R   0.540193 0.963779 0.527371 -0.045787
C19   C     C_R   0.507020 0.854452 0.505026 0.215939
C20   C     C_R   0.474069 0.042012 0.477003 0.022067
C21   C     C_R   0.379678 0.010297 0.403141 0.189674
C22   C     C_R   0.352554 0.903427 0.379959 -0.293391
C23   C     C_3   0.066700 0.481439 0.393094 -0.409052
C24   C     C_R   0.416179 0.827047 0.429656 -0.190294
C25   C     C_R   0.497674 0.151251 0.496457 -0.049321
C26   C     C_R   0.343220 0.193218 0.374090 0.005120
C27   C     C_R   0.258018 0.499708 0.500216 0.827667
C28   C     C_3   0.904507 0.408697 0.583727 -0.397819
C29   C     C_3   0.048997 0.408083 0.583538 -0.398030
C30   C     C_3   0.922372 0.482615 0.393089 -0.389489
C31   C     C_3   0.957167 0.613302 0.526106 -0.402385
C32   C     C_3   0.878661 0.501421 0.500897 0.184838
C33   C     C_2   0.752938 0.748318 0.240639 0.357593
C34   C     C_3   0.100009 0.612841 0.525551 -0.377198
C35   C     C_3   0.921609 0.980676 0.636928 0.066795
C36   C     C_3   0.039575 0.010379 0.703146 -0.325917
C37   C     C_3   0.161734 0.057710 0.636421 -0.945915
C38   C     C_R   0.720623 0.689382 0.067032 -0.163696
C39   C     C_R   0.562977 0.597626 0.201523 -0.147618
C40   C     C_R   0.383864 0.305961 0.837851 -0.197471
C41   C     C_R   0.352253 0.281455 0.942434 -0.139454
C42   C     C_R   0.408264 0.353649 0.009845 -0.190062
H1    H     H_    0.848750 0.327251 0.567901 0.176582
H2    H     H_    0.280057 0.208728 0.970788 0.147184
H3    H     H_    0.873060 0.421368 0.661412 0.154832
H4    H     H_    0.703854 0.552588 0.763073 0.145508
H5    H     H_    0.294004 0.253519 0.335382 0.127092
H6    H     H_    0.282352 0.878792 0.322513 0.159856
H7    H     H_    0.242296 0.063427 0.295440 0.154760
H8    H     H_    0.565344 0.182564 0.552350 0.127299
H9    H     H_    0.711795 0.739483 0.654995 0.148465
H10   H     H_    0.675881 0.072076 0.614805 0.151116
H11   H     H_    0.394280 0.747657 0.405642 0.212201
H12   H     H_    0.150786 0.680726 0.466794 0.178512
H13   H     H_    0.088207 0.420644 0.661073 0.161390
H14   H     H_    0.062286 0.326456 0.567611 0.176966
H15   H     H_    0.866654 0.403113 0.372670 0.184863
H16   H     H_    0.080066 0.401195 0.373371 0.175972
H17   H     H_    0.939816 0.681607 0.468019 0.180018
H18   H     H_    0.927368 0.628800 0.603327 0.169753
H19   H     H_    0.139392 0.629047 0.602323 0.184306
H20   H     H_    0.743444 0.726098 0.323369 0.104681
H21   H     H_    0.910084 0.056510 0.586323 0.139366
H22   H     H_    0.938929 0.918922 0.587996 0.136060
H23   H     H_    0.904255 0.548885 0.333112 0.155311
H24   H     H_    0.023873 0.071992 0.752372 0.227583
H25   H     H_    0.052764 0.935708 0.754174 0.226870
H26   H     H_    0.151864 0.133832 0.586171 0.263706
H27   H     H_    0.180487 0.996886 0.587530 0.271155
H28   H     H_    0.245624 0.078086 0.686606 0.263427
H29   H     H_    0.118976 0.546851 0.332827 0.157349
H30   H     H_    0.801691 0.681652 0.876521 0.156193
H31   H     H_    0.805788 0.751418 0.040049 0.181303
H32   H     H_    0.409696 0.475140 0.158252 0.143166
H33   H     H_    0.331176 0.254251 0.785153 0.155817
H34   H     H_    0.378759 0.330875 0.090022 0.131964
N1    N     N_R   0.433240 0.222190 0.444680 -0.100315
N2    N     N_R   0.566070 0.776970 0.554790 -0.153202
O1    O     O_R   0.468120 0.366740 0.627160 -0.612474
O2    O     O_3   0.811101 0.937134 0.701652 -0.640880
O3    O     O_R   0.510770 0.544830 0.662520 -0.599293
O4    O     O_R   0.663880 0.410950 0.482330 -0.622273
O5    O     O_R   0.706530 0.589040 0.517700 -0.646904
O6    O     O_R   0.489230 0.455170 0.337480 -0.599333
O7    O     O_R   0.531880 0.633260 0.372840 -0.647869
O8    O     O_R   0.293470 0.410960 0.482300 -0.624114
O9    O     O_R   0.336120 0.589050 0.517670 -0.637731
O10   O     O_2   0.831861 0.831477 0.207178 -0.582726
Zn1   Zn    Zn3+2 0.471520 0.381090 0.476390 0.927669
Zn2   Zn    Zn3+2 0.528480 0.618910 0.523610 0.913427

loop_
_geom_bond_atom_site_label_1
_geom_bond_atom_site_label_2
_ccdc_geom_bond_type
C23   H16   S    
C22   H6    S    
C37   H26   S    
C37   H27   S    
C12   C29   S    
C19   N2    A    
C41   C42   A    
C35   C36   S    
C1    C11   S    
C15   O2    S    
C9    C39   A    
C36   H25   S    
C7    C8    A    
N2    Zn2   S    
C12   C23   S    
N1    Zn1   S    
O4    Zn1   S    
C25   N1    A    
C28   C29   S    
C33   O10   D    
C5    C6    A    
C36   H24   S    
C20   C25   A    
C1    O3    A    
C30   H15   S    
C35   O2    S    
C16   O6    A    
C18   C19   A    
C31   H17   S    
C25   H8    S    
C14   H9    S    
C33   H20   S    
C6    C38   A    
C35   H22   S    
C37   H28   S    
C17   H10   S    
C28   H3    S    
C26   N1    A    
C12   C27   S    
C23   C30   S    
C23   H29   S    
C28   C32   S    
C3    C8    A    
C7    H30   S    
C29   H13   S    
C24   H11   S    
C34   H19   S    
C10   C39   A    
C31   H18   S    
C27   O8    A    
C5    C9    A    
C31   C32   S    
C17   C18   A    
C31   C34   S    
C13   C21   A    
C27   O9    A    
C4    C32   S    
C26   H5    S    
C13   H7    S    
O3    Zn2   S    
C40   C41   A    
C34   H12   S    
C16   O7    A    
C1    O1    A    
C41   H2    S    
C22   C24   A    
C13   C26   A    
C2    C5    A    
C9    H32   S    
C12   C34   S    
C15   C17   A    
O5    Zn2   S    
C36   C37   S    
O8    Zn1   S    
O7    Zn2   S    
C6    C7    A    
C29   H14   S    
C28   H1    S    
C42   H34   S    
C40   H33   S    
C10   C38   A    
C2    C3    A    
C30   C32   S    
C4    O5    A    
C2    C42   A    
C19   C24   A    
C10   C33   S    
C18   C20   A    
C14   N2    A    
C11   C40   A    
C8    H4    S    
O1    Zn1   S    
C30   H23   S    
C3    C11   A    
C16   C39   S    
C4    O4    A    
C20   C21   A    
O6    Zn1   S    
O9    Zn2   S    
C14   C15   A    
C35   H21   S    
C21   C22   A    
C38   H31   S    
