data_mof_unit_18158.cif
_audit_creation_date              2012-12-11T15:27:36-0500
_audit_creation_method            fapswitch 2.2
_symmetry_space_group_name_H-M    P1
_symmetry_Int_Tables_number       1
_space_group_crystal_system       triclinic
_cell_length_a                    23.270346
_cell_length_b                    7.30098
_cell_length_c                    15.108143
_cell_angle_alpha                 90.003077
_cell_angle_beta                  108.294372
_cell_angle_gamma                 90.000808
_cell_volume                      2437.08161334

loop_
_atom_site_label
_atom_site_type_symbol
_atom_type_description
_atom_site_fract_x
_atom_site_fract_y
_atom_site_fract_z
_atom_type_partial_charge
O1    O     O_R   0.711000 0.648610 0.341170 -0.534946
O2    O     O_R   0.289000 0.351390 0.658830 -0.534945
O3    O     O_R   0.789000 0.148610 0.158830 -0.534949
O4    O     O_R   0.211000 0.851390 0.841170 -0.534940
O5    O     O_R   0.829650 0.322030 0.336650 -0.537279
O6    O     O_R   0.170350 0.677970 0.663350 -0.537270
O7    O     O_R   0.670350 0.822030 0.163350 -0.537278
O8    O     O_R   0.329650 0.177970 0.836650 -0.537277
C1    C     C_R   0.854278 0.485791 0.356783 0.717554
C2    C     C_R   0.145722 0.514209 0.643217 0.717577
C3    C     C_R   0.645722 0.985784 0.143217 0.717574
C4    C     C_R   0.354278 0.014216 0.856783 0.717572
O9    O     O_R   0.713950 0.319280 0.352070 -0.538875
O10   O     O_R   0.286050 0.680720 0.647930 -0.538891
O11   O     O_R   0.786050 0.819280 0.147930 -0.538884
O12   O     O_R   0.213950 0.180720 0.852070 -0.538891
O13   O     O_R   0.672470 0.142870 0.174360 -0.533582
O14   O     O_R   0.327530 0.857130 0.825640 -0.533592
O15   O     O_R   0.827530 0.642870 0.325640 -0.533590
O16   O     O_R   0.172470 0.357130 0.674360 -0.533591
C5    C     C_R   0.701946 0.487562 0.376129 0.692962
C6    C     C_R   0.298072 0.512437 0.623895 0.692989
C7    C     C_R   0.798066 0.987553 0.123887 0.692982
C8    C     C_R   0.201933 0.012444 0.876114 0.692981
O17   O     O_3   0.736530 0.478650 0.191680 -0.378570
O18   O     O_3   0.263470 0.521350 0.808320 -0.378578
O19   O     O_3   0.763470 0.978650 0.308320 -0.378576
O20   O     O_3   0.236530 0.021350 0.691680 -0.378574
V1    V     V_3+5 0.752500 0.206170 0.260820 1.427306
V2    V     V_3+5 0.247500 0.793830 0.739180 1.427295
V3    V     V_3+5 0.747500 0.706170 0.239180 1.427309
V4    V     V_3+5 0.252500 0.293830 0.760820 1.427298
C9    C     C_R   0.827435 0.996331 0.051714 -0.065693
C10   C     C_R   0.172566 0.003620 0.948290 -0.065713
C11   C     C_R   0.672587 0.496360 0.448314 -0.065696
C12   C     C_R   0.327454 0.503590 0.551739 -0.065692
C13   C     C_R   0.821153 0.026626 0.889316 0.175651
C14   C     C_R   0.178837 0.972590 0.110649 0.175652
C15   C     C_R   0.678889 0.526434 0.610735 0.175655
C16   C     C_R   0.321196 0.472709 0.389374 0.175663
C17   C     C_R   0.793031 0.015281 0.958524 -0.168310
C18   C     C_R   0.206962 0.984166 0.041453 -0.168285
C19   C     C_R   0.707002 0.515162 0.541509 -0.168315
C20   C     C_R   0.293063 0.484207 0.458564 -0.168305
C21   C     C_R   0.890280 0.988377 0.077470 -0.217038
C22   C     C_R   0.109724 0.011783 0.922545 -0.217054
C23   C     C_R   0.609742 0.488512 0.422569 -0.217010
C24   C     C_R   0.390299 0.511704 0.577506 -0.217068
C25   C     C_R   0.920972 0.999876 0.010395 0.048553
C26   C     C_R   0.079026 0.999873 0.989597 0.048554
C27   C     C_R   0.579061 0.499923 0.489662 0.048555
C28   C     C_R   0.421006 0.499809 0.510462 0.048548
C29   C     C_R   0.885406 0.019183 0.915018 0.123449
C30   C     C_R   0.114586 0.980218 0.084956 0.123437
C31   C     C_R   0.614634 0.519037 0.585047 0.123430
C32   C     C_R   0.385447 0.480318 0.415089 0.123458
C33   C     C_R   0.985722 0.993344 0.035358 0.073552
C34   C     C_R   0.014273 0.006313 0.964628 0.073551
C35   C     C_R   0.514311 0.493438 0.464703 0.073566
C36   C     C_R   0.485762 0.506189 0.535444 0.073529
C37   C     C_R   0.977115 0.025025 0.871129 -0.192335
C38   C     C_R   0.022877 0.974355 0.128842 -0.192335
C39   C     C_R   0.522927 0.524617 0.628957 -0.192332
C40   C     C_R   0.477154 0.474705 0.371205 -0.192349
C41   C     C_R   0.914624 0.031132 0.847233 -0.200711
C42   C     C_R   0.085365 0.968070 0.152729 -0.200720
C43   C     C_R   0.585423 0.530765 0.652852 -0.200683
C44   C     C_R   0.414667 0.468393 0.347310 -0.200710
H1    H     H_    0.889452 0.045749 0.774053 0.139235
H2    H     H_    0.110533 0.953153 0.225893 0.139238
H3    H     H_    0.610604 0.545178 0.726046 0.139228
H4    H     H_    0.389499 0.453675 0.274130 0.139237
H5    H     H_    0.086571 0.026597 0.849127 0.104266
H6    H     H_    0.913440 0.974075 0.150918 0.104249
H7    H     H_    0.413446 0.526555 0.650928 0.104268
H8    H     H_    0.586575 0.474290 0.349120 0.104246
H9    H     H_    0.255861 0.977678 0.059874 0.104223
H10   H     H_    0.744128 0.021559 0.940090 0.104213
H11   H     H_    0.244162 0.477776 0.440120 0.104228
H12   H     H_    0.755904 0.521345 0.559930 0.104201
H13   H     H_    0.994539 0.035583 0.813327 0.124867
H14   H     H_    0.005450 0.963513 0.186629 0.124873
H15   H     H_    0.505501 0.534859 0.686766 0.124873
H16   H     H_    0.494576 0.464095 0.313407 0.124873
C45   C     C_1   0.416772 0.007011 0.918743 -0.191275
C46   C     C_1   0.583228 0.992989 0.081256 -0.191274
C47   C     C_1   0.083228 0.506991 0.581257 -0.191274
C48   C     C_1   0.916772 0.493009 0.418742 -0.191270
C49   C     C_1   0.469145 0.002419 0.969964 0.000900
C50   C     C_1   0.530855 0.997581 0.030036 0.000901
C51   C     C_1   0.030855 0.502408 0.530037 0.000900
C52   C     C_1   0.969145 0.497592 0.469963 0.000898
C53   C     C_3   0.781739 0.047341 0.789183 -0.815756
H17   H     H_    0.732840 0.050842 0.782600 0.211691
H18   H     H_    0.792866 0.177217 0.759989 0.215603
H19   H     H_    0.789167 0.930083 0.747268 0.214562
C54   C     C_3   0.218243 0.951347 0.210755 -0.815699
H20   H     H_    0.267141 0.947774 0.217336 0.211682
H21   H     H_    0.210860 0.068401 0.252828 0.214517
H22   H     H_    0.207070 0.821332 0.239775 0.215600
C55   C     C_3   0.718317 0.546974 0.710868 -0.815756
H23   H     H_    0.767213 0.550432 0.717429 0.211681
H24   H     H_    0.707219 0.676808 0.740133 0.215643
H25   H     H_    0.710881 0.429645 0.752726 0.214541
C56   C     C_3   0.281794 0.451658 0.289250 -0.815678
H26   H     H_    0.232893 0.448057 0.282658 0.211666
H27   H     H_    0.289182 0.568830 0.247254 0.214489
H28   H     H_    0.292958 0.321725 0.260145 0.215622

loop_
_geom_bond_atom_site_label_1
_geom_bond_atom_site_label_2
_ccdc_geom_bond_type
O17   V3    S    
O1    C5    A    
C53   H17   S    
C47   C51   T    
O19   V1    S    
C9    C21   A    
O12   C8    A    
O3    C7    A    
C10   C18   A    
O15   V3    S    
C54   H20   S    
C25   C33   A    
C33   C38   A    
O7    C3    A    
C56   H27   S    
C35   C40   A    
C26   C30   A    
C4    C45   S    
C36   C39   A    
C40   C44   A    
O9    V1    S    
C23   H8    S    
C14   C18   A    
C1    C48   S    
O4    C8    A    
C41   H1    S    
C3    C46   S    
O1    V3    S    
O13   V1    S    
O2    V4    S    
O3    V1    S    
C40   H16   S    
C28   C36   A    
C1    O15   A    
C15   C31   A    
C48   C52   T    
C2    O16   A    
C7    C9    S    
O2    C6    A    
C10   C22   A    
C11   C19   A    
C16   C20   A    
C43   H3    S    
C44   H4    S    
C13   C29   A    
C34   C37   A    
O11   C7    A    
C38   H14   S    
C11   C23   A    
C35   C36   A    
C53   H18   S    
C24   H7    S    
O10   V2    S    
C14   C54   S    
C54   H21   S    
C15   C55   S    
O5    V1    S    
C56   H28   S    
C39   C43   A    
C2    C47   S    
O7    V3    S    
C38   C42   A    
C13   C53   S    
O8    V4    S    
C55   H23   S    
C46   C50   T    
C17   H10   S    
C45   C49   T    
O18   V4    S    
C23   C27   A    
C16   C32   A    
C19   H12   S    
C32   C44   A    
C8    C10   S    
C39   H15   S    
C21   H6    S    
C26   C34   A    
O5    C1    A    
C31   C43   A    
C14   C30   A    
C21   C25   A    
O8    C4    A    
O9    C5    A    
O14   V2    S    
O6    V2    S    
C53   H19   S    
C12   C20   A    
C27   C35   A    
C51   C52   S    
C54   H22   S    
C29   C41   A    
O16   V4    S    
C3    O13   A    
C20   H11   S    
O6    C2    A    
C15   C19   A    
O11   V3    S    
C5    C11   S    
O12   V4    S    
C6    C12   S    
C56   H26   S    
C22   C26   A    
C9    C17   A    
O10   C6    A    
O20   V2    S    
C37   H13   S    
C33   C34   A    
C42   H2    S    
C25   C29   A    
C12   C24   A    
C27   C31   A    
C13   C17   A    
C37   C41   A    
C24   C28   A    
C18   H9    S    
C55   H24   S    
C4    O14   A    
C55   H25   S    
C49   C50   S    
C30   C42   A    
C22   H5    S    
O4    V2    S    
C28   C32   A    
C16   C56   S    
