data_mof_unit_19517.cif
_audit_creation_date              2012-12-11T14:29:25-0500
_audit_creation_method            fapswitch 2.2
_symmetry_space_group_name_H-M    P1
_symmetry_Int_Tables_number       1
_space_group_crystal_system       triclinic
_cell_length_a                    6.934577
_cell_length_b                    14.649306
_cell_length_c                    16.391713
_cell_angle_alpha                 90.332756
_cell_angle_beta                  89.442845
_cell_angle_gamma                 90.235793
_cell_volume                      1665.06016644

loop_
_atom_site_label
_atom_site_type_symbol
_atom_type_description
_atom_site_fract_x
_atom_site_fract_y
_atom_site_fract_z
_atom_type_partial_charge
O1    O     O_R   0.494400 0.416610 0.413880 -0.541601
O2    O     O_R   0.823920 0.406790 0.585520 -0.545703
O3    O     O_R   0.994250 0.583390 0.586120 -0.536827
C1    C     C_R   0.653924 0.386262 0.614411 0.764488
O4    O     O_R   0.824110 0.405730 0.414490 -0.546516
O5    O     O_R   0.994440 0.582310 0.413870 -0.532886
C2    C     C_R   0.655640 0.385610 0.385131 0.747865
O6    O     O_R   0.494210 0.417690 0.586130 -0.544017
O7    O     O_3   0.660810 0.557940 0.500000 -0.364136
V1    V     V_3+5 0.935650 0.489250 0.500000 1.473926
O8    O     O_R   0.324160 0.593210 0.414480 -0.533826
C3    C     C_R   0.157080 0.611539 0.383953 0.812420
O9    O     O_R   0.323970 0.594270 0.585510 -0.535890
C4    C     C_R   0.154173 0.620632 0.610685 0.700215
V2    V     V_3+5 0.435660 0.510750 0.500000 1.501904
O10   O     O_3   0.160630 0.442060 0.500000 -0.377431
H1    H     H_    0.279251 0.948549 0.521700 0.186584
C5    C     C_R   0.063498 0.563600 0.773792 -0.145844
C6    C     C_R   0.018478 0.532133 0.851742 -0.118654
C7    C     C_R   0.007072 0.592789 0.916976 -0.090578
C8    C     C_R   0.040450 0.685473 0.904742 -0.129664
C9    C     C_R   0.084811 0.719686 0.826145 0.060280
C10   C     C_R   0.096273 0.657726 0.758888 0.080685
C11   C     C_R   0.120533 0.813775 0.814583 -0.155256
C12   C     C_R   0.165559 0.846940 0.735733 0.065699
C13   C     C_R   0.172757 0.786311 0.666863 -0.012290
C14   C     C_R   0.141236 0.689785 0.678946 -0.190482
C15   C     C_R   0.197425 0.941843 0.724578 -0.198381
C16   C     C_R   0.242539 0.978098 0.648505 -0.004728
C17   C     C_R   0.252663 0.919839 0.581696 -0.141912
C18   C     C_R   0.209932 0.826746 0.588985 -0.101715
H2    H     H_    0.072457 0.512855 0.725754 0.108728
H3    H     H_    0.992805 0.460151 0.861582 0.152203
H4    H     H_    0.972971 0.567879 0.977495 0.145914
H5    H     H_    0.031678 0.729812 0.957676 0.098004
H6    H     H_    0.186950 0.989400 0.775096 0.154274
C19   C     C_2   0.991839 0.713588 0.286796 -0.092627
C20   C     C_2   0.155136 0.680501 0.318557 -0.195786
H7    H     H_    0.853478 0.690270 0.310483 0.161326
H8    H     H_    0.293277 0.708843 0.299503 0.156401
C21   C     C_2   0.990684 0.791348 0.228718 0.132956
C22   C     C_2   0.116528 0.800829 0.164600 -0.206317
C23   C     C_2   0.777291 0.234057 0.799547 0.200241
C24   C     C_2   0.622305 0.180186 0.816933 -0.308509
H9    H     H_    0.496935 0.182221 0.778385 0.150741
C25   C     C_2   0.789037 0.294068 0.726420 -0.142438
C26   C     C_2   0.636176 0.322444 0.683666 -0.307486
H10   H     H_    0.931233 0.319456 0.709597 0.149663
H11   H     H_    0.491371 0.303193 0.702180 0.135936
C27   C     C_2   0.767201 0.214447 0.210532 -0.147732
C28   C     C_2   0.609081 0.166043 0.188268 0.026510
H12   H     H_    0.895833 0.210971 0.172311 0.145217
C29   C     C_2   0.783765 0.271002 0.285949 -0.076655
C30   C     C_2   0.641260 0.325644 0.312764 -0.273630
H13   H     H_    0.922499 0.272778 0.316093 0.163350
H14   H     H_    0.507877 0.329000 0.278937 0.160348
O11   O     O_R   0.770210 0.079270 0.910680 -0.524502
O12   O     O_R   0.440150 0.091160 0.082270 -0.530276
O13   O     O_R   0.269970 0.914530 0.082860 -0.512744
C31   C     C_R   0.607644 0.110260 0.112573 0.732600
O14   O     O_R   0.440480 0.090100 0.911240 -0.535137
O15   O     O_R   0.270310 0.913460 0.910610 -0.543180
C32   C     C_R   0.611094 0.114055 0.884942 0.767071
O16   O     O_R   0.769870 0.080340 0.082930 -0.540510
O17   O     O_3   0.603660 0.938980 0.996790 -0.363500
V3    V     V_3+5 0.328750 0.007610 0.996740 1.554437
O18   O     O_R   0.940600 0.902510 0.911180 -0.544473
C33   C     C_R   0.109991 0.878738 0.884716 0.670272
O19   O     O_R   0.940270 0.903570 0.082200 -0.534064
C34   C     C_R   0.108140 0.880507 0.109280 0.739411
V4    V     V_3+5 0.828770 0.986010 0.996670 1.537144
O20   O     O_3   0.103730 0.054750 0.996710 -0.356982
I1    I     I_    0.779219 0.891574 0.259137 -0.274319
C35   C     C_2   0.251949 0.726752 0.139515 0.706801
O21   O     O_2   0.201059 0.646791 0.142778 -0.567691
O22   O     O_R   0.435317 0.748801 0.109129 -0.640683
H15   H     H_    0.513134 0.692822 0.093459 0.297105
I2    I     I_    0.024763 0.243440 0.875403 -0.424343
I3    I     I_    0.361733 0.147637 0.265817 -0.354535
C36   C     C_2   0.265407 0.078006 0.637743 0.766372
O23   O     O_2   0.345874 0.108241 0.576826 -0.543232
O24   O     O_R   0.190274 0.138031 0.696357 -0.666344
H16   H     H_    0.208742 0.204359 0.680766 0.290071
C37   C     C_2   0.178277 0.780797 0.510885 0.758962
O25   O     O_2   0.311457 0.775770 0.461909 -0.530264
O26   O     O_R   0.992960 0.753278 0.488414 -0.642235
H17   H     H_    0.892286 0.765983 0.532223 0.272407

loop_
_geom_bond_atom_site_label_1
_geom_bond_atom_site_label_2
_ccdc_geom_bond_type
C21   C22   D    
C6    C7    A    
C1    O6    A    
C26   H11   S    
C29   C30   D    
C23   I2    S    
C13   C14   A    
C16   C17   A    
C35   O22   S    
C15   C16   A    
C37   O26   S    
O13   V3    S    
O5    C3    A    
C17   C18   A    
O12   C31   A    
V2    O10   S    
C22   C34   S    
O19   V4    S    
C5    C6    A    
O16   V4    S    
O14   C32   A    
O8    V2    S    
O14   V3    S    
O12   V3    S    
V3    O20   S    
C27   H12   S    
O1    V2    S    
C10   C14   A    
C4    C14   S    
O7    V1    S    
C7    H4    S    
C13   C18   A    
O9    C4    A    
C19   C21   S    
H1    C17   S    
O11   C32   A    
C25   H10   S    
O22   H15   S    
C29   H13   S    
C24   C32   S    
C30   H14   S    
C22   C35   S    
C27   C29   S    
C35   O21   D    
O15   V3    S    
O18   C33   A    
C11   C12   A    
C36   O24   S    
C6    H3    S    
O4    C2    A    
O26   H17   S    
C12   C13   A    
O17   V4    S    
O11   V4    S    
C18   C37   S    
C5    C10   A    
C12   C15   A    
O2    C1    A    
C23   C24   D    
C19   C20   D    
C27   C28   D    
C37   O25   D    
O3    C4    A    
O17   V3    S    
O6    V2    S    
O9    V2    S    
C9    C11   A    
C5    H2    S    
O2    V1    S    
C24   H9    S    
C25   C26   D    
O1    C2    A    
C36   O23   D    
O5    V1    S    
O8    C3    A    
C8    H5    S    
O15   C33   A    
C31   O16   A    
O7    V2    S    
O4    V1    S    
C19   H7    S    
O3    V1    S    
V1    O10   S    
C20   H8    S    
C16   C36   S    
O18   V4    S    
C3    C20   S    
O19   C34   A    
C23   C25   S    
C28   I3    S    
C11   C33   S    
O13   C34   A    
C21   I1    S    
V4    O20   S    
C7    C8    A    
C15   H6    S    
O24   H16   S    
C9    C10   A    
C28   C31   S    
C2    C30   S    
C8    C9    A    
C1    C26   S    
