data_mof_unit_63851.cif
_audit_creation_date              2013-03-05T16:24:31-0500
_audit_creation_method            fapswitch 2.2
_symmetry_space_group_name_H-M    P1
_symmetry_Int_Tables_number       1
_space_group_crystal_system       triclinic
_cell_length_a                    21.591832
_cell_length_b                    21.637143
_cell_length_c                    47.198132
_cell_angle_alpha                 89.947209
_cell_angle_beta                  89.937969
_cell_angle_gamma                 90.358185
_cell_volume                      22049.8322733

loop_
_atom_site_label
_atom_site_type_symbol
_atom_site_description
_atom_site_fract_x
_atom_site_fract_y
_atom_site_fract_z
_atom_type_partial_charge
O1    O     O_R   0.000030 0.908460 0.023630 -0.533535
O2    O     O_R   0.091540 0.000030 0.023630 -0.534324
O3    O     O_R   0.999970 0.091540 0.023630 -0.534659
O4    O     O_R   0.908460 0.999970 0.023630 -0.534101
O5    O     O_R   0.500030 0.408460 0.523630 -0.533641
O6    O     O_R   0.591540 0.500030 0.523630 -0.533064
O7    O     O_R   0.499970 0.591540 0.523630 -0.535901
O8    O     O_R   0.408460 0.499970 0.523630 -0.535477
O9    O     O_R   0.000060 0.908530 0.976290 -0.653867
O10   O     O_R   0.091470 0.000060 0.976290 -0.652519
O11   O     O_R   0.999940 0.091470 0.976290 -0.646415
O12   O     O_R   0.908530 0.999940 0.976290 -0.646826
O13   O     O_R   0.500060 0.408530 0.476290 -0.653555
O14   O     O_R   0.591470 0.500060 0.476290 -0.649037
O15   O     O_R   0.499940 0.591470 0.476290 -0.652874
O16   O     O_R   0.408530 0.499940 0.476290 -0.652057
C1    C     C_R   0.003050 0.880190 0.999958 0.848396
C2    C     C_R   0.119882 0.003062 0.999924 0.847580
C3    C     C_R   0.997501 0.119815 0.999932 0.847972
C4    C     C_R   0.880124 0.997018 0.999952 0.847082
C5    C     C_R   0.503007 0.380190 0.499960 0.847595
C6    C     C_R   0.619890 0.502744 0.499893 0.854686
C7    C     C_R   0.496937 0.619730 0.499920 0.858082
C8    C     C_R   0.380121 0.497008 0.499952 0.849184
C9    C     C_R   0.500090 0.000328 0.854527 -0.048109
C10   C     C_R   0.000284 0.500086 0.853064 -0.053035
C11   C     C_R   0.999931 0.500089 0.354526 -0.047106
C12   C     C_R   0.500376 0.999870 0.353060 -0.054318
C13   C     C_R   0.943911 0.489811 0.131054 0.001249
C14   C     C_R   0.456742 0.036089 0.130144 0.001431
C15   C     C_R   0.055718 0.510365 0.131031 0.001414
C16   C     C_R   0.543848 0.963544 0.130025 0.000493
C17   C     C_R   0.443939 0.990782 0.631085 0.002553
C18   C     C_R   0.957071 0.536356 0.630156 0.002147
C19   C     C_R   0.555828 0.010872 0.631006 0.000488
C20   C     C_R   0.043825 0.463396 0.630022 0.000318
Zn1   Zn    Zn3+2 0.000000 0.000000 0.031570 1.272336
Zn2   Zn    Zn3+2 0.500000 0.500000 0.531570 1.271892
Zn3   Zn    Zn3+2 0.000000 0.000000 0.968360 1.048849
Zn4   Zn    Zn3+2 0.500000 0.500000 0.468360 1.047220
C21   C     C_R   0.999902 0.500041 0.086491 -0.134311
C22   C     C_R   0.500107 0.999903 0.085867 -0.139614
C23   C     C_R   0.499915 0.000489 0.586494 -0.115878
C24   C     C_R   0.000183 0.499921 0.585870 -0.139578
C25   C     C_R   0.999787 0.500094 0.145892 0.111197
C26   C     C_R   0.500362 0.999791 0.144953 0.108819
C27   C     C_R   0.499885 0.000880 0.645895 0.111688
C28   C     C_R   0.000533 0.499857 0.644958 0.108788
C29   C     C_R   0.782184 0.042558 0.011905 -0.063051
C30   C     C_R   0.959339 0.781409 0.012936 -0.047599
C31   C     C_R   0.217793 0.957958 0.012257 -0.050268
C32   C     C_R   0.040181 0.218685 0.013100 -0.050961
C33   C     C_R   0.282170 0.542456 0.511970 -0.048322
C34   C     C_R   0.459166 0.281416 0.512851 -0.047819
C35   C     C_R   0.718050 0.459683 0.513142 -0.055746
C36   C     C_R   0.530906 0.719252 0.517068 -0.026688
C37   C     C_R   0.814192 0.994499 0.999318 -0.127881
C38   C     C_R   0.005991 0.814379 0.999412 -0.134559
C39   C     C_R   0.185835 0.005553 0.999254 -0.130953
C40   C     C_R   0.994145 0.185575 0.999359 -0.122434
C41   C     C_R   0.314183 0.494476 0.499320 -0.130806
C42   C     C_R   0.505951 0.314383 0.499421 -0.134332
C43   C     C_R   0.685837 0.505631 0.499126 -0.122282
C44   C     C_R   0.492626 0.685306 0.499514 -0.138842
C45   C     C_R   0.782430 0.951553 0.981728 -0.043376
C46   C     C_R   0.048585 0.783121 0.981563 -0.043883
C47   C     C_R   0.217703 0.048038 0.981399 -0.044164
C48   C     C_R   0.953089 0.216610 0.980730 -0.061594
C49   C     C_R   0.282422 0.451613 0.481686 -0.045049
C50   C     C_R   0.548710 0.283141 0.481656 -0.044433
C51   C     C_R   0.717416 0.545026 0.479728 -0.054666
C52   C     C_R   0.452338 0.717007 0.480678 -0.045405
C53   C     C_R   0.717546 0.958205 0.977973 -0.058172
C54   C     C_R   0.042347 0.718079 0.978182 -0.078529
C55   C     C_R   0.282619 0.041354 0.977748 -0.057691
C56   C     C_R   0.955523 0.282194 0.979331 -0.108648
C57   C     C_R   0.217539 0.458279 0.477940 -0.057871
C58   C     C_R   0.542499 0.218106 0.478246 -0.078653
C59   C     C_R   0.782997 0.542363 0.478343 -0.069059
C60   C     C_R   0.458605 0.782384 0.477963 -0.082249
C61   C     C_R   0.685896 0.000904 0.995497 -0.119595
C62   C     C_R   0.000427 0.685858 0.996177 -0.133801
C63   C     C_R   0.314148 0.999102 0.995539 -0.120898
C64   C     C_R   0.999659 0.314118 0.996270 -0.131116
C65   C     C_R   0.185890 0.500900 0.495502 -0.121366
C66   C     C_R   0.500426 0.185868 0.496163 -0.133708
C67   C     C_R   0.814189 0.499088 0.495763 -0.116872
C68   C     C_R   0.498248 0.814463 0.497103 -0.125583
C69   C     C_R   0.719505 0.045009 0.010406 0.062668
C70   C     C_R   0.957520 0.718942 0.011801 0.064135
C71   C     C_R   0.280498 0.955439 0.010767 0.066147
C72   C     C_R   0.043386 0.280955 0.011348 0.067050
C73   C     C_R   0.219488 0.544919 0.510468 0.065934
C74   C     C_R   0.457371 0.218941 0.511710 0.064320
C75   C     C_R   0.780519 0.455712 0.511131 0.067373
C76   C     C_R   0.533572 0.780973 0.515922 0.046095
C77   C     C_3   0.712520 0.076513 0.038533 0.127241
C78   C     C_3   0.925248 0.711907 0.039812 0.117395
C79   C     C_3   0.287414 0.925230 0.039212 0.124135
C80   C     C_3   0.076632 0.287619 0.039178 0.116360
C81   C     C_3   0.212470 0.576163 0.538653 0.126303
C82   C     C_3   0.424943 0.211893 0.539684 0.118940
C83   C     C_3   0.787143 0.426701 0.539928 0.122748
C84   C     C_3   0.581103 0.786369 0.538902 0.120303
C85   C     C_3   0.784123 0.072963 0.040500 0.587898
C86   C     C_3   0.928584 0.783547 0.041473 0.569457
C87   C     C_3   0.215833 0.928967 0.041196 0.585740
C88   C     C_3   0.072068 0.216048 0.041242 0.572816
C89   C     C_3   0.284065 0.572580 0.540629 0.584735
C90   C     C_3   0.428252 0.283529 0.541353 0.569622
C91   C     C_3   0.715656 0.431787 0.542202 0.591028
C92   C     C_3   0.577854 0.714308 0.540184 0.561413
C93   C     C_R   0.944579 0.490217 0.101399 -0.117753
C94   C     C_R   0.458439 0.037059 0.100553 -0.134658
C95   C     C_R   0.055163 0.509907 0.101377 -0.119334
C96   C     C_R   0.541897 0.962687 0.100440 -0.130342
C97   C     C_R   0.444566 0.991031 0.601429 -0.116064
C98   C     C_R   0.958744 0.537313 0.600566 -0.136630
C99   C     C_R   0.555230 0.010246 0.601354 -0.112969
C100  C     C_R   0.041816 0.462516 0.600437 -0.129713
H1    H     H_    0.901910 0.482301 0.089867 0.220632
H2    H     H_    0.426115 0.065319 0.088799 0.230226
H3    H     H_    0.097877 0.517807 0.089829 0.220495
H4    H     H_    0.574126 0.934475 0.088598 0.230281
H5    H     H_    0.401847 0.983237 0.589918 0.217377
H6    H     H_    0.926562 0.565747 0.588820 0.230415
H7    H     H_    0.597963 0.017893 0.589785 0.217370
H8    H     H_    0.073892 0.434141 0.588589 0.230328
O17   O     O_R   0.500070 0.051830 0.958000 -0.593698
O18   O     O_R   0.948170 0.500070 0.958000 -0.575392
O19   O     O_R   0.499930 0.948170 0.958000 -0.593363
O20   O     O_R   0.051830 0.499930 0.958000 -0.580346
O21   O     O_R   0.000070 0.551830 0.458000 -0.590546
O22   O     O_R   0.448170 0.000070 0.458000 -0.579411
O23   O     O_R   0.999930 0.448170 0.458000 -0.592639
O24   O     O_R   0.551830 0.999930 0.458000 -0.579379
C101  C     C_R   0.500007 0.000026 0.944656 0.968882
C102  C     C_R   0.000032 0.500024 0.944282 0.917316
C103  C     C_R   0.999993 0.500024 0.444657 0.969043
C104  C     C_R   0.500034 0.000015 0.444281 0.917786
O25   O     O_R   0.591650 0.051830 0.999920 -0.566522
O26   O     O_R   0.948170 0.591650 0.999920 -0.576303
O27   O     O_R   0.408350 0.948170 0.999920 -0.566072
O28   O     O_R   0.051830 0.408350 0.999920 -0.580052
O29   O     O_R   0.091650 0.551830 0.499920 -0.566513
O30   O     O_R   0.448170 0.091650 0.499920 -0.576001
O31   O     O_R   0.908350 0.448170 0.499920 -0.568269
O32   O     O_R   0.551830 0.908350 0.499920 -0.564661
O33   O     O_R   0.591650 0.948400 0.999950 -0.627235
O34   O     O_R   0.051600 0.591650 0.999950 -0.613973
O35   O     O_R   0.408350 0.051600 0.999950 -0.626104
O36   O     O_R   0.948400 0.408350 0.999950 -0.607132
O37   O     O_R   0.091650 0.448400 0.499950 -0.627296
O38   O     O_R   0.551600 0.091650 0.499950 -0.615490
O39   O     O_R   0.908350 0.551600 0.499950 -0.618962
O40   O     O_R   0.448400 0.908350 0.499950 -0.623980
C105  C     C_R   0.619997 0.000302 0.998384 0.875214
C106  C     C_R   0.000077 0.620012 0.998520 0.875941
C107  C     C_R   0.380019 0.999703 0.998395 0.873969
C108  C     C_R   0.999926 0.379949 0.998824 0.877580
C109  C     C_R   0.119994 0.500301 0.498381 0.874249
C110  C     C_R   0.500077 0.120014 0.498511 0.875677
C111  C     C_R   0.879994 0.499711 0.498755 0.871496
C112  C     C_R   0.499835 0.880088 0.498686 0.877321
Zn5   Zn    Zn3+2 0.500040 0.069180 0.999920 1.147363
Zn6   Zn    Zn3+2 0.930820 0.500040 0.999920 1.169106
Zn7   Zn    Zn3+2 0.499960 0.930820 0.999920 1.147016
Zn8   Zn    Zn3+2 0.069180 0.499960 0.999920 1.156253
Zn9   Zn    Zn3+2 0.000040 0.569180 0.499920 1.158373
Zn10  Zn    Zn3+2 0.430820 0.000040 0.499920 1.154119
Zn11  Zn    Zn3+2 0.999960 0.430820 0.499920 1.146029
Zn12  Zn    Zn3+2 0.569180 0.999960 0.499920 1.162201
O41   O     O_R   0.500010 0.051830 0.041840 -0.591680
O42   O     O_R   0.948170 0.500010 0.041840 -0.599640
O43   O     O_R   0.499990 0.948170 0.041840 -0.591978
O44   O     O_R   0.051830 0.499990 0.041840 -0.600387
O45   O     O_R   0.000010 0.551830 0.541840 -0.592099
O46   O     O_R   0.448170 0.000010 0.541840 -0.605092
O47   O     O_R   0.999990 0.448170 0.541840 -0.592926
O48   O     O_R   0.551830 0.999990 0.541840 -0.597531
C113  C     C_R   0.500003 0.999973 0.055142 0.886756
C114  C     C_R   0.999969 0.500007 0.055370 0.934321
C115  C     C_R   0.000027 0.499975 0.555143 0.882809
C116  C     C_R   0.499970 0.000165 0.555370 0.950087
C117  C     C_R   0.013966 0.446953 0.190217 0.549353
C118  C     C_R   0.479156 0.948847 0.189310 0.547670
C119  C     C_R   0.985504 0.553195 0.190191 0.549236
C120  C     C_R   0.521985 0.050638 0.189226 0.547887
C121  C     C_R   0.514131 0.947661 0.690192 0.549808
C122  C     C_R   0.979184 0.448979 0.689318 0.547737
C123  C     C_R   0.485781 0.053932 0.690223 0.548572
C124  C     C_R   0.022304 0.550649 0.689232 0.547741
N1    N     N_R   0.999741 0.500079 0.176318 -0.397987
N2    N     N_R   0.500509 0.999755 0.175335 -0.395995
N3    N     N_R   0.499922 0.000826 0.676320 -0.397993
N4    N     N_R   0.000698 0.499818 0.675340 -0.395936
C125  C     C_R   0.983680 0.554661 0.220125 -0.146098
C126  C     C_R   0.518274 0.053991 0.219006 -0.144592
C127  C     C_R   0.015792 0.445474 0.220150 -0.146260
C128  C     C_R   0.483058 0.945472 0.219082 -0.144419
C129  C     C_R   0.483969 0.055320 0.720158 -0.145826
C130  C     C_R   0.018519 0.554049 0.719008 -0.144466
C131  C     C_R   0.516113 0.946146 0.720121 -0.146819
C132  C     C_R   0.983047 0.445613 0.719091 -0.144550
C133  C     C_R   0.999756 0.500070 0.235187 -0.090091
C134  C     C_R   0.500673 0.999735 0.234031 -0.088022
C135  C     C_R   0.500065 0.000695 0.735189 -0.090009
C136  C     C_R   0.000753 0.499851 0.734036 -0.088119
C137  C     C_R   0.966716 0.608560 0.235343 0.366833
C138  C     C_R   0.531813 0.109103 0.234101 0.365178
C139  C     C_R   0.032734 0.391561 0.235393 0.366861
C140  C     C_R   0.469671 0.890333 0.234242 0.365162
C141  C     C_R   0.466994 0.109172 0.735408 0.366887
C142  C     C_R   0.032127 0.609152 0.734097 0.365133
C143  C     C_R   0.533222 0.892242 0.735328 0.366616
C144  C     C_R   0.969522 0.390514 0.734255 0.365233
C145  C     C_R   0.466629 0.108950 0.765132 0.363199
C146  C     C_R   0.029264 0.609916 0.763780 0.367121
C147  C     C_R   0.533673 0.892306 0.765051 0.363528
C148  C     C_R   0.972218 0.389839 0.763940 0.367225
C149  C     C_R   0.966365 0.608425 0.265067 0.363303
C150  C     C_R   0.529054 0.109821 0.263786 0.367060
C151  C     C_R   0.033177 0.391711 0.265116 0.363245
C152  C     C_R   0.472418 0.889637 0.263925 0.367038
C153  C     C_R   0.482545 0.054670 0.780326 -0.172162
C154  C     C_R   0.012767 0.555599 0.778924 -0.171658
C155  C     C_R   0.517713 0.946481 0.780284 -0.172121
C156  C     C_R   0.988485 0.444244 0.779010 -0.170612
C157  C     C_R   0.982284 0.554189 0.280293 -0.171784
C158  C     C_R   0.512706 0.055455 0.278927 -0.171252
C159  C     C_R   0.017361 0.445972 0.280315 -0.172249
C160  C     C_R   0.488605 0.944059 0.279000 -0.171789
C161  C     C_R   0.500110 0.000616 0.765252 -0.094243
C162  C     C_R   0.000675 0.499896 0.763976 -0.099373
C163  C     C_R   0.999799 0.500077 0.265251 -0.094229
C164  C     C_R   0.500668 0.999748 0.263972 -0.098969
C165  C     C_R   0.481384 0.052151 0.810254 0.692404
C166  C     C_R   0.007383 0.554663 0.808689 0.694867
C167  C     C_R   0.518866 0.948813 0.810212 0.692342
C168  C     C_R   0.993556 0.445318 0.808779 0.693984
C169  C     C_R   0.981176 0.551772 0.310223 0.691872
C170  C     C_R   0.507406 0.054479 0.308694 0.694057
C171  C     C_R   0.018600 0.448414 0.310240 0.692870
C172  C     C_R   0.493705 0.945119 0.308770 0.694612
N5    N     N_R   0.500117 0.000436 0.824132 -0.329491
N6    N     N_R   0.000395 0.500023 0.822690 -0.328908
N7    N     N_R   0.999912 0.500096 0.324132 -0.329453
N8    N     N_R   0.500500 0.999820 0.322687 -0.329316
O49   O     O_2   0.026009 0.396219 0.174680 -0.443707
O50   O     O_2   0.454205 0.902327 0.174068 -0.444718
O51   O     O_2   0.973475 0.603940 0.174628 -0.444548
O52   O     O_2   0.546826 0.097170 0.173893 -0.444722
O53   O     O_2   0.525975 0.896911 0.674631 -0.442292
O54   O     O_2   0.954105 0.402522 0.674080 -0.444639
O55   O     O_2   0.473824 0.104736 0.674688 -0.444967
O56   O     O_2   0.047330 0.597089 0.673901 -0.445097
O57   O     O_2   0.461547 0.100352 0.825792 -0.420019
O58   O     O_2   0.008583 0.607370 0.823881 -0.421260
O59   O     O_2   0.538683 0.900511 0.825710 -0.420003
O60   O     O_2   0.992185 0.392685 0.824068 -0.425541
O61   O     O_2   0.961399 0.600038 0.325736 -0.421158
O62   O     O_2   0.508595 0.107169 0.323898 -0.421867
O63   O     O_2   0.038461 0.400167 0.325763 -0.419687
O64   O     O_2   0.492392 0.892479 0.324054 -0.419451
C173  C     C_R   0.449752 0.974392 0.869290 0.388217
C174  C     C_R   0.945002 0.488988 0.867753 0.374015
C175  C     C_R   0.550418 0.026126 0.869275 0.388097
C176  C     C_R   0.055472 0.511207 0.867757 0.375063
C177  C     C_R   0.949577 0.474273 0.369322 0.387348
C178  C     C_R   0.445071 0.988847 0.367740 0.376210
C179  C     C_R   0.050301 0.525894 0.369243 0.388111
C180  C     C_R   0.555553 0.010988 0.367759 0.376262
C181  C     C_R   0.449755 0.973935 0.898953 0.275332
C182  C     C_R   0.944778 0.486949 0.897393 0.282616
C183  C     C_R   0.550379 0.026336 0.898938 0.275532
C184  C     C_R   0.055518 0.513238 0.897394 0.291172
C185  C     C_R   0.949606 0.473937 0.398985 0.269198
C186  C     C_R   0.444803 0.986920 0.397381 0.292483
C187  C     C_R   0.050300 0.526208 0.398907 0.275475
C188  C     C_R   0.555571 0.013083 0.397395 0.291513
C189  C     C_R   0.500048 0.000093 0.913750 -0.348280
C190  C     C_R   0.000109 0.500072 0.912755 -0.382149
C191  C     C_R   0.999960 0.500069 0.413750 -0.346909
C192  C     C_R   0.500130 0.000013 0.412752 -0.380385
C193  C     C_2   0.884964 0.478324 0.146490 0.552711
H9    H     H_    0.884075 0.476822 0.169456 0.073745
O65   O     O_2   0.836402 0.470269 0.133735 -0.486598
C194  C     C_2   0.408792 0.072035 0.145436 0.562824
H10   H     H_    0.404240 0.068628 0.168265 0.070080
O66   O     O_2   0.373250 0.105763 0.132671 -0.470300
C195  C     C_2   0.114607 0.521882 0.146442 0.551733
H11   H     H_    0.115409 0.523425 0.169405 0.073797
O67   O     O_2   0.163217 0.529917 0.133667 -0.487353
C196  C     C_2   0.591929 0.927540 0.145184 0.563812
H12   H     H_    0.596682 0.930867 0.168000 0.070157
O68   O     O_2   0.627355 0.893853 0.132323 -0.470057
C197  C     C_2   0.384972 0.979598 0.646550 0.551574
H13   H     H_    0.384117 0.978170 0.669517 0.073924
O69   O     O_2   0.336353 0.971715 0.633818 -0.488533
C198  C     C_2   0.909292 0.572520 0.645453 0.562573
H14   H     H_    0.904713 0.569109 0.668281 0.069985
O70   O     O_2   0.873918 0.606433 0.632694 -0.471407
C199  C     C_2   0.614784 0.022240 0.646386 0.549305
H15   H     H_    0.615621 0.023936 0.669347 0.074403
O71   O     O_2   0.663411 0.029984 0.633588 -0.489225
C200  C     C_2   0.091770 0.427192 0.645170 0.563571
H16   H     H_    0.096594 0.430538 0.667982 0.070146
O72   O     O_2   0.127004 0.393313 0.632304 -0.470332
Cl1   Cl    Cl    0.447360 0.179394 0.782335 -0.299187
Cl2   Cl    Cl    0.050969 0.679644 0.781125 -0.301045
Cl3   Cl    Cl    0.553142 0.821810 0.782201 -0.299190
Cl4   Cl    Cl    0.950633 0.320084 0.781372 -0.302171
Cl5   Cl    Cl    0.947101 0.678920 0.282228 -0.298546
Cl6   Cl    Cl    0.550687 0.179569 0.281133 -0.300614
Cl7   Cl    Cl    0.052395 0.321200 0.282314 -0.298824
Cl8   Cl    Cl    0.451014 0.819818 0.281350 -0.299092
Cl9   Cl    Cl    0.386515 0.943147 0.850306 -0.369327
Cl10  Cl    Cl    0.875475 0.478060 0.848516 -0.362774
Cl11  Cl    Cl    0.613691 0.057504 0.850272 -0.367906
Cl12  Cl    Cl    0.125120 0.522133 0.848532 -0.361308
Cl13  Cl    Cl    0.886288 0.443020 0.350375 -0.371565
Cl14  Cl    Cl    0.375567 0.977899 0.348488 -0.360471
Cl15  Cl    Cl    0.113579 0.557143 0.350200 -0.368795
Cl16  Cl    Cl    0.625216 0.021858 0.348539 -0.359452
Cl17  Cl    Cl    0.385705 0.942356 0.917492 -0.448835
Cl18  Cl    Cl    0.874123 0.465658 0.914037 -0.389989
Cl19  Cl    Cl    0.614451 0.057669 0.917460 -0.449387
Cl20  Cl    Cl    0.126070 0.534543 0.914032 -0.393800
Cl21  Cl    Cl    0.885500 0.442567 0.417564 -0.460554
Cl22  Cl    Cl    0.374068 0.965884 0.414014 -0.392619
Cl23  Cl    Cl    0.114420 0.557547 0.417390 -0.448515
Cl24  Cl    Cl    0.626126 0.034376 0.414035 -0.391728
C201  C     C_2   0.815696 0.896298 0.970626 0.578487
H17   H     H_    0.864819 0.898007 0.966062 0.064542
O73   O     O_2   0.789041 0.846708 0.967961 -0.457918
C202  C     C_2   0.103242 0.817154 0.969768 0.582816
H18   H     H_    0.101139 0.866097 0.965149 0.066126
O74   O     O_2   0.152891 0.791360 0.966549 -0.445032
C203  C     C_2   0.184528 0.103010 0.969931 0.578359
H19   H     H_    0.135463 0.101190 0.965304 0.065482
O75   O     O_2   0.211192 0.152548 0.967014 -0.458204
C204  C     C_2   0.907613 0.180182 0.963785 0.604016
H20   H     H_    0.885933 0.139317 0.972873 0.061433
O76   O     O_2   0.896237 0.193635 0.939219 -0.472676
C205  C     C_2   0.315683 0.396404 0.470530 0.578353
H21   H     H_    0.364808 0.398118 0.465974 0.064786
O77   O     O_2   0.289018 0.346833 0.467811 -0.457977
C206  C     C_2   0.603483 0.317194 0.469990 0.582111
H22   H     H_    0.601379 0.366121 0.465333 0.065954
O78   O     O_2   0.653196 0.291435 0.466923 -0.445805
C207  C     C_2   0.681659 0.588961 0.461864 0.608365
H23   H     H_    0.640796 0.611258 0.470381 0.072830
O79   O     O_2   0.695625 0.598269 0.437147 -0.476210
C208  C     C_2   0.400111 0.683105 0.466761 0.578369
H24   H     H_    0.402830 0.634204 0.462239 0.073197
O80   O     O_2   0.351318 0.709007 0.461604 -0.448571
C209  C     C_2   0.683976 0.925442 0.954669 0.584025
H25   H     H_    0.634252 0.919192 0.955181 0.072251
O81   O     O_2   0.711245 0.908349 0.933427 -0.464711
C210  C     C_2   0.074830 0.684875 0.954801 0.548118
H26   H     H_    0.083380 0.635762 0.955893 0.100999
O82   O     O_2   0.089402 0.711679 0.932990 -0.456111
C211  C     C_2   0.316414 0.073737 0.954344 0.584661
H27   H     H_    0.366084 0.080370 0.954983 0.071890
O83   O     O_2   0.289429 0.090096 0.932917 -0.465146
C212  C     C_2   0.912115 0.317777 0.961191 0.616244
H28   H     H_    0.928615 0.358432 0.949939 0.058741
O84   O     O_2   0.857320 0.303901 0.959726 -0.436860
C213  C     C_2   0.183957 0.425592 0.454618 0.584465
H29   H     H_    0.134241 0.419271 0.455151 0.072172
O85   O     O_2   0.211202 0.408640 0.433346 -0.465319
C214  C     C_2   0.575162 0.184941 0.454903 0.547938
H30   H     H_    0.583516 0.135787 0.455944 0.100660
O86   O     O_2   0.590105 0.211831 0.433167 -0.455858
C215  C     C_2   0.819412 0.585078 0.459915 0.610029
H31   H     H_    0.860577 0.568543 0.449185 0.061420
O87   O     O_2   0.805679 0.639511 0.457671 -0.460684
C216  C     C_2   0.429695 0.816029 0.453763 0.547038
H32   H     H_    0.418610 0.864586 0.455228 0.101136
O88   O     O_2   0.420839 0.790321 0.431093 -0.455944
Cl25  Cl    Cl    0.681040 0.152267 0.034044 -0.422397
Cl26  Cl    Cl    0.849577 0.679256 0.035114 -0.424085
Cl27  Cl    Cl    0.318794 0.849247 0.035472 -0.417293
Cl28  Cl    Cl    0.152764 0.318739 0.033816 -0.424844
Cl29  Cl    Cl    0.181009 0.651963 0.534295 -0.419497
Cl30  Cl    Cl    0.349305 0.179228 0.534894 -0.425407
Cl31  Cl    Cl    0.816995 0.349955 0.536867 -0.417819
Cl32  Cl    Cl    0.652323 0.818411 0.525922 -0.427637
C217  C     C_2   0.676978 0.039775 0.060572 0.440906
H33   H     H_    0.655452 0.063690 0.078176 0.128665
O89   O     O_2   0.673609 0.983442 0.059489 -0.535748
C218  C     C_2   0.960864 0.678101 0.062612 0.473116
H34   H     H_    0.938669 0.669277 0.082860 0.137475
O90   O     O_2   0.014268 0.661539 0.059043 -0.542727
C219  C     C_2   0.323027 0.962893 0.060833 0.436765
H35   H     H_    0.344929 0.939690 0.078540 0.127649
O91   O     O_2   0.326044 0.019201 0.059304 -0.532640
C220  C     C_2   0.042372 0.322478 0.062092 0.471342
H36   H     H_    0.066052 0.333068 0.081776 0.136749
O92   O     O_2   0.988366 0.337744 0.059295 -0.542505
C221  C     C_2   0.176888 0.539239 0.560614 0.438670
H37   H     H_    0.155272 0.563013 0.578236 0.128479
O93   O     O_2   0.173584 0.482911 0.559450 -0.535067
C222  C     C_2   0.460438 0.178086 0.562523 0.470519
H38   H     H_    0.438091 0.169147 0.582727 0.137032
O94   O     O_2   0.513911 0.161661 0.559040 -0.544736
C223  C     C_2   0.823913 0.464674 0.561030 0.430714
H39   H     H_    0.847496 0.441682 0.578335 0.126770
O95   O     O_2   0.826071 0.521021 0.559531 -0.530290
C224  C     C_2   0.558990 0.819581 0.565118 0.503861
H40   H     H_    0.587680 0.819343 0.583971 0.138498
O96   O     O_2   0.509617 0.846811 0.565550 -0.559043
Cl33  Cl    Cl    0.825526 0.144797 0.038857 -0.428198
Cl34  Cl    Cl    0.856530 0.823768 0.039745 -0.403442
Cl35  Cl    Cl    0.174371 0.857114 0.040436 -0.408324
Cl36  Cl    Cl    0.143186 0.174340 0.038899 -0.407434
Cl37  Cl    Cl    0.325468 0.644423 0.539148 -0.426144
Cl38  Cl    Cl    0.356197 0.323732 0.539546 -0.403696
Cl39  Cl    Cl    0.672772 0.360736 0.542001 -0.408911
Cl40  Cl    Cl    0.645237 0.673448 0.528801 -0.461993
Cl41  Cl    Cl    0.813731 0.024043 0.068043 -0.389198
Cl42  Cl    Cl    0.977828 0.814290 0.068753 -0.406598
Cl43  Cl    Cl    0.186296 0.979266 0.068218 -0.389023
Cl44  Cl    Cl    0.023166 0.186503 0.068978 -0.401032
Cl45  Cl    Cl    0.313632 0.523386 0.568080 -0.393471
Cl46  Cl    Cl    0.477326 0.314275 0.568697 -0.406181
Cl47  Cl    Cl    0.687311 0.483811 0.568786 -0.382759
Cl48  Cl    Cl    0.545202 0.681568 0.571765 -0.413115
Cl49  Cl    Cl    0.944020 0.678064 0.218189 -0.313995
Cl50  Cl    Cl    0.548877 0.180131 0.216725 -0.321805
Cl51  Cl    Cl    0.055258 0.322006 0.218269 -0.313775
Cl52  Cl    Cl    0.452859 0.819249 0.216940 -0.321725
Cl53  Cl    Cl    0.444262 0.178710 0.718293 -0.314444
Cl54  Cl    Cl    0.049393 0.680120 0.716711 -0.322889
Cl55  Cl    Cl    0.556065 0.822848 0.718157 -0.315588
Cl56  Cl    Cl    0.952613 0.319447 0.716959 -0.322142

loop_
_geom_bond_atom_site_label_1
_geom_bond_atom_site_label_2
_geom_bond_distance
_ccdc_geom_bond_type
C209  H25   1.081534 S    
C126  C134  1.420479 A    
C153  C165  1.413736 A    
C195  H11   1.084533 S    
C182  C190  1.425350 A    
O24   C104  1.292918 A    
C19   C27   1.412181 A    
C59   C67   1.419159 A    
C199  O71   1.221286 D    
C177  Cl13  1.765364 S    
C201  H17   1.082483 S    
C121  C131  1.413648 A    
O44   C114  1.288460 A    
C175  C183  1.400063 A    
C8    C41   1.424779 S    
Zn10  O46   2.014097 S    
C90   Cl46  1.796286 S    
C167  O59   1.347325 S    
C21   C95   1.400658 A    
O9    Zn3   2.013902 S    
C137  C149  1.402930 A    
C214  H30   1.080916 S    
C42   C50   1.421101 A    
C54   C210  1.493994 S    
Zn9   O45   2.013504 S    
C120  O52   1.347670 S    
C30   C70   1.353052 A    
C50   C206  1.493864 S    
C150  Cl6   1.777734 S    
C75   C83   1.503930 S    
C124  O56   1.347672 S    
C158  C164  1.420101 A    
C187  C191  1.407835 A    
O28   C108  1.275868 A    
C46   C202  1.493957 S    
O47   C115  1.285290 A    
O1    Zn1   2.016151 S    
C17   C197  1.485350 S    
C179  C187  1.400094 A    
C169  O61   1.347324 S    
C119  N1    1.359946 A    
C174  Cl10  1.769966 S    
O8    Zn2   2.012128 S    
O26   C106  1.276012 A    
C31   C87   1.502908 S    
C53   C61   1.418710 A    
C9    C175  1.404200 A    
C10   C176  1.399024 A    
C22   C113  1.450176 S    
C155  C161  1.422849 A    
Zn6   O42   2.014097 S    
C95   H3    1.083368 S    
C35   C91   1.498744 S    
C133  C163  1.418957 A    
C56   C212  1.487881 S    
C73   C81   1.500704 S    
C204  H20   1.085639 S    
C33   C73   1.356745 A    
C13   C25   1.412201 A    
C145  Cl1   1.779058 S    
O23   C103  1.286124 A    
C11   N7    1.434569 S    
C48   C204  1.489360 S    
O39   Zn9   2.013628 S    
C199  H15   1.084537 S    
C120  C126  1.409711 A    
O34   Zn8   2.022227 S    
O12   C4    1.274880 A    
C207  O79   1.220851 D    
C200  H16   1.084242 S    
C178  Cl14  1.769979 S    
C165  N5    1.360018 A    
C60   C216  1.493317 S    
C130  C142  1.418693 A    
C5    C42   1.425938 S    
O16   Zn4   2.009754 S    
O25   C105  1.277308 A    
C7    C44   1.422608 S    
C43   C51   1.421166 A    
O21   C103  1.286244 A    
C76   C84   1.498168 S    
C142  C146  1.402410 A    
C217  H33   1.084963 S    
C17   C27   1.412216 A    
C21   C114  1.468858 S    
C18   C28   1.414932 A    
C143  Cl55  1.779093 S    
O18   C102  1.292900 A    
O38   C110  1.275723 A    
C198  H14   1.084241 S    
C141  Cl53  1.779069 S    
C33   C89   1.502531 S    
C13   C93   1.399771 A    
C29   C69   1.356636 A    
C82   C222  1.513870 S    
C169  N7    1.360020 A    
C85   Cl33  1.789751 S    
C21   C93   1.400656 A    
C202  H18   1.082234 S    
C59   C215  1.488903 S    
C215  H31   1.085284 S    
C63   C71   1.387788 A    
C78   C86   1.553353 S    
C84   C224  1.509970 S    
C153  C161  1.422816 A    
C193  O65   1.221289 D    
C68   C112  1.422155 S    
C122  C132  1.409626 A    
C184  C190  1.425341 A    
O10   C2    1.275150 A    
O40   Zn10  2.022225 S    
C206  H22   1.082285 S    
C41   C49   1.420511 A    
C119  O51   1.347257 S    
C117  O49   1.347257 S    
O4    C4    1.276115 A    
O5    C5    1.275916 A    
O3    Zn1   2.015471 S    
C60   C68   1.423359 A    
C69   C77   1.500746 S    
C79   Cl27  1.790905 S    
C123  C129  1.413747 A    
C216  H32   1.081262 S    
C81   C89   1.551193 S    
C146  C154  1.418340 A    
C139  C151  1.402920 A    
C10   N6    1.433583 S    
O35   C107  1.277559 A    
C10   C174  1.399069 A    
C18   C98   1.397162 A    
C11   C179  1.404213 A    
C138  C150  1.402387 A    
C49   C57   1.420475 A    
C207  H23   1.085233 S    
C127  C133  1.423089 A    
O42   C114  1.288510 A    
C51   C59   1.418982 A    
C221  H37   1.084965 S    
C131  C143  1.419994 A    
O29   C109  1.277297 A    
C195  O67   1.221287 D    
C156  C168  1.409664 A    
C62   C106  1.428883 S    
C15   C195  1.485353 S    
C46   C54   1.422051 A    
C160  C164  1.420180 A    
C29   C37   1.386031 A    
C34   C90   1.501960 S    
C140  Cl52  1.777698 S    
C134  C164  1.413155 A    
C32   C40   1.383929 A    
C39   C47   1.420566 A    
C6    C43   1.425302 S    
C33   C41   1.386096 A    
C22   C94   1.394627 A    
C67   C75   1.387283 A    
C36   C44   1.379912 A    
C180  Cl16  1.769993 S    
C1    C38   1.426039 S    
O43   C113  1.285219 A    
O19   Zn7   2.013507 S    
C180  C188  1.399554 A    
C89   Cl37  1.789620 S    
C197  O69   1.221285 D    
Zn11  O47   2.014185 S    
C92   Cl48  1.791699 S    
C171  O63   1.347326 S    
C104  C192  1.488104 S    
C92   Cl40  1.789499 S    
C15   C95   1.399726 A    
C210  H26   1.080922 S    
O17   C101  1.286210 A    
C85   Cl41  1.796300 S    
C26   N2    1.433966 S    
C80   C88   1.554084 S    
C177  C185  1.400080 A    
O32   C112  1.276456 A    
C82   Cl30  1.790127 S    
C78   Cl26  1.790113 S    
C222  H38   1.084906 S    
C84   Cl32  1.790121 S    
C84   C92   1.561447 S    
O39   C111  1.276777 A    
O35   Zn5   2.013628 S    
C170  N8    1.361346 A    
C194  O66   1.221346 D    
C55   C211  1.494660 S    
C158  C170  1.409599 A    
C147  Cl3   1.779071 S    
O26   Zn6   2.014968 S    
C87   Cl35  1.789582 S    
C24   C98   1.394631 A    
C19   C199  1.485360 S    
C176  C184  1.399538 A    
C170  O62   1.347794 S    
C91   Cl39  1.789730 S    
C52   C208  1.494430 S    
C117  C127  1.413718 A    
O3    C3    1.275722 A    
C24   C115  1.450278 S    
O27   Zn7   2.015643 S    
C224  H40   1.084818 S    
C88   Cl36  1.789347 S    
C173  C181  1.400069 A    
C11   C177  1.404211 A    
C220  O92   1.221229 D    
C47   C55   1.420315 A    
C149  C157  1.419767 A    
C78   C218  1.513851 S    
C135  C161  1.418932 A    
Zn7   O43   2.014185 S    
C140  C152  1.402405 A    
Zn8   O44   2.013301 S    
C13   C193  1.485340 S    
C16   C26   1.414879 A    
C118  N2    1.361118 A    
C144  C148  1.402401 A    
O36   Zn6   2.022225 S    
C16   C196  1.485690 S    
C48   C56   1.421166 A    
C132  C144  1.418618 A    
O25   Zn5   2.015643 S    
C154  C162  1.420076 A    
C14   C26   1.414928 A    
O14   C6    1.273627 A    
C77   C85   1.551309 S    
C52   C60   1.425820 A    
O31   C111  1.276740 A    
O13   C5    1.275754 A    
C57   C65   1.418646 A    
C57   C213  1.494769 S    
O8    C8    1.276163 A    
C214  O86   1.221034 D    
C20   C28   1.414904 A    
C4    C37   1.424651 S    
C223  O95   1.221762 D    
C126  C138  1.418693 A    
C123  N3    1.359943 A    
C101  C189  1.458718 S    
O48   C116  1.288476 A    
C2    C39   1.425052 S    
C142  Cl54  1.777677 S    
C93   H1    1.083368 S    
C150  C158  1.418348 A    
C208  H24   1.081521 S    
O22   Zn10  2.013299 S    
C159  C163  1.422822 A    
C64   C72   1.386295 A    
C71   C79   1.500709 S    
C86   Cl34  1.789294 S    
C97   H5    1.083357 S    
C23   C99   1.400675 A    
C213  O85   1.220966 D    
C99   H7    1.083359 S    
C168  N6    1.361395 A    
C68   C76   1.379460 A    
C182  Cl18  1.773344 S    
C65   C109  1.429115 S    
C125  C133  1.423087 A    
O33   Zn7   2.013632 S    
C56   C64   1.420873 A    
C64   C108  1.429555 S    
C181  Cl17  1.769044 S    
O30   C110  1.276075 A    
O11   C3    1.274973 A    
C12   C180  1.398964 A    
C124  N4    1.361157 A    
C196  H12   1.084245 S    
C176  Cl12  1.770009 S    
C204  O76   1.220794 D    
C130  C136  1.420441 A    
O2    C2    1.276136 A    
C24   C100  1.394697 A    
O20   C102  1.292932 A    
O6    C6    1.277208 A    
C185  Cl21  1.769194 S    
C20   C200  1.485686 S    
C148  C156  1.418408 A    
C83   C91   1.551751 S    
C12   N8    1.433550 S    
O21   Zn9   2.014185 S    
C212  H28   1.085147 S    
O13   Zn4   2.013902 S    
C31   C71   1.357115 A    
C183  Cl19  1.769085 S    
O24   Zn12  2.014097 S    
C151  C159  1.419749 A    
C137  Cl49  1.779085 S    
C200  O72   1.221345 D    
C211  H27   1.081580 S    
C172  O64   1.347773 S    
O23   Zn11  2.013507 S    
C205  O77   1.221098 D    
C61   C69   1.387894 A    
Zn12  O48   2.013301 S    
O41   C113  1.285236 A    
C209  O81   1.220964 D    
O5    Zn2   2.016151 S    
C14   C194  1.485685 S    
C118  C128  1.409660 A    
C54   C62   1.419880 A    
C198  O70   1.221346 D    
C201  O73   1.221095 D    
C25   N1    1.436016 S    
O29   Zn9   2.015643 S    
C61   C105  1.429209 S    
C30   C38   1.385570 A    
O20   Zn8   2.014097 S    
C12   C178  1.399008 A    
C202  O74   1.221100 D    
C148  Cl4   1.777707 S    
C187  Cl23  1.769065 S    
C188  Cl24  1.773225 S    
C29   C85   1.502478 S    
C34   C42   1.385566 A    
O45   C115  1.285225 A    
C123  O55   1.347253 S    
C172  N8    1.361358 A    
O10   Zn3   2.010549 S    
C157  C163  1.422832 A    
C47   C203  1.493720 S    
C193  H9    1.084531 S    
O19   C101  1.286167 A    
C143  C147  1.402902 A    
C157  C169  1.413745 A    
C121  N3    1.359966 A    
C203  H19   1.082383 S    
C179  Cl15  1.765339 S    
C102  C190  1.488005 S    
C206  O78   1.221097 D    
C129  C135  1.423086 A    
C168  O60   1.347778 S    
C129  C141  1.419996 A    
C23   C97   1.400669 A    
C86   Cl42  1.796283 S    
C218  O90   1.221165 D    
C119  C125  1.413721 A    
C171  N7    1.360010 A    
C165  O57   1.347324 S    
C82   C90   1.553269 S    
C51   C207  1.489880 S    
C186  Cl22  1.773174 S    
C216  O88   1.221089 D    
C14   C94   1.397215 A    
C36   C76   1.337391 A    
O34   C106  1.275688 A    
C160  C172  1.409708 A    
O1    C1    1.276036 A    
C146  Cl2   1.777716 S    
C37   C45   1.420475 A    
C218  H34   1.084904 S    
C219  H35   1.084975 S    
C100  H8    1.083688 S    
O27   C107  1.277148 A    
C83   C223  1.514090 S    
C79   C87   1.550914 S    
C62   C70   1.386471 A    
O17   Zn5   2.014185 S    
C167  N5    1.360011 A    
C181  C189  1.407846 A    
C178  C186  1.399611 A    
O12   Zn3   2.009754 S    
C53   C209  1.494804 S    
C55   C63   1.418434 A    
C27   N3    1.436008 S    
C174  C182  1.399624 A    
C49   C205  1.493650 S    
C89   Cl45  1.796337 S    
C20   C100  1.397212 A    
C87   Cl43  1.796476 S    
O15   Zn4   2.014577 S    
C118  O50   1.347682 S    
C45   C201  1.493621 S    
O4    Zn1   2.012128 S    
C40   C48   1.420547 A    
C15   C25   1.412196 A    
O37   C109  1.277609 A    
C217  O89   1.221709 D    
C184  Cl20  1.773214 S    
C147  C155  1.419781 A    
O33   C105  1.277650 A    
C138  Cl50  1.777694 S    
C9    N5    1.434553 S    
C67   C111  1.427975 S    
C122  O54   1.347688 S    
O36   C108  1.275426 A    
C17   C97   1.399782 A    
C154  C166  1.409603 A    
C50   C58   1.422016 A    
C197  H13   1.084531 S    
C152  Cl8   1.777721 S    
C19   C99   1.399693 A    
C210  O82   1.221038 D    
C128  C140  1.418634 A    
O28   Zn8   2.014968 S    
C173  Cl9   1.765356 S    
C222  O94   1.221170 D    
C144  Cl56  1.777683 S    
C175  Cl11  1.765351 S    
C152  C160  1.418417 A    
O22   C104  1.292975 A    
O7    C7    1.275939 A    
Zn5   O41   2.013504 S    
C23   C116  1.468989 S    
C45   C53   1.420504 A    
C121  O53   1.347271 S    
O18   Zn6   2.013299 S    
C66   C74   1.386595 A    
C80   Cl28  1.790122 S    
C38   C46   1.421272 A    
C58   C214  1.494088 S    
C18   C198  1.485705 S    
C223  H39   1.085004 S    
C66   C110  1.429057 S    
C30   C86   1.501913 S    
C224  O96   1.221418 D    
C122  N4    1.361144 A    
C58   C66   1.419957 A    
O15   C7    1.274205 A    
C185  C191  1.407889 A    
C155  C167  1.413715 A    
O16   C8    1.274911 A    
C186  C192  1.425371 A    
C28   N4    1.433986 S    
C211  O83   1.220975 D    
C166  N6    1.361369 A    
C65   C73   1.387829 A    
C183  C189  1.407852 A    
C221  O93   1.221715 D    
O31   Zn11  2.015643 S    
C91   Cl47  1.795969 S    
C215  O87   1.220868 D    
C90   Cl38  1.789288 S    
C151  Cl7   1.779077 S    
C35   C75   1.355318 A    
C141  C145  1.402939 A    
C139  Cl51  1.779089 S    
C83   Cl31  1.790931 S    
C16   C96   1.397188 A    
C35   C43   1.384990 A    
C81   Cl29  1.790882 S    
C159  C171  1.413726 A    
C77   C217  1.513902 S    
C81   C221  1.513932 S    
O37   Zn11  2.013632 S    
O6    Zn2   2.011328 S    
O38   Zn12  2.022227 S    
O11   Zn3   2.014577 S    
O40   C112  1.272520 A    
C77   Cl25  1.790861 S    
C131  C135  1.423039 A    
O9    C1    1.275719 A    
C203  O75   1.221102 D    
C208  O80   1.221069 D    
O30   Zn10  2.014968 S    
C31   C39   1.386370 A    
C120  N2    1.361126 A    
C136  C162  1.413103 A    
C132  C136  1.420379 A    
C72   C80   1.504156 S    
C213  H29   1.081547 S    
C22   C96   1.394672 A    
C128  C134  1.420407 A    
C156  C162  1.420138 A    
C188  C192  1.425399 A    
C117  N1    1.359952 A    
C9    C173  1.404210 A    
C3    C40   1.425390 S    
C103  C191  1.458720 S    
C194  H10   1.084244 S    
C88   Cl44  1.795644 S    
C196  O68   1.221345 D    
C219  O91   1.221734 D    
O2    Zn1   2.011328 S    
C79   C219  1.513979 S    
O32   Zn12  2.014968 S    
O7    Zn2   2.015471 S    
C36   C92   1.494283 S    
C166  O58   1.347792 S    
C127  C139  1.420036 A    
C44   C52   1.423213 A    
C212  O84   1.220851 D    
C34   C74   1.353203 A    
C125  C137  1.420020 A    
O14   Zn4   2.010549 S    
C94   H2    1.083655 S    
C63   C107  1.428786 S    
C32   C88   1.497921 S    
C145  C153  1.419778 A    
C124  C130  1.409700 A    
C220  H36   1.084912 S    
C80   C220  1.514080 S    
C98   H6    1.083614 S    
C205  H21   1.082463 S    
C96   H4    1.083680 S    
C70   C78   1.500952 S    
C32   C72   1.351123 A    
O46   C116  1.288525 A    
C74   C82   1.500995 S    
C149  Cl5   1.779072 S    
