data_mof_unit_60733.cif
_audit_creation_date              2012-12-10T20:52:42-0500
_audit_creation_method            fapswitch 2.2
_symmetry_space_group_name_H-M    P1
_symmetry_Int_Tables_number       1
_space_group_crystal_system       triclinic
_cell_length_a                    8.598664
_cell_length_b                    15.862091
_cell_length_c                    15.102196
_cell_angle_alpha                 90.076043
_cell_angle_beta                  98.742738
_cell_angle_gamma                 89.957352
_cell_volume                      2035.89494213

loop_
_atom_site_label
_atom_site_type_symbol
_atom_type_description
_atom_site_fract_x
_atom_site_fract_y
_atom_site_fract_z
_atom_type_partial_charge
Br1   Br    Br    0.212975 0.105840 0.577892 -0.354127
Br2   Br    Br    0.787025 0.894160 0.422108 -0.354127
Br3   Br    Br    0.212448 0.894988 0.577805 -0.337825
Br4   Br    Br    0.787551 0.105011 0.422195 -0.337825
Br5   Br    Br    0.188968 0.430554 0.087155 -0.510747
Br6   Br    Br    0.811032 0.569446 0.912845 -0.510747
C1    C     C_R   0.500081 0.338980 0.499939 0.899658
C2    C     C_R   0.799508 0.499983 0.523314 0.974584
C3    C     C_2   0.035701 0.500100 0.463932 -0.347605
C4    C     C_2   0.964299 0.499900 0.536068 -0.347605
C5    C     C_R   0.378163 0.956213 0.532952 0.239229
C6    C     C_R   0.621837 0.043787 0.467048 0.239229
C7    C     C_R   0.499863 0.913016 0.500047 -0.142142
C8    C     C_R   0.500137 0.086983 0.499953 -0.142141
C9    C     C_R   0.621678 0.955867 0.467074 0.237505
C10   C     C_R   0.378322 0.044133 0.532926 0.237504
C11   C     C_1   0.499790 0.824034 0.500127 0.141118
C12   C     C_R   0.499919 0.661020 0.500061 0.899657
C13   C     C_1   0.500210 0.175966 0.499873 0.141117
C14   C     C_1   0.500175 0.250731 0.499857 -0.097474
C15   C     C_1   0.499825 0.749269 0.500143 -0.097475
C16   C     C_R   0.364547 0.472870 0.941399 0.071860
C17   C     C_R   0.635453 0.527130 0.058601 0.071860
C18   C     C_3   0.218696 0.444068 0.879011 -0.356897
C19   C     C_3   0.228554 0.350442 0.857308 -0.742321
C20   C     C_3   0.781304 0.555932 0.120989 -0.356897
C21   C     C_3   0.771446 0.649558 0.142692 -0.742321
C22   C     C_R   0.498594 0.500488 0.904952 -0.095916
C23   C     C_R   0.501406 0.499512 0.095048 -0.095916
C24   C     C_R   0.632584 0.528117 0.963873 0.250858
C25   C     C_R   0.367416 0.471883 0.036127 0.250858
C26   C     C_1   0.499622 0.500245 0.806939 0.192033
C27   C     C_1   0.500378 0.499755 0.193061 0.192034
C28   C     C_R   0.200492 0.500016 0.476686 0.974583
H1    H     H_    0.973600 0.500356 0.395537 0.187351
H2    H     H_    0.879330 0.669036 0.188115 0.259718
H3    H     H_    0.796944 0.519203 0.184296 0.204471
H4    H     H_    0.889761 0.543769 0.091696 0.275624
H5    H     H_    0.026400 0.499644 0.604463 0.187351
H6    H     H_    0.332200 0.337755 0.823475 0.253951
H7    H     H_    0.238342 0.312400 0.919599 0.289200
H8    H     H_    0.120670 0.330964 0.811885 0.259718
H9    H     H_    0.110239 0.456230 0.908304 0.275624
H10   H     H_    0.203056 0.480797 0.815704 0.204471
H11   H     H_    0.761658 0.687600 0.080401 0.289200
H12   H     H_    0.667800 0.662245 0.176525 0.253951
N1    N     N_1   0.499960 0.500020 0.270540 -0.081551
N2    N     N_1   0.500040 0.499980 0.729460 -0.081550
O1    O     O_R   0.500000 0.378020 0.573650 -0.612533
O2    O     O_R   0.500000 0.621980 0.426350 -0.612532
O3    O     O_R   0.500070 0.378020 0.426320 -0.595502
O4    O     O_R   0.499930 0.621980 0.573680 -0.595502
O5    O     O_R   0.271720 0.500000 0.556430 -0.618914
O6    O     O_R   0.728280 0.500000 0.443570 -0.618914
O7    O     O_R   0.271790 0.500000 0.409110 -0.605968
O8    O     O_R   0.728210 0.500000 0.590890 -0.605968
Zn1   Zn    Zn3+2 0.499950 0.500000 0.598370 1.022362
Zn2   Zn    Zn3+2 0.500050 0.500000 0.401630 1.022362

loop_
_geom_bond_atom_site_label_1
_geom_bond_atom_site_label_2
_ccdc_geom_bond_type
C19   H8    S    
C20   H3    S    
C21   H2    S    
Br4   C6    S    
C12   C15   S    
C26   N2    T    
C3    C4    D    
C13   C14   T    
C6    C9    A    
C7    C11   S    
C21   H11   S    
C22   C24   A    
C12   O4    A    
C28   O7    A    
C23   C25   A    
O3    Zn2   S    
C16   C22   A    
C18   C19   S    
N1    Zn2   S    
Br2   C9    S    
C5    C7    A    
C2    O8    A    
C20   C21   S    
C27   N1    T    
C12   O2    A    
C17   C23   A    
C21   H12   S    
Br6   C24   S    
C6    C8    A    
C8    C10   A    
C7    C9    A    
C19   H6    S    
C3    C28   S    
C18   H10   S    
C16   C18   S    
O7    Zn2   S    
C5    C10   A    
Br3   C5    S    
C16   C25   A    
C1    O3    A    
O4    Zn1   S    
O2    Zn2   S    
C17   C24   A    
C23   C27   S    
N2    Zn1   S    
O1    Zn1   S    
O8    Zn1   S    
C1    O1    A    
C28   O5    A    
C2    C4    S    
C1    C14   S    
O6    Zn2   S    
C17   C20   S    
C2    O6    A    
Br1   C10   S    
C18   H9    S    
O5    Zn1   S    
C19   H7    S    
C3    H1    S    
C8    C13   S    
C22   C26   S    
C20   H4    S    
C4    H5    S    
Br5   C25   S    
C11   C15   T    
