data_mof_unit_22217.cif
_audit_creation_date              2013-03-05T15:50:32-0500
_audit_creation_method            fapswitch 2.2
_symmetry_space_group_name_H-M    P1
_symmetry_Int_Tables_number       1
_space_group_crystal_system       triclinic
_cell_length_a                    19.23105
_cell_length_b                    7.234074
_cell_length_c                    17.862214
_cell_angle_alpha                 90.161826
_cell_angle_beta                  108.651865
_cell_angle_gamma                 89.740005
_cell_volume                      2354.4313557

loop_
_atom_site_label
_atom_site_type_symbol
_atom_site_description
_atom_site_fract_x
_atom_site_fract_y
_atom_site_fract_z
_atom_type_partial_charge
O1    O     O_R   0.562310 0.505770 0.439670 -0.591489
O2    O     O_R   0.437690 0.005770 0.560330 -0.605324
O3    O     O_R   0.411650 0.169150 0.405330 -0.545976
O4    O     O_R   0.588350 0.669150 0.594670 -0.533683
C1    C     C_R   0.385298 0.343005 0.382321 0.941381
C2    C     C_R   0.616953 0.842910 0.614741 1.039449
O5    O     O_R   0.560140 0.175610 0.430010 -0.551580
O6    O     O_R   0.439860 0.675610 0.569990 -0.567114
O7    O     O_R   0.587240 0.012100 0.585200 -0.587507
O8    O     O_R   0.412760 0.512100 0.414800 -0.566396
C3    C     C_R   0.580166 0.344369 0.414550 1.007873
C4    C     C_R   0.420484 0.845181 0.586084 0.982447
O9    O     O_3   0.508720 0.341420 0.550890 -0.266682
O10   O     O_3   0.491280 0.841420 0.449110 -0.251971
V1    V     V_3+5 0.498380 0.063930 0.490560 1.314857
V2    V     V_3+5 0.501620 0.563930 0.509440 1.325121
C5    C     C_R   0.183158 0.770491 0.876778 0.326454
C6    C     C_R   0.817722 0.272145 0.123495 0.330361
C7    C     C_R   0.129817 0.914137 0.863511 -0.427683
C8    C     C_R   0.870528 0.415446 0.136828 -0.422081
C9    C     C_R   0.123198 0.039716 0.800375 0.322630
C10   C     C_R   0.876320 0.544016 0.199097 0.314300
C11   C     C_R   0.174194 0.033287 0.757852 -0.009007
C12   C     C_R   0.828444 0.530756 0.245426 -0.026083
C13   C     C_R   0.227876 0.891990 0.773303 0.010568
C14   C     C_R   0.774918 0.389413 0.229504 0.019345
C15   C     C_R   0.231920 0.759807 0.832276 -0.018030
C16   C     C_R   0.769965 0.259900 0.168920 -0.010991
C17   C     C_R   0.172320 0.165624 0.699368 -0.078397
C18   C     C_R   0.833839 0.652372 0.309056 -0.093451
C19   C     C_R   0.221029 0.155237 0.655865 -0.163354
C20   C     C_R   0.785641 0.639941 0.353045 -0.159942
C21   C     C_R   0.273102 0.012720 0.669526 0.126017
C22   C     C_R   0.731418 0.503637 0.336097 0.120819
C23   C     C_R   0.277014 0.880787 0.728574 0.019772
C24   C     C_R   0.726305 0.376272 0.274836 0.019421
C25   C     C_R   0.330165 0.738065 0.743210 0.046284
C26   C     C_R   0.672296 0.236472 0.258450 0.041191
C27   C     C_R   0.333931 0.609075 0.802819 -0.123519
C28   C     C_R   0.668168 0.109563 0.197733 -0.118470
C29   C     C_R   0.285972 0.620152 0.846782 -0.120047
C30   C     C_R   0.716111 0.120876 0.153832 -0.113671
C31   C     C_R   0.320869 0.999800 0.624613 -0.173617
C32   C     C_R   0.683004 0.491647 0.380296 -0.160095
C33   C     C_R   0.373628 0.857572 0.637968 -0.307650
C34   C     C_R   0.628466 0.354584 0.364140 -0.310344
C35   C     C_R   0.379812 0.728771 0.699723 0.478318
C36   C     C_R   0.622116 0.228122 0.301301 0.480609
H1    H     H_    0.133622 0.279481 0.687297 0.186363
H2    H     H_    0.875522 0.757737 0.326366 0.189870
H3    H     H_    0.217798 0.259046 0.611243 0.184077
H4    H     H_    0.791105 0.737174 0.400861 0.161011
H5    H     H_    0.316090 0.099547 0.577991 0.177728
H6    H     H_    0.688438 0.588343 0.428353 0.194742
H7    H     H_    0.374250 0.498663 0.816151 0.201901
H8    H     H_    0.627577 0.000565 0.183497 0.202628
H9    H     H_    0.292411 0.518511 0.892823 0.199003
H10   H     H_    0.709808 0.020152 0.107260 0.195550
C37   C     C_3   0.778096 0.708787 0.813564 -0.050013
C38   C     C_3   0.223053 0.206236 0.182798 -0.037912
H11   H     H_    0.823293 0.613628 0.816287 0.156630
H12   H     H_    0.180984 0.111668 0.189400 0.151771
C39   C     C_3   0.708969 0.668260 0.737214 0.435534
C40   C     C_3   0.299612 0.174921 0.251087 0.476295
C41   C     C_3   0.831735 0.931426 0.731621 0.677091
C42   C     C_3   0.172940 0.428281 0.268630 0.776361
C43   C     C_3   0.752643 0.049030 0.810752 -0.262323
C44   C     C_3   0.248462 0.543612 0.184540 -0.272837
C45   C     C_3   0.812755 0.906524 0.811391 -0.431932
C46   C     C_3   0.188485 0.404502 0.186500 -0.498246
H13   H     H_    0.774602 0.191719 0.814907 0.230245
H14   H     H_    0.226159 0.686593 0.177153 0.239468
H15   H     H_    0.733884 0.033780 0.862559 0.291044
H16   H     H_    0.267910 0.519112 0.133623 0.294177
C47   C     C_3   0.691263 0.853251 0.683642 -0.519354
C48   C     C_3   0.313075 0.349793 0.310898 -0.606423
C49   C     C_3   0.760412 0.892539 0.653845 0.473893
C50   C     C_3   0.243256 0.369268 0.341804 0.451845
C51   C     C_3   0.685886 0.028148 0.735319 0.283244
C52   C     C_3   0.314401 0.528036 0.261205 0.336984
H17   H     H_    0.686412 0.152517 0.699592 0.184009
H18   H     H_    0.306604 0.640941 0.296369 0.221184
O11   O     O_R   0.087220 0.271820 0.085230 -0.616699
O12   O     O_R   0.912780 0.771820 0.914770 -0.614943
O13   O     O_R   0.939860 0.595540 0.069990 -0.544167
O14   O     O_R   0.060140 0.095540 0.930010 -0.535998
C53   C     C_R   0.919669 0.426733 0.085946 1.071757
C54   C     C_R   0.079870 0.926018 0.913527 1.053993
O15   O     O_R   0.088340 0.601930 0.094680 -0.552933
O16   O     O_R   0.911660 0.101930 0.905320 -0.560791
O17   O     O_R   0.062310 0.765410 0.939660 -0.567680
O18   O     O_R   0.937690 0.265410 0.060340 -0.572798
C55   C     C_R   0.116420 0.431065 0.116610 1.160788
C56   C     C_R   0.883529 0.931503 0.883312 1.142511
O19   O     O_3   0.991270 0.429630 0.949130 -0.268113
O20   O     O_3   0.008730 0.929630 0.050870 -0.273657
V3    V     V_3+5 0.001620 0.707150 0.009440 1.372549
V4    V     V_3+5 0.998380 0.207150 0.990560 1.367906
N1    N     N_R   0.186664 0.630275 0.934012 0.247505
O21   O     O_R   0.208454 0.670818 0.008634 -0.365426
O22   O     O_R   0.170034 0.460693 0.911462 -0.336052
N2    N     N_R   0.811237 0.139533 0.062195 0.242469
O23   O     O_R   0.786370 0.189815 0.988769 -0.370449
O24   O     O_R   0.832422 0.969867 0.079846 -0.324434
N3    N     N_R   0.763252 0.663742 0.887533 0.281271
O25   O     O_R   0.748053 0.493787 0.899643 -0.316572
O26   O     O_R   0.773738 0.780923 0.945223 -0.325416
N4    N     N_R   0.228252 0.152871 0.104991 0.275293
O27   O     O_R   0.243082 0.981992 0.093233 -0.327749
O28   O     O_R   0.217566 0.269334 0.047177 -0.316482
N5    N     N_R   0.644070 0.615186 0.760538 0.249119
O29   O     O_R   0.622051 0.714478 0.809520 -0.287658
O30   O     O_R   0.611928 0.457058 0.738707 -0.359092
N6    N     N_R   0.360101 0.156382 0.215549 0.254084
O31   O     O_R   0.366304 0.271829 0.162374 -0.287757
O32   O     O_R   0.397560 0.003436 0.222673 -0.312854
N7    N     N_R   0.727491 0.508023 0.693137 0.251271
O33   O     O_R   0.680455 0.438794 0.630130 -0.307040
O34   O     O_R   0.791920 0.431092 0.715286 -0.367123
N8    N     N_R   0.295218 0.998936 0.292502 0.230008
O35   O     O_R   0.354048 0.912645 0.334235 -0.355752
O36   O     O_R   0.232867 0.920031 0.285621 -0.362134
O37   O     O_3   0.891642 0.815215 0.732680 -0.752622
H19   H     H_    0.877291 0.684584 0.732092 0.367961
O38   O     O_3   0.109970 0.326916 0.268367 -0.696107
H20   H     H_    0.117509 0.193968 0.260664 0.358034
O39   O     O_3   0.774374 0.734736 0.614426 -0.694766
H21   H     H_    0.812994 0.766826 0.590736 0.360052
O40   O     O_3   0.228242 0.197221 0.369823 -0.670914
H22   H     H_    0.271969 0.159005 0.414347 0.353592
O41   O     O_3   0.620877 0.031191 0.755598 -0.652362
H23   H     H_    0.584013 0.108666 0.716694 0.361439
O42   O     O_3   0.381123 0.552302 0.245524 -0.653398
H24   H     H_    0.412332 0.639305 0.284944 0.373363
O43   O     O_3   0.856540 0.113910 0.733167 -0.656363
H25   H     H_    0.890905 0.119926 0.702143 0.420145
O44   O     O_3   0.156386 0.615806 0.275373 -0.653936
H26   H     H_    0.135625 0.627937 0.319419 0.404112
N9    N     N_R   0.058329 0.151162 0.770196 0.229927
O45   O     O_R   0.051088 0.303988 0.805425 -0.316143
O46   O     O_R   0.015786 0.122780 0.698225 -0.387293
N10   N     N_R   0.934065 0.678740 0.218740 0.250297
O47   O     O_R   0.001752 0.625665 0.234037 -0.352818
O48   O     O_R   0.919734 0.853928 0.221813 -0.358266
N11   N     N_R   0.741797 0.041641 0.592954 0.230646
O49   O     O_R   0.781011 0.189567 0.598084 -0.293102
O50   O     O_R   0.697048 0.001692 0.523062 -0.394148
N12   N     N_R   0.255915 0.500356 0.409586 0.226933
O51   O     O_R   0.274202 0.671915 0.406087 -0.345489
O52   O     O_R   0.244712 0.446516 0.474317 -0.387317
O53   O     O_3   0.434467 0.595942 0.720274 -0.706650
H27   H     H_    0.478719 0.646888 0.711119 0.357040
O54   O     O_3   0.566540 0.099149 0.278832 -0.700192
H28   H     H_    0.522739 0.151973 0.288665 0.350918

loop_
_geom_bond_atom_site_label_1
_geom_bond_atom_site_label_2
_geom_bond_distance
_ccdc_geom_bond_type
C44   C52   1.544298 S    
C26   C28   1.401898 A    
C36   O54   1.380730 S    
N5    O29   1.300536 A    
O1    C3    1.332096 A    
O2    C4    1.332129 A    
C30   H10   1.081910 S    
C2    O7    1.381086 A    
N11   O49   1.297994 A    
O19   V4    1.759726 S    
O18   V4    2.004112 S    
O37   H19   0.984755 S    
C27   C29   1.391379 A    
C17   H1    1.082372 S    
O5    C3    1.337599 A    
N3    O26   1.298001 A    
C37   N3    1.475773 S    
O12   V3    2.036316 S    
C11   C17   1.410787 A    
C23   C25   1.414260 A    
C50   O40   1.407866 S    
C48   C50   1.612257 S    
N7    O34   1.297259 A    
C39   N7    1.503616 S    
O14   C54   1.341537 A    
C44   H16   1.102068 S    
O11   C55   1.325703 A    
C8    C53   1.508745 S    
N4    O27   1.298914 A    
C6    C8    1.419888 A    
C38   H12   1.096793 S    
C6    N2    1.429189 S    
C33   C35   1.421266 A    
C20   H4    1.084054 S    
C5    C7    1.422847 A    
C31   H5    1.084644 S    
C27   H7    1.083164 S    
C32   C34   1.407358 A    
C28   H8    1.083158 S    
O11   V4    2.037685 S    
O53   H27   0.989436 S    
C19   C21   1.400382 A    
C43   H15   1.101415 S    
C25   C35   1.411711 A    
C26   C36   1.412097 A    
C38   N4    1.475153 S    
C50   N12   1.493821 S    
C28   C30   1.391113 A    
C18   H2    1.079265 S    
O6    V2    2.010256 S    
C53   O18   1.336395 A    
O15   C55   1.354339 A    
N11   O50   1.302188 A    
N8    O36   1.300106 A    
O16   C56   1.354431 A    
O13   C53   1.341751 A    
C42   C50   1.608280 S    
C34   C36   1.421004 A    
C37   H11   1.095185 S    
C41   C49   1.634918 S    
C5    C15   1.411732 A    
O43   H25   0.990144 S    
C46   C55   1.551899 S    
C6    C16   1.409792 A    
N12   O51   1.298572 A    
C52   H18   1.067850 S    
C7    C54   1.508604 S    
C19   H3    1.083687 S    
C51   H17   1.106459 S    
O5    V1    2.017037 S    
C52   O42   1.409933 S    
O15   V3    2.012398 S    
C44   H14   1.109842 S    
C43   C45   1.542742 S    
C20   C22   1.398931 A    
O4    V2    2.014895 S    
O42   H24   0.991343 S    
C5    N1    1.428178 S    
C15   C29   1.409968 A    
N1    O21   1.296126 A    
C54   O17   1.337637 A    
C38   C46   1.588204 S    
O6    C4    1.337398 A    
C51   O41   1.408556 S    
O20   V3    1.757036 S    
C10   N10   1.436952 S    
C40   C48   1.620852 S    
C22   C32   1.403195 A    
N5    O30   1.300921 A    
O1    V2    2.003824 S    
O12   C56   1.327461 A    
O17   V3    2.007820 S    
N2    O24   1.298975 A    
O2    V1    2.007516 S    
C47   C49   1.609167 S    
C41   O43   1.402889 S    
C13   C23   1.421198 A    
C14   C24   1.422715 A    
N1    O22   1.299180 A    
C37   C45   1.586644 S    
C45   C56   1.555006 S    
C9    C11   1.420120 A    
O38   H20   0.987757 S    
C10   C12   1.424917 A    
O4    C2    1.374307 A    
C8    C10   1.424925 A    
O39   H21   0.993835 S    
C49   N11   1.492856 S    
N10   O48   1.300458 A    
O3    V1    2.012421 S    
N8    O35   1.296962 A    
O40   H22   0.993700 S    
N3    O25   1.299624 A    
C7    C9    1.423452 A    
N10   O47   1.298086 A    
C37   C39   1.598362 S    
C48   C52   1.572384 S    
N12   O52   1.302945 A    
C4    C33   1.487228 S    
O3    C1    1.367995 A    
C49   O39   1.408762 S    
N6    O32   1.301632 A    
N9    O45   1.299358 A    
N6    O31   1.300668 A    
C13   C15   1.408062 A    
O44   H26   0.993135 S    
C14   C16   1.409655 A    
C40   N8    1.490448 S    
C42   O38   1.417250 S    
C38   C40   1.598967 S    
C1    C48   1.557393 S    
C24   C26   1.414449 A    
O7    V1    2.017059 S    
C29   H9    1.081548 S    
C1    O8    1.384802 A    
C25   C27   1.401898 A    
O8    V2    2.018166 S    
N7    O33   1.298243 A    
C18   C20   1.396997 A    
N9    O46   1.300570 A    
C12   C14   1.416545 A    
C42   C46   1.596794 S    
C42   O44   1.405638 S    
C39   C47   1.617782 S    
C41   C45   1.590791 S    
C16   C30   1.409283 A    
C21   C23   1.408291 A    
C22   C24   1.407940 A    
N4    O28   1.298493 A    
C43   H13   1.110311 S    
C41   O37   1.418350 S    
C39   N5    1.488808 S    
N2    O23   1.296564 A    
O14   V4    2.010060 S    
C12   C18   1.412913 A    
O13   V3    2.016828 S    
C35   O53   1.381621 S    
C32   H6    1.084881 S    
C11   C13   1.412969 A    
C40   N6    1.498175 S    
C17   C19   1.396976 A    
O9    V2    1.760078 S    
C44   C46   1.543005 S    
C9    N9    1.435281 S    
O10   V1    1.757385 S    
C3    C34   1.488278 S    
O54   H28   0.988808 S    
C21   C31   1.402258 A    
C47   C51   1.586445 S    
C31   C33   1.407856 A    
O16   V4    2.014868 S    
C43   C51   1.542938 S    
O41   H23   0.991500 S    
C2    C47   1.561401 S    
