data_mof_unit_61017.cif
_audit_creation_date              2012-12-10T18:28:36-0500
_audit_creation_method            fapswitch 2.2
_symmetry_space_group_name_H-M    P1
_symmetry_Int_Tables_number       1
_space_group_crystal_system       triclinic
_cell_length_a                    21.724173
_cell_length_b                    21.76392
_cell_length_c                    21.25003
_cell_angle_alpha                 120.710267
_cell_angle_beta                  120.725702
_cell_angle_gamma                 90.087944
_cell_volume                      6941.48778215

loop_
_atom_site_label
_atom_site_type_symbol
_atom_type_description
_atom_site_fract_x
_atom_site_fract_y
_atom_site_fract_z
_atom_type_partial_charge
C1    C     C_R   0.084555 0.584599 0.669208 0.798747
C2    C     C_R   0.972706 0.248315 0.183701 -0.102714
C3    C     C_R   0.244340 0.442628 0.424742 -0.225918
C4    C     C_R   0.312911 0.505138 0.499885 -0.083286
C5    C     C_R   0.316308 0.567232 0.573645 0.010781
C6    C     C_R   0.251183 0.563130 0.571550 -0.236521
C7    C     C_R   0.183901 0.499404 0.497838 -0.059942
C8    C     C_R   0.179666 0.438983 0.423176 -0.005507
C9    C     C_R   0.416706 0.665125 0.741541 -0.137055
C10   C     C_R   0.481159 0.732052 0.814947 -0.136069
C11   C     C_R   0.514430 0.772606 0.799330 -0.116866
C12   C     C_R   0.117850 0.499362 0.498603 0.800933
C13   C     C_R   0.483173 0.746455 0.710283 -0.113481
C14   C     C_R   0.418649 0.679729 0.636811 -0.105296
C15   C     C_R   0.385183 0.638018 0.651667 0.117214
C16   C     C_1   0.135949 0.635944 0.771739 -0.190942
C17   C     C_1   0.178600 0.678661 0.856688 -0.005979
C18   C     C_1   0.229095 0.729251 0.957457 -0.005316
C19   C     C_1   0.271501 0.771691 0.042420 -0.009264
C20   C     C_1   0.321718 0.821909 0.143197 -0.006458
C21   C     C_1   0.364096 0.864253 0.228169 -0.193733
C22   C     C_R   0.931792 0.399696 0.661760 -0.203169
C23   C     C_R   0.915380 0.415420 0.330782 0.809389
C24   C     C_R   0.875000 0.410064 0.599986 -0.106768
C25   C     C_R   0.874792 0.483753 0.627297 0.076989
C26   C     C_R   0.931537 0.547009 0.717190 -0.234746
C27   C     C_R   0.988805 0.537329 0.780425 0.331497
C28   C     C_R   0.988161 0.462573 0.751485 -0.123458
C29   C     C_R   0.748683 0.497448 0.562860 -0.236192
C30   C     C_R   0.686913 0.504097 0.500580 -0.077848
C31   C     C_R   0.689337 0.509925 0.438694 0.000387
C32   C     C_R   0.754246 0.508598 0.440430 -0.222662
C33   C     C_R   0.815433 0.500569 0.501651 -0.071704
C34   C     C_R   0.881862 0.500436 0.501127 0.801771
C35   C     C_R   0.812550 0.494103 0.562841 0.003671
C36   C     C_R   0.587603 0.466697 0.280276 -0.137935
C37   C     C_R   0.529056 0.477305 0.219824 -0.133268
C38   C     C_R   0.510013 0.542341 0.253161 -0.125259
C39   C     C_R   0.549560 0.596918 0.346992 -0.132179
C40   C     C_R   0.607696 0.586184 0.407627 -0.121299
C41   C     C_R   0.626879 0.520784 0.374615 0.111622
C42   C     C_1   0.863955 0.364293 0.228234 -0.166814
C43   C     C_1   0.821435 0.322012 0.143264 0.000272
C44   C     C_1   0.771153 0.271836 0.042490 0.008358
C45   C     C_R   0.014171 0.252589 0.263121 -0.130355
C46   C     C_1   0.728752 0.229417 0.957521 0.014399
C47   C     C_1   0.678460 0.178804 0.856745 -0.018379
C48   C     C_1   0.636003 0.136045 0.771788 -0.196571
C49   C     C_R   0.499214 0.620083 0.500048 0.817175
C50   C     C_R   0.379922 0.502763 0.500026 0.825826
C51   C     C_R   0.500396 0.380187 0.500102 0.837225
C52   C     C_R   0.619992 0.502441 0.500073 0.830928
C53   C     C_R   0.500954 0.119741 0.502008 0.800423
C54   C     C_R   0.415363 0.915404 0.330734 0.798100
C55   C     C_R   0.500984 0.882387 0.501950 0.808785
C56   C     C_R   0.081773 0.314813 0.341555 -0.104687
C57   C     C_R   0.584656 0.084580 0.669260 0.806652
C58   C     C_R   0.269458 0.501189 0.230678 -0.136671
C59   C     C_R   0.338471 0.562359 0.290178 -0.094981
C60   C     C_R   0.357734 0.626238 0.373522 0.116467
C61   C     C_R   0.305924 0.629532 0.394939 -0.177689
C62   C     C_R   0.237171 0.568102 0.335547 -0.129077
C63   C     C_R   0.219099 0.503819 0.253645 -0.107823
C64   C     C_R   0.433997 0.754559 0.441401 -0.239229
C65   C     C_R   0.502232 0.817005 0.504084 -0.084047
C66   C     C_R   0.570280 0.816390 0.567462 -0.040583
C67   C     C_R   0.107786 0.373514 0.341048 0.083119
C68   C     C_R   0.569380 0.750990 0.565344 -0.086984
C69   C     C_R   0.500287 0.687381 0.500795 -0.150567
C70   C     C_R   0.432232 0.689520 0.438779 -0.020086
C71   C     C_R   0.692425 0.900120 0.624196 -0.084266
C72   C     C_R   0.760291 0.963804 0.694316 -0.147863
C73   C     C_R   0.778002 0.012110 0.781263 -0.148350
C74   C     C_R   0.727658 0.996866 0.798264 0.052515
C75   C     C_R   0.658902 0.933989 0.727603 -0.199579
C76   C     C_R   0.640953 0.885500 0.640258 0.089892
C77   C     C_R   0.505107 0.223119 0.250091 -0.178454
C78   C     C_R   0.066124 0.368761 0.260997 -0.167453
C79   C     C_R   0.484937 0.219683 0.301378 -0.139126
C80   C     C_R   0.539299 0.259809 0.395755 0.121312
C81   C     C_R   0.614112 0.303023 0.438332 -0.179768
C82   C     C_R   0.634419 0.305602 0.386765 -0.174343
C83   C     C_R   0.579953 0.265993 0.292698 0.080881
C84   C     C_R   0.519079 0.193132 0.452322 -0.228041
C85   C     C_R   0.502041 0.187939 0.504916 -0.089645
C86   C     C_R   0.484303 0.246400 0.557223 -0.045522
C87   C     C_R   0.482738 0.309489 0.554506 -0.077088
C88   C     C_R   0.499943 0.313931 0.500944 -0.130148
C89   C     C_R   0.998718 0.306311 0.182609 -0.142188
C90   C     C_R   0.518193 0.255607 0.449808 -0.011921
C91   C     C_R   0.396819 0.230421 0.595762 -0.102365
C92   C     C_R   0.384167 0.227796 0.652731 -0.138845
C93   C     C_R   0.445037 0.238423 0.731721 -0.103076
C94   C     C_R   0.518653 0.251654 0.753851 -0.115177
C95   C     C_R   0.531513 0.253979 0.696864 -0.141361
C96   C     C_R   0.470624 0.243500 0.617531 0.128969
Cu1   Cu    Cu3+1 0.000010 0.438210 0.500020 0.953624
Cu2   Cu    Cu3+1 0.999990 0.561790 0.499980 0.954133
Cu3   Cu    Cu3+1 0.457530 0.457560 0.415050 0.967095
Cu4   Cu    Cu3+1 0.542470 0.542480 0.584950 0.993606
Cu5   Cu    Cu3+1 0.561810 1.000000 0.500000 0.945630
Cu6   Cu    Cu3+1 0.438190 1.000000 0.500000 0.960715
H1    H     H_    0.920412 0.200134 0.123047 0.153714
H2    H     H_    0.564395 0.824292 0.856217 0.132850
H3    H     H_    0.508952 0.777785 0.698110 0.131598
H4    H     H_    0.395327 0.660049 0.568381 0.097071
H5    H     H_    0.030570 0.451947 0.797429 0.129377
H6    H     H_    0.931737 0.342621 0.640279 0.139212
H7    H     H_    0.831107 0.360722 0.530961 0.127620
H8    H     H_    0.930394 0.603800 0.738343 0.132685
H9    H     H_    0.745997 0.492213 0.609595 0.153678
H10   H     H_    0.757160 0.513864 0.393841 0.150669
H11   H     H_    0.994055 0.207570 0.263816 0.131288
H12   H     H_    0.602061 0.416285 0.253671 0.146910
H13   H     H_    0.498617 0.435223 0.147138 0.130348
H14   H     H_    0.464853 0.550614 0.206320 0.120474
H15   H     H_    0.535283 0.647620 0.372643 0.135908
H16   H     H_    0.638228 0.628962 0.480160 0.115533
H17   H     H_    0.165934 0.456241 0.207807 0.117029
H18   H     H_    0.255204 0.451586 0.166993 0.118129
H19   H     H_    0.377424 0.559473 0.272190 0.121301
H20   H     H_    0.319006 0.679386 0.457747 0.127086
H21   H     H_    0.197941 0.570303 0.353023 0.134559
H22   H     H_    0.113883 0.317205 0.402463 0.134050
H23   H     H_    0.381888 0.756336 0.393726 0.153219
H24   H     H_    0.679907 0.862242 0.557534 0.126985
H25   H     H_    0.799617 0.975248 0.681532 0.129702
H26   H     H_    0.831241 0.060715 0.835380 0.127331
H27   H     H_    0.620008 0.921835 0.740693 0.130698
H28   H     H_    0.462544 0.192069 0.177286 0.131806
H29   H     H_    0.427032 0.186058 0.267756 0.131136
H30   H     H_    0.085822 0.413413 0.259471 0.125225
H31   H     H_    0.656700 0.334097 0.511126 0.129321
H32   H     H_    0.692534 0.338181 0.419970 0.140442
H33   H     H_    0.532642 0.147947 0.412427 0.157760
H34   H     H_    0.349280 0.222073 0.534679 0.119441
H35   H     H_    0.327194 0.217590 0.635690 0.125348
H36   H     H_    0.435182 0.236493 0.775830 0.124556
H37   H     H_    0.565733 0.260142 0.815198 0.134061
H38   H     H_    0.588745 0.264096 0.714521 0.112637
H39   H     H_    0.966533 0.302940 0.121080 0.133973
H40   H     H_    0.241396 0.395665 0.367576 0.159492
H41   H     H_    0.252474 0.610233 0.627183 0.137937
H42   H     H_    0.391782 0.634118 0.754701 0.130871
H43   H     H_    0.505384 0.752426 0.883977 0.133928
O1    O     O_R   0.061970 0.509790 0.623960 -0.560545
O2    O     O_R   0.535870 0.626050 0.571740 -0.582012
O3    O     O_R   0.373960 0.464160 0.428260 -0.592342
O4    O     O_R   0.445680 0.535880 0.571730 -0.569218
O5    O     O_R   0.464130 0.373990 0.428260 -0.583685
O6    O     O_R   0.535860 0.445700 0.571730 -0.581009
O7    O     O_R   0.554320 0.464170 0.428270 -0.574800
O8    O     O_R   0.626040 0.535880 0.571740 -0.585244
O9    O     O_R   0.552180 0.090160 0.499970 -0.585685
O10   O     O_R   0.447790 0.090160 0.499970 -0.570421
O11   O     O_R   0.490230 0.938030 0.376060 -0.565862
O12   O     O_R   0.061960 0.614160 0.623930 -0.565434
O13   O     O_R   0.385840 0.938030 0.376050 -0.565039
O14   O     O_R   0.552210 0.909840 0.500030 -0.583354
O15   O     O_R   0.447820 0.909840 0.500030 -0.582220
O16   O     O_R   0.614160 0.061970 0.623950 -0.562234
O17   O     O_R   0.509770 0.061970 0.623940 -0.558974
O18   O     O_R   0.090190 0.447820 0.500020 -0.585544
O19   O     O_R   0.090170 0.552190 0.499990 -0.580040
O20   O     O_R   0.938040 0.385840 0.376070 -0.559681
O21   O     O_R   0.938030 0.490210 0.376040 -0.569668
O22   O     O_R   0.909830 0.447810 0.500010 -0.576153
O23   O     O_R   0.909810 0.552180 0.499980 -0.580413
O24   O     O_R   0.464140 0.554340 0.428270 -0.580410
N1    N     N_2   0.043621 0.603083 0.872463 -0.432856
H44   H     H_    0.051125 0.654721 0.881957 0.252035
C97   C     C_3   0.112011 0.597380 0.933332 -0.687741
H45   H     H_    0.149082 0.654335 0.000228 0.233173
H46   H     H_    0.144605 0.577573 0.904591 0.228650
H47   H     H_    0.096725 0.557821 0.945487 0.226814
C98   C     C_1   0.640224 0.749057 0.628177 0.244709
N2    N     N_1   0.696731 0.747599 0.678227 -0.277275
C99   C     C_1   0.747463 0.044348 0.888702 0.209430
N3    N     N_1   0.763419 0.082276 0.961439 -0.299123
C100  C     C_1   0.601182 0.268711 0.239896 0.189337
N4    N     N_1   0.618358 0.270843 0.197500 -0.298232
C101  C     C_1   0.462797 0.369257 0.606052 0.243653
N5    N     N_1   0.446824 0.416840 0.647019 -0.278686

loop_
_geom_bond_atom_site_label_1
_geom_bond_atom_site_label_2
_ccdc_geom_bond_type
Cu4   O8    S    
C59   H19   S    
C66   C68   A    
Cu3   O3    S    
C84   H33   S    
Cu5   Cu6   S    
Cu1   O1    S    
C40   H16   S    
C95   C96   A    
C87   C88   A    
C36   H12   S    
Cu6   O13   S    
C87   C101  S    
Cu1   Cu2   S    
C1    O1    A    
C7    C8    A    
C22   H6    S    
C85   C86   A    
C97   H45   S    
C67   C78   A    
C95   H38   S    
C93   C94   A    
C23   C42   S    
C83   C100  S    
C56   H22   S    
C36   C37   A    
C37   C38   A    
C54   O11   A    
C21   C54   S    
C89   H39   S    
C12   O19   A    
N1    H44   S    
C77   C83   A    
C28   H5    S    
C63   H17   S    
C49   O2    A    
C18   C19   T    
C73   C74   A    
C78   H30   S    
C101  N5    T    
C93   H36   S    
C91   C96   A    
C23   O20   A    
C57   O17   A    
C47   C48   T    
C45   C56   A    
C44   C46   T    
C68   C69   A    
Cu1   O18   S    
C71   H24   S    
C11   H2    S    
C64   C70   A    
C32   H10   S    
C9    C10   A    
C26   H8    S    
C61   C62   A    
C64   H23   S    
C97   H47   S    
Cu6   O17   S    
C72   C73   A    
C55   O14   A    
C79   H29   S    
C53   O9    A    
C78   C89   A    
C49   C69   S    
C13   C14   A    
C94   H37   S    
C36   C41   A    
C94   C95   A    
C3    H40   S    
C84   C90   A    
C34   O23   A    
C92   H35   S    
C62   H21   S    
C55   C65   S    
C9    H42   S    
C97   H46   S    
C99   N3    T    
C77   C79   A    
Cu4   O6    S    
C68   C98   S    
C38   C39   A    
Cu3   O5    S    
C74   C75   A    
C91   H34   S    
C72   H25   S    
C48   C57   S    
C84   C85   A    
C51   O5    A    
C13   H3    S    
C3    C8    A    
C10   C11   A    
Cu6   O15   S    
C91   C92   A    
C86   C87   A    
C16   C17   T    
Cu5   O11   S    
C25   C26   A    
C39   H15   S    
C75   H27   S    
C81   C82   A    
C4    C50   S    
C61   H20   S    
C82   H32   S    
C2    C89   A    
C75   C76   A    
C29   C30   A    
C54   O13   A    
C23   O21   A    
C38   H14   S    
C31   C32   A    
C74   C99   S    
Cu2   O12   S    
C60   C70   S    
C30   C31   A    
C52   O7    A    
C66   C76   S    
C62   C63   A    
C58   H18   S    
C17   C18   S    
C26   C27   A    
C1    C16   S    
C24   C25   A    
C27   N1    S    
Cu2   O21   S    
C86   C96   S    
C25   C35   S    
C37   H13   S    
C98   N2    T    
C88   C90   A    
C53   O10   A    
C43   C44   S    
C22   C24   A    
C7    C12   S    
C58   C59   A    
C42   C43   T    
C34   O22   A    
C56   C67   A    
C71   C76   A    
C39   C40   A    
C100  N4    T    
C50   O3    A    
C58   C63   A    
C30   C52   S    
C46   C47   S    
C40   C41   A    
C31   C41   S    
C9    C15   A    
C29   H9    S    
C24   H7    S    
C80   C81   A    
C51   C88   S    
Cu2   O19   S    
C81   H31   S    
C6    C7    A    
Cu3   O24   S    
Cu4   O4    S    
C73   H26   S    
Cu3   O7    S    
C29   C35   A    
Cu3   Cu4   S    
C55   O15   A    
C64   C65   A    
C19   C20   S    
Cu5   O16   S    
C52   O8    A    
C71   C72   A    
Cu1   O22   S    
C32   C33   A    
C12   O18   A    
C49   O24   A    
C11   C13   A    
C50   O4    A    
C5    C6    A    
N1    C97   S    
Cu5   O9    S    
Cu1   O20   S    
C4    C5    A    
C1    O12   A    
C92   C93   A    
C33   C35   A    
C33   C34   S    
C77   H28   S    
C65   C66   A    
C80   C90   S    
C69   C70   A    
C2    H1    S    
C5    C15   S    
C2    C45   A    
C53   C85   S    
C10   H43   S    
C51   O6    A    
C79   C80   A    
C45   H11   S    
C59   C60   A    
C57   O16   A    
C20   C21   T    
Cu5   O14   S    
C8    C67   S    
C82   C83   A    
C14   H4    S    
C27   C28   A    
C14   C15   A    
C60   C61   A    
C22   C28   A    
Cu4   O2    S    
C6    H41   S    
Cu6   O10   S    
Cu2   O23   S    
C3    C4    A    
