data_mof_unit_61064.cif
_audit_creation_date              2013-03-05T16:20:24-0500
_audit_creation_method            fapswitch 2.2
_symmetry_space_group_name_H-M    P1
_symmetry_Int_Tables_number       1
_space_group_crystal_system       triclinic
_cell_length_a                    30.8768
_cell_length_b                    29.381598
_cell_length_c                    30.636357
_cell_angle_alpha                 90.003176
_cell_angle_beta                  90.042138
_cell_angle_gamma                 89.835432
_cell_volume                      27793.4788105

loop_
_atom_site_label
_atom_site_type_symbol
_atom_site_description
_atom_site_fract_x
_atom_site_fract_y
_atom_site_fract_z
_atom_type_partial_charge
O1    O     O_R   0.321180 1.000000 0.731010 -0.581900
O2    O     O_R   0.678820 1.000000 0.731010 -0.581896
O3    O     O_R   0.821180 0.500000 0.731010 -0.581316
O4    O     O_R   0.178820 0.500000 0.731010 -0.580921
O5    O     O_R   0.821180 1.000000 0.231010 -0.581937
O6    O     O_R   0.178820 1.000000 0.231010 -0.581878
O7    O     O_R   0.321180 0.500000 0.231010 -0.581306
O8    O     O_R   0.678820 0.500000 0.231010 -0.580893
O9    O     O_R   0.268980 1.000000 0.678820 -0.583595
O10   O     O_R   0.731020 1.000000 0.678820 -0.583484
O11   O     O_R   0.768980 0.500000 0.678820 -0.584442
O12   O     O_R   0.231020 0.500000 0.678820 -0.578887
O13   O     O_R   0.768980 1.000000 0.178820 -0.583615
O14   O     O_R   0.231020 1.000000 0.178820 -0.583411
O15   O     O_R   0.268980 0.500000 0.178820 -0.584303
O16   O     O_R   0.731020 0.500000 0.178820 -0.578932
C1    C     C_R   0.309143 0.999633 0.690418 0.809677
C2    C     C_R   0.690864 0.000376 0.690426 0.809594
C3    C     C_R   0.809233 0.500296 0.690425 0.809757
C4    C     C_R   0.190931 0.500231 0.690604 0.808396
C5    C     C_R   0.809145 0.999640 0.190417 0.809701
C6    C     C_R   0.190866 0.000384 0.190429 0.809557
C7    C     C_R   0.309231 0.499702 0.190427 0.809672
C8    C     C_R   0.690932 0.499716 0.190604 0.808350
O17   O     O_R   0.276100 0.938030 0.776090 -0.565675
O18   O     O_R   0.723900 0.061970 0.776090 -0.565599
O19   O     O_R   0.723900 0.938030 0.776090 -0.564260
O20   O     O_R   0.276100 0.061970 0.776090 -0.564324
O21   O     O_R   0.776100 0.438030 0.776090 -0.563981
O22   O     O_R   0.223900 0.561970 0.776090 -0.566960
O23   O     O_R   0.223900 0.438030 0.776090 -0.562328
O24   O     O_R   0.776100 0.561970 0.776090 -0.566473
O25   O     O_R   0.776100 0.938030 0.276090 -0.565724
O26   O     O_R   0.223900 0.061970 0.276090 -0.565619
O27   O     O_R   0.223900 0.938030 0.276090 -0.564217
O28   O     O_R   0.776100 0.061970 0.276090 -0.564295
O29   O     O_R   0.276100 0.438030 0.276090 -0.566524
O30   O     O_R   0.723900 0.561970 0.276090 -0.562433
O31   O     O_R   0.723900 0.438030 0.276090 -0.566859
O32   O     O_R   0.276100 0.561970 0.276090 -0.563922
O33   O     O_R   0.223900 0.938040 0.723900 -0.563678
O34   O     O_R   0.776100 0.061960 0.723900 -0.563608
O35   O     O_R   0.776100 0.938040 0.723900 -0.563756
O36   O     O_R   0.223900 0.061960 0.723900 -0.563932
O37   O     O_R   0.723900 0.438040 0.723900 -0.564283
O38   O     O_R   0.276100 0.561960 0.723900 -0.560986
O39   O     O_R   0.276100 0.438040 0.723900 -0.566944
O40   O     O_R   0.723900 0.561960 0.723900 -0.562925
O41   O     O_R   0.723900 0.938040 0.223900 -0.563702
O42   O     O_R   0.276100 0.061960 0.223900 -0.563633
O43   O     O_R   0.276100 0.938040 0.223900 -0.563770
O44   O     O_R   0.723900 0.061960 0.223900 -0.563878
O45   O     O_R   0.223900 0.438040 0.223900 -0.562909
O46   O     O_R   0.776100 0.561960 0.223900 -0.566818
O47   O     O_R   0.776100 0.438040 0.223900 -0.561104
O48   O     O_R   0.223900 0.561960 0.223900 -0.564303
C9    C     C_R   0.250013 0.915382 0.750032 0.798330
C10   C     C_R   0.749986 0.084607 0.750033 0.797801
C11   C     C_R   0.750021 0.915392 0.749960 0.798256
C12   C     C_R   0.249980 0.084617 0.749960 0.798748
C13   C     C_R   0.750028 0.415382 0.750017 0.800099
C14   C     C_R   0.249974 0.584607 0.750024 0.797781
C15   C     C_R   0.250021 0.415392 0.749957 0.793251
C16   C     C_R   0.749968 0.584617 0.749974 0.798062
C17   C     C_R   0.750014 0.915383 0.250031 0.798285
C18   C     C_R   0.249986 0.084607 0.250033 0.797774
C19   C     C_R   0.250021 0.915393 0.249959 0.798280
C20   C     C_R   0.749979 0.084618 0.249962 0.798751
C21   C     C_R   0.250015 0.415383 0.250031 0.797990
C22   C     C_R   0.749971 0.584608 0.250016 0.793179
C23   C     C_R   0.750024 0.415393 0.249965 0.797695
C24   C     C_R   0.249980 0.584618 0.249960 0.800137
Cu1   Cu    Cu3+1 0.280900 1.000000 0.780900 0.945804
Cu2   Cu    Cu3+1 0.719100 1.000000 0.780900 0.945751
Cu3   Cu    Cu3+1 0.780900 0.500000 0.780900 0.946816
Cu4   Cu    Cu3+1 0.219100 0.500000 0.780900 0.948801
Cu5   Cu    Cu3+1 0.780900 1.000000 0.280900 0.945783
Cu6   Cu    Cu3+1 0.219100 1.000000 0.280900 0.945800
Cu7   Cu    Cu3+1 0.280900 0.500000 0.280900 0.946873
Cu8   Cu    Cu3+1 0.719100 0.500000 0.280900 0.948887
Cu9   Cu    Cu3+1 0.219090 1.000000 0.719100 0.955062
Cu10  Cu    Cu3+1 0.780910 1.000000 0.719100 0.955245
Cu11  Cu    Cu3+1 0.719090 0.500000 0.719100 0.953524
Cu12  Cu    Cu3+1 0.280910 0.500000 0.719100 0.958300
Cu13  Cu    Cu3+1 0.719090 1.000000 0.219100 0.955120
Cu14  Cu    Cu3+1 0.280910 1.000000 0.219100 0.955229
Cu15  Cu    Cu3+1 0.219090 0.500000 0.219100 0.953581
Cu16  Cu    Cu3+1 0.780910 0.500000 0.219100 0.958360
O49   O     O_R   0.231010 1.000000 0.821180 -0.581535
O50   O     O_R   0.768990 1.000000 0.821180 -0.581508
O51   O     O_R   0.731010 0.500000 0.821180 -0.580215
O52   O     O_R   0.268990 0.500000 0.821180 -0.581255
O53   O     O_R   0.731010 1.000000 0.321180 -0.581543
O54   O     O_R   0.268990 1.000000 0.321180 -0.581479
O55   O     O_R   0.231010 0.500000 0.321180 -0.580195
O56   O     O_R   0.768990 0.500000 0.321180 -0.581234
O57   O     O_R   0.178810 1.000000 0.768990 -0.578110
O58   O     O_R   0.821190 1.000000 0.768990 -0.577877
O59   O     O_R   0.678810 0.500000 0.768990 -0.581076
O60   O     O_R   0.321190 0.500000 0.768990 -0.577507
O61   O     O_R   0.678810 1.000000 0.268990 -0.577996
O62   O     O_R   0.321190 1.000000 0.268990 -0.577964
O63   O     O_R   0.178810 0.500000 0.268990 -0.581077
O64   O     O_R   0.821190 0.500000 0.268990 -0.577419
C25   C     C_R   0.190734 0.000342 0.809375 0.795386
C26   C     C_R   0.809253 0.999659 0.809363 0.795265
C27   C     C_R   0.690785 0.499699 0.809330 0.800202
C28   C     C_R   0.309240 0.499682 0.809348 0.794889
C29   C     C_R   0.690736 0.000339 0.309373 0.795355
C30   C     C_R   0.309254 0.999657 0.309364 0.795293
C31   C     C_R   0.190782 0.500275 0.309330 0.800180
C32   C     C_R   0.809234 0.500350 0.309344 0.794919
C33   C     C_1   0.250031 0.864103 0.750103 -0.191784
C34   C     C_1   0.749962 0.135886 0.750102 -0.191539
C35   C     C_1   0.750052 0.864113 0.749895 -0.190796
C36   C     C_1   0.249951 0.135897 0.749890 -0.191078
C37   C     C_1   0.750056 0.364102 0.750079 -0.189803
C38   C     C_1   0.249937 0.635885 0.750091 -0.192535
C39   C     C_1   0.250053 0.364113 0.749884 -0.191431
C40   C     C_1   0.749933 0.635896 0.749915 -0.191814
C41   C     C_1   0.750036 0.864104 0.250097 -0.191931
C42   C     C_1   0.249961 0.135886 0.250106 -0.191592
C43   C     C_1   0.250053 0.864113 0.249890 -0.190706
C44   C     C_1   0.749946 0.135898 0.249897 -0.190985
C45   C     C_1   0.250039 0.364103 0.250102 -0.191862
C46   C     C_1   0.749941 0.635887 0.250076 -0.191522
C47   C     C_1   0.750050 0.364115 0.249900 -0.192508
C48   C     C_1   0.249951 0.635897 0.249892 -0.189771
C49   C     C_1   0.250017 0.821624 0.750132 -0.001702
C50   C     C_1   0.749973 0.178364 0.750127 -0.001558
C51   C     C_1   0.750040 0.821635 0.749876 -0.000940
C52   C     C_1   0.249961 0.178375 0.749862 -0.001068
C53   C     C_1   0.750050 0.321624 0.750108 -0.000371
C54   C     C_1   0.249938 0.678362 0.750123 -0.002507
C55   C     C_1   0.250045 0.321635 0.749856 -0.001743
C56   C     C_1   0.749942 0.678374 0.749893 -0.001426
C57   C     C_1   0.750025 0.821626 0.250121 -0.001853
C58   C     C_1   0.249968 0.178364 0.250138 -0.001705
C59   C     C_1   0.250044 0.821636 0.249865 -0.000780
C60   C     C_1   0.749953 0.178376 0.249875 -0.000960
C61   C     C_1   0.250032 0.321625 0.250135 -0.001551
C62   C     C_1   0.749947 0.678365 0.250102 -0.001884
C63   C     C_1   0.750036 0.321638 0.249878 -0.002451
C64   C     C_1   0.249960 0.678375 0.249866 -0.000275
C65   C     C_1   0.249987 0.771233 0.750144 0.001074
C66   C     C_1   0.750000 0.228754 0.750134 0.001511
C67   C     C_1   0.750006 0.771244 0.749873 0.001563
C68   C     C_1   0.249990 0.228766 0.749846 0.001376
C69   C     C_1   0.750025 0.271233 0.750128 0.001832
C70   C     C_1   0.249961 0.728754 0.750141 0.000934
C71   C     C_1   0.250018 0.271244 0.749844 0.001143
C72   C     C_1   0.749974 0.728765 0.749879 0.001495
C73   C     C_1   0.749997 0.771235 0.250126 0.000989
C74   C     C_1   0.249989 0.228756 0.250153 0.001196
C75   C     C_1   0.250016 0.771245 0.249854 0.001878
C76   C     C_1   0.749979 0.228768 0.249866 0.001427
C77   C     C_1   0.250010 0.271234 0.250152 0.001284
C78   C     C_1   0.749972 0.728756 0.250119 0.000909
C79   C     C_1   0.750006 0.271247 0.249867 0.001120
C80   C     C_1   0.249988 0.728766 0.249854 0.002035
C81   C     C_R   0.379100 0.025715 0.661304 0.114812
C82   C     C_R   0.620973 0.974205 0.661242 0.114834
C83   C     C_R   0.881992 0.479013 0.663700 0.121940
C84   C     C_R   0.132387 0.537703 0.650133 0.095781
C85   C     C_R   0.879267 0.025452 0.161463 0.115645
C86   C     C_R   0.121168 0.973903 0.161055 0.114140
C87   C     C_R   0.381547 0.521758 0.163398 0.120997
C88   C     C_R   0.632546 0.462204 0.150182 0.095882
C89   C     C_R   0.341182 0.000944 0.656020 -0.136637
C90   C     C_R   0.658828 0.999076 0.656023 -0.136485
C91   C     C_R   0.841654 0.498894 0.656238 -0.141714
C92   C     C_R   0.158913 0.500070 0.656618 -0.114434
C93   C     C_R   0.841193 0.000978 0.156022 -0.137102
C94   C     C_R   0.158837 0.999121 0.156024 -0.135984
C95   C     C_R   0.341615 0.501123 0.156223 -0.141046
C96   C     C_R   0.658922 0.499813 0.156605 -0.114498
C97   C     C_R   0.332431 0.980925 0.615243 -0.207925
C98   C     C_R   0.667545 0.019172 0.615293 -0.208055
C99   C     C_R   0.831521 0.514273 0.613927 -0.208690
C100  C     C_R   0.158357 0.464484 0.626255 -0.203100
C101  C     C_R   0.832348 0.981252 0.115132 -0.208104
C102  C     C_R   0.167436 0.019572 0.115435 -0.207951
C103  C     C_R   0.331718 0.485122 0.114091 -0.208665
C104  C     C_R   0.658277 0.535297 0.126144 -0.203099
H1    H     H_    0.301790 0.963947 0.609658 0.168237
H2    H     H_    0.698156 0.036216 0.609771 0.168211
H3    H     H_    0.799505 0.527584 0.606796 0.171708
H4    H     H_    0.181195 0.436594 0.629647 0.146359
H5    H     H_    0.801614 0.964501 0.109438 0.168377
H6    H     H_    0.197932 0.036890 0.110049 0.167921
H7    H     H_    0.299949 0.471247 0.107160 0.171253
H8    H     H_    0.681006 0.563155 0.129488 0.146479
C105  C     C_R   0.363921 0.980676 0.582189 0.150231
C106  C     C_R   0.636055 0.019404 0.582214 0.150104
C107  C     C_R   0.863204 0.514794 0.581102 0.150488
C108  C     C_R   0.126587 0.463259 0.593468 0.150213
C109  C     C_R   0.863854 0.980986 0.082097 0.150436
C110  C     C_R   0.135967 0.019787 0.082333 0.150064
C111  C     C_R   0.363357 0.484716 0.081218 0.150465
C112  C     C_R   0.626536 0.536495 0.093331 0.150336
C113  C     C_R   0.404534 0.001155 0.590636 -0.093784
C114  C     C_R   0.595489 0.998842 0.590608 -0.093896
C115  C     C_R   0.905425 0.499170 0.591261 -0.087149
C116  C     C_R   0.096197 0.499648 0.590607 -0.123733
C117  C     C_R   0.904580 0.001153 0.090673 -0.093547
C118  C     C_R   0.095542 0.998846 0.090566 -0.094267
C119  C     C_R   0.405290 0.501098 0.091145 -0.088036
C120  C     C_R   0.596270 0.500161 0.090528 -0.123684
C121  C     C_R   0.410140 0.025975 0.629012 0.084943
C122  C     C_R   0.589930 0.973937 0.628924 0.085266
C123  C     C_R   0.913165 0.478753 0.631563 0.075944
C124  C     C_R   0.101743 0.537616 0.617460 0.100142
C125  C     C_R   0.910323 0.025700 0.129187 0.084849
C126  C     C_R   0.090143 0.973625 0.128718 0.085579
C127  C     C_R   0.412665 0.522135 0.131209 0.076757
C128  C     C_R   0.601933 0.462250 0.117470 0.099633
C129  C     C_3   0.446079 0.023418 0.661475 -0.512835
C130  C     C_3   0.553992 0.976381 0.661343 -0.512774
C131  C     C_3   0.948791 0.487401 0.663443 -0.511119
C132  C     C_3   0.069478 0.562107 0.645257 -0.462675
C133  C     C_3   0.946233 0.022695 0.161649 -0.513470
C134  C     C_3   0.054175 0.975550 0.161132 -0.512111
C135  C     C_3   0.448513 0.514535 0.163134 -0.509487
C136  C     C_3   0.569738 0.437882 0.145289 -0.462406
C137  C     C_3   0.411914 0.023761 0.696973 -0.421219
C138  C     C_3   0.588168 0.976051 0.696878 -0.421259
C139  C     C_3   0.914429 0.487709 0.698874 -0.418169
C140  C     C_3   0.103339 0.562065 0.681260 -0.460667
C141  C     C_3   0.912055 0.023042 0.197133 -0.420833
C142  C     C_3   0.088334 0.975218 0.196684 -0.421805
C143  C     C_3   0.414206 0.514075 0.198621 -0.419150
C144  C     C_3   0.603558 0.437976 0.181334 -0.460542
H9    H     H_    0.463646 0.990470 0.659516 0.195896
H10   H     H_    0.536373 0.009300 0.659404 0.195647
H11   H     H_    0.533555 0.945302 0.661042 0.202877
H12   H     H_    0.466567 0.054461 0.661245 0.202558
H13   H     H_    0.971539 0.458124 0.665933 0.204201
H14   H     H_    0.062062 0.596706 0.632572 0.204565
H15   H     H_    0.040740 0.540913 0.652968 0.186116
H16   H     H_    0.964312 0.521103 0.658551 0.192136
H17   H     H_    0.963614 0.989645 0.159509 0.195917
H18   H     H_    0.036342 0.008351 0.159405 0.195563
H19   H     H_    0.033940 0.944327 0.160608 0.202742
H20   H     H_    0.966901 0.053607 0.161610 0.202756
H21   H     H_    0.464764 0.481061 0.158616 0.191446
H22   H     H_    0.540895 0.459130 0.152914 0.185938
H23   H     H_    0.562486 0.403256 0.132679 0.204529
H24   H     H_    0.470623 0.544245 0.165246 0.204402
H25   H     H_    0.410647 0.991505 0.715924 0.206817
H26   H     H_    0.589386 0.008283 0.715875 0.206739
H27   H     H_    0.588017 0.944412 0.716767 0.196984
H28   H     H_    0.412124 0.055372 0.716905 0.196715
H29   H     H_    0.917303 0.458543 0.721810 0.197078
H30   H     H_    0.115505 0.596636 0.689296 0.196353
H31   H     H_    0.094233 0.540820 0.709843 0.211448
H32   H     H_    0.910171 0.521557 0.714578 0.203934
H33   H     H_    0.910579 0.990674 0.215890 0.206509
H34   H     H_    0.089311 0.007312 0.215909 0.207020
H35   H     H_    0.088399 0.943426 0.216350 0.196759
H36   H     H_    0.912453 0.054520 0.217255 0.197016
H37   H     H_    0.410690 0.480359 0.214719 0.204207
H38   H     H_    0.594332 0.459317 0.209851 0.211411
H39   H     H_    0.615855 0.403409 0.189472 0.196346
H40   H     H_    0.416487 0.543574 0.221215 0.197058
C145  C     C_R   0.154819 0.964744 0.872297 0.102389
C146  C     C_R   0.845679 0.035667 0.871736 0.101759
C147  C     C_R   0.661981 0.523154 0.880668 0.131085
C148  C     C_R   0.347600 0.537044 0.869662 0.100408
C149  C     C_R   0.654541 0.964516 0.371997 0.102243
C150  C     C_R   0.345496 0.035520 0.371933 0.101902
C151  C     C_R   0.162055 0.476645 0.380614 0.131087
C152  C     C_R   0.848190 0.462819 0.369254 0.099904
C153  C     C_R   0.157201 0.000124 0.842126 -0.075734
C154  C     C_R   0.842779 0.999842 0.842106 -0.074516
C155  C     C_R   0.657648 0.498796 0.842254 -0.095563
C156  C     C_R   0.342746 0.499752 0.842058 -0.070930
C157  C     C_R   0.657207 0.000141 0.342120 -0.075217
C158  C     C_R   0.342783 0.999852 0.342111 -0.074843
C159  C     C_R   0.157619 0.501081 0.342239 -0.095556
C160  C     C_R   0.842721 0.500359 0.342059 -0.070249
C161  C     C_R   0.123589 0.032403 0.840471 -0.203037
C162  C     C_R   0.875944 0.967054 0.840876 -0.203549
C163  C     C_R   0.619189 0.473677 0.836194 -0.202258
C164  C     C_R   0.374239 0.465192 0.842456 -0.203937
C165  C     C_R   0.623843 0.032709 0.340705 -0.203349
C166  C     C_R   0.376109 0.967249 0.340724 -0.203280
C167  C     C_R   0.118999 0.526151 0.336166 -0.202216
C168  C     C_R   0.873619 0.535314 0.342846 -0.204127
H41   H     H_    0.123342 0.058625 0.815608 0.149777
H42   H     H_    0.875796 0.940464 0.816373 0.149120
H43   H     H_    0.614239 0.453913 0.806773 0.158929
H44   H     H_    0.372674 0.437332 0.819343 0.146434
H45   H     H_    0.623805 0.059140 0.316046 0.149287
H46   H     H_    0.376097 0.940792 0.316088 0.149454
H47   H     H_    0.113951 0.545953 0.306768 0.158912
H48   H     H_    0.871589 0.563411 0.320026 0.146006
C169  C     C_R   0.091488 0.032496 0.872679 -0.206935
C170  C     C_R   0.908090 0.966987 0.873069 -0.206995
C171  C     C_R   0.587114 0.473467 0.868867 -0.210467
C172  C     C_R   0.406495 0.465199 0.874543 -0.208378
C173  C     C_R   0.591728 0.032791 0.372900 -0.206901
C174  C     C_R   0.408245 0.967174 0.372926 -0.206927
C175  C     C_R   0.086902 0.526305 0.368812 -0.210234
C176  C     C_R   0.905873 0.535337 0.374945 -0.208485
H49   H     H_    0.066841 0.058806 0.872334 0.157618
H50   H     H_    0.932380 0.940311 0.873091 0.157976
H51   H     H_    0.557949 0.453666 0.864084 0.149150
H52   H     H_    0.429417 0.437255 0.875895 0.156693
H53   H     H_    0.567284 0.059311 0.372752 0.157721
H54   H     H_    0.432668 0.940632 0.372820 0.157950
H55   H     H_    0.057639 0.546124 0.364044 0.149197
H56   H     H_    0.928334 0.563537 0.376594 0.157094
C177  C     C_R   0.092113 0.999275 0.905649 -0.098370
C178  C     C_R   0.907935 0.000706 0.905577 -0.099070
C179  C     C_R   0.592755 0.499529 0.907072 -0.092274
C180  C     C_R   0.408114 0.500636 0.905311 -0.100465
C181  C     C_R   0.592090 0.999287 0.405612 -0.098813
C182  C     C_R   0.407919 0.000713 0.405602 -0.098783
C183  C     C_R   0.092680 0.500224 0.407003 -0.092185
C184  C     C_R   0.908073 0.499568 0.405333 -0.101245
C185  C     C_R   0.122417 0.964019 0.903313 0.133622
C186  C     C_R   0.878115 0.036376 0.902746 0.134060
C187  C     C_R   0.630698 0.524163 0.911282 0.117924
C188  C     C_R   0.380099 0.537696 0.900597 0.137801
C189  C     C_R   0.622129 0.963802 0.403002 0.134031
C190  C     C_R   0.377926 0.036236 0.402951 0.133841
C191  C     C_R   0.130745 0.475569 0.411197 0.117759
C192  C     C_R   0.880667 0.462229 0.400204 0.138529
C193  C     C_3   0.152351 0.946413 0.937745 -0.480679
C194  C     C_3   0.848471 0.054970 0.936914 -0.478913
C195  C     C_3   0.655860 0.554442 0.940818 -0.503436
C196  C     C_3   0.351556 0.559987 0.933675 -0.473669
C197  C     C_3   0.651919 0.945637 0.437294 -0.479702
C198  C     C_3   0.348184 0.054463 0.437214 -0.479785
C199  C     C_3   0.156114 0.445396 0.440791 -0.503526
C200  C     C_3   0.852485 0.439194 0.433017 -0.472057
C201  C     C_3   0.188016 0.947402 0.903613 -0.461113
C202  C     C_3   0.812756 0.053997 0.902781 -0.462434
C203  C     C_3   0.691279 0.553881 0.905431 -0.451512
C204  C     C_3   0.315755 0.559068 0.899627 -0.469119
C205  C     C_3   0.687597 0.946614 0.403173 -0.461939
C206  C     C_3   0.312478 0.053484 0.403074 -0.462054
C207  C     C_3   0.191570 0.446026 0.405442 -0.451462
C208  C     C_3   0.816699 0.440045 0.398948 -0.470450
H57   H     H_    0.157376 0.971107 0.964759 0.196456
H58   H     H_    0.843137 0.030778 0.964273 0.196326
H59   H     H_    0.857624 0.090006 0.946944 0.205164
H60   H     H_    0.143696 0.911399 0.948271 0.204958
H61   H     H_    0.640195 0.588236 0.945222 0.207794
H62   H     H_    0.345021 0.537820 0.962304 0.196172
H63   H     H_    0.362563 0.594971 0.941775 0.204798
H64   H     H_    0.665866 0.536751 0.971268 0.198176
H65   H     H_    0.657133 0.970051 0.464506 0.196381
H66   H     H_    0.342973 0.030082 0.464444 0.196394
H67   H     H_    0.357156 0.089492 0.447432 0.204855
H68   H     H_    0.642986 0.910611 0.447537 0.205127
H69   H     H_    0.165933 0.463143 0.471243 0.198166
H70   H     H_    0.864083 0.404264 0.440751 0.204771
H71   H     H_    0.845553 0.460944 0.461874 0.196149
H72   H     H_    0.140714 0.411563 0.445204 0.207628
H73   H     H_    0.213694 0.972813 0.910748 0.212249
H74   H     H_    0.786735 0.029097 0.910259 0.212330
H75   H     H_    0.801276 0.088470 0.893203 0.197862
H76   H     H_    0.199967 0.912962 0.894531 0.197532
H77   H     H_    0.695683 0.587206 0.888868 0.195546
H78   H     H_    0.288477 0.536203 0.908422 0.212772
H79   H     H_    0.306080 0.593525 0.888171 0.197907
H80   H     H_    0.721582 0.536471 0.915828 0.207478
H81   H     H_    0.713474 0.971736 0.410512 0.212261
H82   H     H_    0.286586 0.028393 0.410418 0.212369
H83   H     H_    0.300820 0.087947 0.393678 0.197525
H84   H     H_    0.699274 0.912152 0.393813 0.197779
H85   H     H_    0.221718 0.463534 0.415865 0.207465
H86   H     H_    0.807624 0.405603 0.387113 0.198042
H87   H     H_    0.789026 0.462456 0.407958 0.212864
H88   H     H_    0.196267 0.412699 0.388910 0.195477
O65   O     O_R   0.954900 0.964110 0.954900 -0.591199
O66   O     O_R   0.045100 0.035890 0.954900 -0.591061
O67   O     O_R   0.045100 0.964110 0.954900 -0.583777
O68   O     O_R   0.954900 0.035890 0.954900 -0.583628
O69   O     O_R   0.454900 0.464110 0.954900 -0.592299
O70   O     O_R   0.545100 0.535890 0.954900 -0.586648
O71   O     O_R   0.545100 0.464110 0.954900 -0.588358
O72   O     O_R   0.454900 0.535890 0.954900 -0.581646
O73   O     O_R   0.454900 0.964110 0.454900 -0.591044
O74   O     O_R   0.545100 0.035890 0.454900 -0.591204
O75   O     O_R   0.545100 0.964110 0.454900 -0.583616
O76   O     O_R   0.454900 0.035890 0.454900 -0.583817
O77   O     O_R   0.954900 0.464110 0.454900 -0.581703
O78   O     O_R   0.045100 0.535890 0.454900 -0.588271
O79   O     O_R   0.045100 0.464110 0.454900 -0.586628
O80   O     O_R   0.954900 0.535890 0.454900 -0.592262
C209  C     C_R   0.939697 0.000088 0.940252 0.817151
C210  C     C_R   0.060323 0.999909 0.940279 0.816743
C211  C     C_R   0.439784 0.500083 0.940131 0.816788
C212  C     C_R   0.560438 0.499919 0.940669 0.829743
C213  C     C_R   0.439689 0.000089 0.440263 0.817175
C214  C     C_R   0.560312 0.999910 0.440263 0.816725
C215  C     C_R   0.939785 0.499996 0.440125 0.816835
C216  C     C_R   0.060432 0.499994 0.440664 0.829814
O81   O     O_R   0.454900 0.964130 0.545070 -0.583104
O82   O     O_R   0.545100 0.035870 0.545070 -0.583368
O83   O     O_R   0.545100 0.964130 0.545070 -0.586924
O84   O     O_R   0.454900 0.035870 0.545070 -0.587092
O85   O     O_R   0.954900 0.464130 0.545070 -0.586907
O86   O     O_R   0.045100 0.535870 0.545070 -0.586420
O87   O     O_R   0.045100 0.464130 0.545070 -0.587317
O88   O     O_R   0.954900 0.535870 0.545070 -0.584334
O89   O     O_R   0.954900 0.964130 0.045070 -0.583394
O90   O     O_R   0.045100 0.035870 0.045070 -0.583130
O91   O     O_R   0.045100 0.964130 0.045070 -0.587181
O92   O     O_R   0.954900 0.035870 0.045070 -0.586767
O93   O     O_R   0.454900 0.464130 0.045070 -0.584086
O94   O     O_R   0.545100 0.535870 0.045070 -0.587315
O95   O     O_R   0.545100 0.464130 0.045070 -0.586342
O96   O     O_R   0.454900 0.535870 0.045070 -0.586956
C217  C     C_R   0.439674 0.000134 0.559557 0.832600
C218  C     C_R   0.560343 0.999866 0.559536 0.833020
C219  C     C_R   0.940161 0.499961 0.559954 0.835510
C220  C     C_R   0.060634 0.499833 0.559491 0.832532
C221  C     C_R   0.939702 0.000134 0.059582 0.832829
C222  C     C_R   0.060377 0.999867 0.059504 0.832797
C223  C     C_R   0.440105 0.500124 0.059906 0.835213
C224  C     C_R   0.560652 0.500091 0.059473 0.832564
Cu17  Cu    Cu3+1 0.000000 0.957530 0.999990 0.948677
Cu18  Cu    Cu3+1 1.000000 0.042470 0.999990 0.949503
Cu19  Cu    Cu3+1 0.500000 0.457530 0.999990 0.946591
Cu20  Cu    Cu3+1 0.500000 0.542470 0.999990 0.944319
Cu21  Cu    Cu3+1 0.500000 0.957530 0.499990 0.949488
Cu22  Cu    Cu3+1 0.500000 0.042470 0.499990 0.948667
Cu23  Cu    Cu3+1 1.000000 0.457530 0.499990 0.944373
Cu24  Cu    Cu3+1 0.000000 0.542470 0.499990 0.946583
C225  C     C_3   0.352930 0.957967 0.539482 -0.864277
H89   H     H_    0.377972 0.963064 0.514096 0.231575
H90   H     H_    0.348714 0.920873 0.544814 0.240471
H91   H     H_    0.322151 0.972304 0.526607 0.224276
C226  C     C_3   0.646989 0.042181 0.539542 -0.864596
H92   H     H_    0.621958 0.037042 0.514117 0.231657
H93   H     H_    0.651122 0.079281 0.544916 0.240228
H94   H     H_    0.677798 0.027933 0.526696 0.224336
C227  C     C_3   0.850712 0.532870 0.536776 -0.866099
H95   H     H_    0.876858 0.529316 0.512270 0.229294
H96   H     H_    0.822158 0.513930 0.524406 0.224639
H97   H     H_    0.842046 0.569455 0.539518 0.239755
C228  C     C_3   0.125098 0.422496 0.563646 -0.829682
H98   H     H_    0.154164 0.400498 0.567548 0.219886
H99   H     H_    0.096167 0.401611 0.571211 0.245597
H100  H     H_    0.123749 0.433720 0.529166 0.227318
C229  C     C_3   0.852763 0.958576 0.039271 -0.865019
H101  H     H_    0.877898 0.963559 0.013958 0.231512
H102  H     H_    0.848240 0.921496 0.044434 0.240086
H103  H     H_    0.822124 0.973243 0.026402 0.224395
C230  C     C_3   0.146773 0.042941 0.039816 -0.864134
H104  H     H_    0.177762 0.029127 0.026972 0.224221
H105  H     H_    0.121870 0.037650 0.014293 0.231760
H106  H     H_    0.150505 0.080056 0.045402 0.240439
C231  C     C_3   0.351138 0.465970 0.037099 -0.865539
H107  H     H_    0.377082 0.469875 0.012447 0.229658
H108  H     H_    0.343382 0.429239 0.040181 0.239898
H109  H     H_    0.322080 0.484191 0.024684 0.224490
C232  C     C_3   0.624917 0.577221 0.063459 -0.829522
H110  H     H_    0.653978 0.599077 0.067232 0.219777
H111  H     H_    0.623464 0.565958 0.029000 0.227477
H112  H     H_    0.595993 0.598265 0.071093 0.245626

loop_
_geom_bond_atom_site_label_1
_geom_bond_atom_site_label_2
_geom_bond_distance
_ccdc_geom_bond_type
O65   Cu17  1.969889 S    
C143  H40   1.111555 S    
C144  H39   1.111539 S    
O29   C21   1.315649 A    
C50   C66   1.480571 S    
C168  C176  1.399071 A    
Cu17  Cu18  2.495670 S    
O86   Cu24  1.969729 S    
C154  C162  1.404454 A    
C68   C71   1.248086 T    
Cu19  Cu20  2.495670 S    
C37   C53   1.248075 T    
O34   C10   1.315948 A    
O24   Cu3   1.832307 S    
Cu7   Cu15  2.687325 S    
C134  H18   1.109815 S    
O94   C224  1.235810 A    
C139  H29   1.111541 S    
C99   C107  1.403590 A    
C226  H92   1.107549 S    
C147  C155  1.383949 A    
C97   C105  1.404359 A    
O38   C14   1.315998 A    
C175  H55   1.083354 S    
C194  C202  1.519487 S    
C118  C222  1.443505 S    
C110  C118  1.416016 A    
C185  C193  1.493493 S    
O95   C224  1.242664 A    
O12   Cu12  1.973070 S    
C176  H56   1.083195 S    
C231  H107  1.107557 S    
O96   C223  1.233482 A    
C169  H49   1.083263 S    
O47   Cu16  1.832885 S    
C114  C218  1.443289 S    
O42   C18   1.315962 A    
C126  C134  1.491327 S    
C82   C138  1.490704 S    
C229  H102  1.110130 S    
C152  C192  1.379670 A    
C18   C42   1.506658 S    
O3    C3    1.296693 A    
C108  C116  1.423155 A    
C27   C155  1.437601 S    
C120  C128  1.396909 A    
C49   C65   1.480595 S    
C100  C108  1.404040 A    
O57   C25   1.290669 A    
C22   C46   1.506666 S    
C151  C159  1.384102 A    
O45   C21   1.315404 A    
C112  C120  1.423358 A    
C85   C141  1.490666 S    
Cu10  O58   1.969817 S    
C170  C178  1.404747 A    
C118  C126  1.394338 A    
C62   C78   1.480579 S    
C83   C139  1.493171 S    
O20   Cu1   1.832307 S    
Cu1   Cu9   2.687325 S    
C56   C72   1.480571 S    
C166  C174  1.398722 A    
C195  H64   1.111106 S    
C2    C90   1.445520 S    
C138  H27   1.111537 S    
C172  C180  1.405409 A    
C86   C94   1.389547 A    
C204  H79   1.111545 S    
C116  C220  1.453610 S    
Cu12  O60   1.969817 S    
O51   C27   1.293784 A    
O36   Cu9   1.832849 S    
C129  H9    1.109957 S    
C111  C231  1.507681 S    
C227  H97   1.110175 S    
C82   C122  1.377606 A    
C147  C203  1.487472 S    
O10   Cu10  1.973070 S    
O74   Cu22  1.971308 S    
O79   Cu23  1.972107 S    
C230  H106  1.110134 S    
C128  C136  1.494208 S    
C88   C144  1.491208 S    
C98   C106  1.403936 A    
C136  H23   1.111539 S    
O46   C22   1.315921 A    
C225  H91   1.110554 S    
C116  C124  1.396913 A    
O28   C20   1.315335 A    
O13   C5    1.289833 A    
C47   C63   1.248055 T    
C202  H75   1.111535 S    
C48   C64   1.248073 T    
O14   Cu14  1.973070 S    
O67   Cu17  1.972107 S    
C105  C225  1.507590 S    
C60   C76   1.480594 S    
Cu15  O63   1.971236 S    
C61   C77   1.480579 S    
O79   C216  1.236585 A    
C4    C92   1.435287 S    
O81   Cu21  1.971152 S    
C5    C93   1.446657 S    
C89   C97   1.407119 A    
C231  H109  1.110452 S    
C199  H72   1.111470 S    
C182  C213  1.445199 S    
O5    Cu5   1.971236 S    
C8    C96   1.435351 S    
O86   C220  1.242241 A    
C193  H57   1.111698 S    
O7    Cu7   1.971236 S    
C226  H94   1.110533 S    
C96   C104  1.399363 A    
C19   C43   1.506661 S    
O83   Cu21  1.970502 S    
Cu6   O54   1.973070 S    
O27   Cu6   1.832311 S    
O58   C26   1.290930 A    
C121  C129  1.491333 S    
O31   Cu8   1.832311 S    
Cu2   O50   1.973070 S    
C153  C161  1.404767 A    
C207  H88   1.111591 S    
Cu8   Cu16  2.689302 S    
O46   Cu16  1.832019 S    
C195  C203  1.540533 S    
O23   Cu4   1.832311 S    
O92   C221  1.234316 A    
C84   C124  1.376920 A    
O37   C13   1.315383 A    
C173  C181  1.404839 A    
C167  H47   1.083182 S    
C177  C210  1.445978 S    
C168  H48   1.083463 S    
C228  H98   1.110875 S    
C227  H96   1.110388 S    
O33   C9    1.315388 A    
C98   H2    1.084295 S    
C163  C171  1.408669 A    
O68   Cu18  1.970659 S    
C142  H35   1.111558 S    
C164  H44   1.083475 S    
O13   Cu13  1.974487 S    
C152  C208  1.491927 S    
O31   C23   1.315831 A    
C102  H6    1.084321 S    
C90   C98   1.406991 A    
C33   C49   1.248079 T    
O61   C29   1.290623 A    
C130  C138  1.515618 S    
O47   C23   1.316354 A    
C159  C167  1.412027 A    
O6    C6    1.298028 A    
C107  C115  1.415307 A    
C190  C198  1.493497 S    
C87   C127  1.377402 A    
C101  C109  1.404324 A    
C94   C102  1.406905 A    
C199  C207  1.540623 S    
C105  C113  1.416116 A    
C133  H17   1.110088 S    
Cu21  Cu22  2.495670 S    
O69   C211  1.239590 A    
O67   C210  1.237392 A    
O70   C212  1.236404 A    
C144  H38   1.112166 S    
C174  C182  1.404683 A    
O84   C217  1.234360 A    
O82   C218  1.238486 A    
O10   C2    1.290121 A    
C130  H11   1.111505 S    
C196  H63   1.111531 S    
O6    Cu6   1.969817 S    
O91   C222  1.234119 A    
C43   C59   1.248067 T    
O90   Cu18  1.969729 S    
C41   C57   1.248067 T    
C73   C78   1.248089 T    
O9    Cu9   1.974487 S    
C178  C186  1.395724 A    
C45   C61   1.248070 T    
C104  C112  1.403797 A    
C198  H66   1.111691 S    
C183  C216  1.434066 S    
C51   C67   1.480577 S    
O85   C219  1.233227 A    
O27   C19   1.315894 A    
C155  C163  1.412069 A    
C65   C70   1.248095 T    
C38   C54   1.248057 T    
O35   C11   1.316319 A    
C81   C89   1.389726 A    
C198  C206  1.519469 S    
C184  C192  1.396243 A    
C201  H76   1.111542 S    
Cu5   Cu13  2.687325 S    
C152  C160  1.392155 A    
C99   H3    1.084151 S    
O73   Cu21  1.969889 S    
O37   Cu11  1.832020 S    
O17   C9    1.315672 A    
C113  C121  1.394407 A    
Cu16  O64   1.969817 S    
C106  C226  1.507613 S    
C147  C187  1.347095 A    
C110  C230  1.507605 S    
C145  C185  1.380523 A    
O20   C12   1.315333 A    
C145  C153  1.393230 A    
O21   C13   1.315677 A    
O60   C28   1.290600 A    
C200  H71   1.111406 S    
O23   C15   1.315930 A    
O68   C209  1.237231 A    
O24   C16   1.315306 A    
O64   C32   1.290546 A    
C9    C33   1.506680 S    
O93   C223  1.237409 A    
C156  C164  1.403969 A    
O48   C24   1.315724 A    
O44   C20   1.315730 A    
C157  C165  1.404676 A    
O75   Cu21  1.972107 S    
C204  H78   1.112177 S    
C165  C173  1.399148 A    
O88   Cu24  1.971954 S    
C228  H100  1.107360 S    
C32   C160  1.439479 S    
C15   C39   1.506658 S    
Cu23  Cu24  2.495670 S    
C36   C52   1.248070 T    
C59   C75   1.480571 S    
C150  C158  1.392985 A    
C148  C156  1.392432 A    
C203  H77   1.111591 S    
O96   Cu20  1.971954 S    
O32   Cu7   1.832307 S    
C149  C157  1.393154 A    
O45   Cu15  1.832020 S    
O43   C19   1.316303 A    
O36   C12   1.315721 A    
C208  H87   1.112163 S    
C180  C188  1.396147 A    
O75   C214  1.237467 A    
C178  C209  1.445331 S    
C136  H22   1.111082 S    
C170  H50   1.083248 S    
O72   Cu20  1.970659 S    
O14   C6    1.290090 A    
C84   C92   1.388328 A    
C64   C80   1.480574 S    
Cu14  O62   1.969817 S    
C87   C95   1.392844 A    
C232  H112  1.109834 S    
C85   C125  1.377955 A    
C88   C96   1.388515 A    
C162  C170  1.398738 A    
O32   C24   1.315332 A    
C119  C223  1.440011 S    
C16   C40   1.506657 S    
C120  C224  1.453688 S    
C183  C191  1.384768 A    
C29   C157  1.442172 S    
C134  H19   1.111526 S    
C139  H32   1.112234 S    
C123  C131  1.492835 S    
O1    C1    1.297721 A    
O40   Cu11  1.832849 S    
C206  H82   1.112164 S    
C25   C153  1.442348 S    
C88   C128  1.377135 A    
C200  C208  1.519594 S    
O25   Cu5   1.833139 S    
O81   C217  1.238740 A    
O7    C7    1.296684 A    
O82   Cu22  1.969729 S    
O8    C8    1.293447 A    
O17   Cu1   1.833139 S    
C12   C36   1.506670 S    
C180  C211  1.446662 S    
C93   C101  1.407171 A    
C141  H36   1.111543 S    
C181  C214  1.446182 S    
C134  C142  1.515635 S    
C229  H101  1.107554 S    
C149  C205  1.492068 S    
C10   C34   1.506647 S    
C203  H80   1.111507 S    
C58   C74   1.480579 S    
O53   C29   1.294813 A    
O80   Cu24  1.970659 S    
C34   C50   1.248061 T    
C109  C117  1.416048 A    
C132  H14   1.111540 S    
Cu4   Cu12  2.689302 S    
C191  C199  1.488827 S    
C101  H5    1.084279 S    
C135  H21   1.111509 S    
C148  C188  1.379918 A    
O11   C3    1.292536 A    
O72   C211  1.237690 A    
O80   C215  1.239931 A    
O28   Cu5   1.832307 S    
O39   C15   1.316276 A    
O40   C16   1.315746 A    
C7    C95   1.449641 S    
C181  C189  1.395815 A    
C186  C194  1.493497 S    
C97   H1    1.084288 S    
C132  C140  1.519219 S    
C197  H68   1.111516 S    
O63   C31   1.289747 A    
O66   C210  1.239592 A    
O65   C209  1.239383 A    
C230  H105  1.107543 S    
C100  H4    1.084486 S    
C196  H62   1.111428 S    
O41   C17   1.315380 A    
C125  C133  1.491343 S    
Cu4   O52   1.973070 S    
C225  H90   1.110130 S    
C102  C110  1.403957 A    
C104  H8    1.084504 S    
C17   C41   1.506656 S    
C83   C91   1.392915 A    
C92   C100  1.399562 A    
C109  C229  1.507594 S    
C143  H37   1.112232 S    
O77   C215  1.237479 A    
C21   C45   1.506665 S    
C86   C142  1.490691 S    
Cu11  O59   1.971236 S    
C231  H108  1.110181 S    
C23   C47   1.506617 S    
Cu2   Cu10  2.689302 S    
O43   Cu14  1.832885 S    
C135  C143  1.518569 S    
C226  H93   1.110124 S    
C201  H73   1.112179 S    
C13   C37   1.506684 S    
C42   C58   1.248067 T    
C74   C77   1.248091 T    
C161  C169  1.399116 A    
C163  H43   1.083180 S    
C232  H110  1.110875 S    
C81   C121  1.377957 A    
O54   C30   1.295134 A    
C39   C55   1.248067 T    
C200  H70   1.111522 S    
C40   C56   1.248067 T    
O5    C5    1.297741 A    
C131  H16   1.111526 S    
C193  C201  1.519501 S    
Cu7   O55   1.974487 S    
C140  H31   1.112166 S    
O29   Cu7   1.833139 S    
O91   Cu17  1.970502 S    
C124  C132  1.494206 S    
C82   C90   1.389572 A    
C229  H103  1.110538 S    
O33   Cu9   1.832020 S    
C119  C127  1.393124 A    
C146  C202  1.492095 S    
O39   Cu12  1.832885 S    
O18   C10   1.316246 A    
O50   C26   1.295105 A    
O78   Cu24  1.971308 S    
C108  C228  1.507126 S    
O21   Cu3   1.833139 S    
O30   C22   1.316285 A    
C24   C48   1.506676 S    
C137  H28   1.111546 S    
O22   C14   1.316189 A    
O62   C30   1.290962 A    
O19   C11   1.315884 A    
C208  H86   1.111534 S    
C195  H61   1.111479 S    
C138  H26   1.112252 S    
C164  C172  1.398878 A    
C158  C166  1.404508 A    
O89   C221  1.238686 A    
C44   C60   1.248084 T    
C205  H84   1.111524 S    
C107  C227  1.507666 S    
C193  H60   1.111538 S    
C28   C156  1.439806 S    
O83   C218  1.234044 A    
C63   C79   1.480574 S    
C184  C215  1.446906 S    
O59   C27   1.289766 A    
C232  H111  1.107245 S    
O1    Cu1   1.971236 S    
C91   C99   1.407487 A    
Cu1   O49   1.974487 S    
C192  C200  1.493525 S    
O93   Cu19  1.971152 S    
Cu3   Cu11  2.687325 S    
C171  H51   1.083349 S    
C151  C207  1.487535 S    
C149  C189  1.380511 A    
C179  C212  1.434142 S    
C146  C154  1.392935 A    
C55   C71   1.480574 S    
C131  H13   1.111570 S    
O92   Cu18  1.971954 S    
C46   C62   1.248069 T    
C202  H74   1.112157 S    
O69   Cu19  1.969889 S    
O84   Cu22  1.971954 S    
C14   C38   1.506625 S    
O88   C219  1.237468 A    
O70   Cu20  1.971308 S    
C150  C206  1.492109 S    
C117  C221  1.444132 S    
O11   Cu11  1.974487 S    
O30   Cu8   1.833170 S    
C115  C219  1.439605 S    
O87   C220  1.236204 A    
C133  C141  1.515652 S    
C198  H67   1.111527 S    
O16   Cu16  1.973070 S    
C199  H69   1.111129 S    
C113  C217  1.444322 S    
O85   Cu23  1.971152 S    
O71   Cu19  1.972107 S    
C31   C159  1.437665 S    
C30   C158  1.441096 S    
C141  H33   1.112257 S    
O2    C2    1.298080 A    
C189  C197  1.493482 S    
O34   Cu10  1.832019 S    
C20   C44   1.506693 S    
C160  C168  1.403976 A    
O25   C17   1.315671 A    
C35   C51   1.248073 T    
O56   C32   1.294746 A    
C148  C204  1.491945 S    
C115  C123  1.392944 A    
O95   Cu19  1.970502 S    
O94   Cu20  1.969729 S    
O44   Cu13  1.832849 S    
C3    C91   1.449864 S    
C207  H85   1.111505 S    
C136  C144  1.519281 S    
C175  C183  1.409616 A    
C1    C89   1.446515 S    
C176  C184  1.405490 A    
O73   C213  1.239364 A    
C85   C93   1.389781 A    
C66   C69   1.248086 T    
O22   Cu4   1.833170 S    
C194  H58   1.111676 S    
C228  H99   1.109829 S    
C196  C204  1.519599 S    
C179  C187  1.384802 A    
C131  C139  1.518441 S    
C142  H34   1.112259 S    
C182  C190  1.395687 A    
C117  C125  1.394331 A    
C132  H15   1.111044 S    
C197  H65   1.111692 S    
Cu8   O56   1.973070 S    
O19   Cu2   1.832311 S    
O2    Cu2   1.969817 S    
C171  C179  1.409647 A    
C172  H52   1.083226 S    
O15   C7    1.292437 A    
C173  H53   1.083240 S    
O16   C8    1.289659 A    
C167  C175  1.408531 A    
C150  C190  1.380147 A    
O12   C4    1.289652 A    
C114  C122  1.394260 A    
C129  H12   1.111514 S    
O26   C18   1.316234 A    
C6    C94   1.445351 S    
O52   C28   1.294853 A    
C81   C137  1.490638 S    
C146  C186  1.380132 A    
O87   Cu23  1.970502 S    
C57   C73   1.480574 S    
C52   C68   1.480577 S    
O41   Cu13  1.832020 S    
C53   C69   1.480579 S    
C130  H10   1.109930 S    
C83   C123  1.377387 A    
O48   Cu15  1.832849 S    
O66   Cu18  1.971308 S    
C103  C111  1.403607 A    
C206  H83   1.111534 S    
C194  H59   1.111522 S    
C112  C232  1.507190 S    
C162  H42   1.083456 S    
C174  H54   1.083255 S    
C111  C119  1.415466 A    
C84   C140  1.491203 S    
O76   Cu22  1.970659 S    
O77   Cu23  1.969889 S    
O78   C216  1.234516 A    
C86   C126  1.377621 A    
C140  H30   1.111539 S    
O9    C1    1.289784 A    
O38   Cu12  1.832019 S    
C187  C195  1.488874 S    
O71   C212  1.234727 A    
O49   C25   1.294860 A    
Cu13  O61   1.971236 S    
O3    Cu3   1.971236 S    
Cu5   O53   1.974487 S    
O15   Cu15  1.974487 S    
O76   C213  1.237183 A    
C137  H25   1.112253 S    
C54   C70   1.480582 S    
C75   C80   1.248086 T    
C95   C103  1.407366 A    
C76   C79   1.248092 T    
C177  C185  1.395770 A    
C127  C135  1.492868 S    
O89   Cu17  1.971152 S    
C87   C143  1.493131 S    
C103  H7    1.084188 S    
O4    C4    1.293419 A    
Cu3   O51   1.974487 S    
C135  H24   1.111581 S    
C188  C196  1.493505 S    
C151  C191  1.347228 A    
C122  C130  1.491309 S    
C205  H81   1.112153 S    
C67   C72   1.248089 T    
C169  C177  1.404746 A    
O55   C31   1.293832 A    
O26   Cu6   1.833170 S    
C26   C154  1.440975 S    
Cu6   Cu14  2.689302 S    
C227  H95   1.107577 S    
C129  C137  1.515674 S    
Cu9   O57   1.971236 S    
O18   Cu2   1.833170 S    
C166  H46   1.083457 S    
C230  H104  1.110588 S    
O74   C214  1.239613 A    
O4    Cu4   1.969817 S    
C145  C201  1.492093 S    
O42   Cu14  1.832019 S    
C197  C205  1.519543 S    
C106  C114  1.415921 A    
C11   C35   1.506669 S    
C225  H89   1.107554 S    
C165  H45   1.083441 S    
O8    Cu8   1.969817 S    
O35   Cu10  1.832885 S    
O90   C222  1.238525 A    
C161  H41   1.083451 S    
C133  H20   1.111513 S    
