data_mof_unit_19145.cif
_audit_creation_date              2012-12-11T17:06:36-0500
_audit_creation_method            fapswitch 2.2
_symmetry_space_group_name_H-M    P1
_symmetry_Int_Tables_number       1
_space_group_crystal_system       triclinic
_cell_length_a                    7.026123
_cell_length_b                    14.360987
_cell_length_c                    16.152363
_cell_angle_alpha                 90.521353
_cell_angle_beta                  89.514308
_cell_angle_gamma                 90.239286
_cell_volume                      1629.66699711

loop_
_atom_site_label
_atom_site_type_symbol
_atom_type_description
_atom_site_fract_x
_atom_site_fract_y
_atom_site_fract_z
_atom_type_partial_charge
O1    O     O_R   0.494400 0.415450 0.412630 -0.539663
O2    O     O_R   0.823940 0.405730 0.586760 -0.533481
O3    O     O_R   0.994240 0.584550 0.587370 -0.545271
C1    C     C_R   0.652877 0.386110 0.617162 0.720478
O4    O     O_R   0.824110 0.404430 0.413240 -0.547968
O5    O     O_R   0.994420 0.583240 0.412620 -0.542317
C2    C     C_R   0.655599 0.380208 0.385664 0.724660
O6    O     O_R   0.494230 0.416760 0.587380 -0.549335
O7    O     O_3   0.660800 0.558670 0.500000 -0.371008
V1    V     V_3+5 0.935650 0.489120 0.500000 1.385513
O8    O     O_R   0.324140 0.594270 0.413240 -0.540537
C3    C     C_R   0.155712 0.616640 0.384946 0.687803
O9    O     O_R   0.323960 0.595570 0.586760 -0.531084
C4    C     C_R   0.154676 0.617727 0.615295 0.715938
V2    V     V_3+5 0.435660 0.510880 0.500000 1.399087
O10   O     O_3   0.160640 0.441330 0.500000 -0.383363
C5    C     C_3   0.954953 0.714039 0.732949 -0.334628
C6    C     C_3   0.066607 0.707719 0.814813 0.374783
C7    C     C_3   0.123087 0.811158 0.809211 -0.169493
C8    C     C_3   0.016172 0.817349 0.726940 0.506646
C9    C     C_3   0.199534 0.791982 0.678140 -0.245822
C10   C     C_3   0.308771 0.785216 0.761426 -0.304539
C11   C     C_3   0.250070 0.681702 0.767826 0.454791
C12   C     C_3   0.142096 0.687794 0.685309 -0.163162
C13   C     C_R   0.285797 0.801577 0.226184 0.025667
C14   C     C_R   0.121621 0.809040 0.178433 -0.084572
C15   C     C_R   0.967931 0.751613 0.200577 -0.174509
C16   C     C_R   0.977993 0.691082 0.268529 -0.166175
H1    H     H_    0.860113 0.644245 0.280008 0.133701
C17   C     C_R   0.142879 0.686289 0.317522 -0.072696
C18   C     C_R   0.293396 0.746711 0.297396 0.005155
C19   C     C_3   0.495100 0.721207 0.281013 -0.410042
C20   C     C_3   0.478916 0.770366 0.198699 0.337553
C21   C     C_R   0.493448 0.250790 0.690698 -0.015313
C22   C     C_R   0.633238 0.321321 0.688574 -0.218343
C23   C     C_R   0.761651 0.324652 0.754492 -0.200655
H2    H     H_    0.859885 0.381877 0.758538 0.156791
C24   C     C_R   0.758115 0.257098 0.817829 0.461564
C25   C     C_R   0.626268 0.182160 0.814565 -0.160584
C26   C     C_R   0.501884 0.178176 0.747505 -0.098422
C27   C     C_3   0.293611 0.163190 0.750426 -0.422219
C28   C     C_3   0.277348 0.252956 0.701001 0.845733
C29   C     C_R   0.473140 0.294915 0.275730 -0.096353
C30   C     C_R   0.644872 0.308930 0.317665 -0.091419
C31   C     C_R   0.781604 0.238239 0.307044 -0.213873
H3    H     H_    0.894752 0.231699 0.351147 0.104497
C32   C     C_R   0.757860 0.168937 0.244719 0.590330
C33   C     C_R   0.620356 0.180310 0.182884 -0.193253
C34   C     C_R   0.463229 0.234176 0.205957 -0.169754
C35   C     C_3   0.286951 0.187381 0.239073 0.871729
C36   C     C_3   0.308746 0.246938 0.317283 0.181023
H4    H     H_    0.189849 0.295837 0.331271 0.047394
O11   O     O_R   0.771650 0.079500 0.908680 -0.520051
O12   O     O_R   0.441690 0.091800 0.082800 -0.518405
O13   O     O_R   0.271460 0.912980 0.083410 -0.543352
C37   C     C_R   0.610120 0.113904 0.111613 0.758866
O14   O     O_R   0.441930 0.090510 0.909280 -0.552408
O15   O     O_R   0.271690 0.911670 0.908660 -0.558430
C38   C     C_R   0.611937 0.112953 0.881614 0.739820
O16   O     O_R   0.771410 0.080810 0.083440 -0.506884
O17   O     O_3   0.605100 0.937580 0.996050 -0.406635
V3    V     V_3+5 0.330220 0.007110 0.996030 1.483319
O18   O     O_R   0.941980 0.900620 0.909250 -0.529429
C39   C     C_R   0.111040 0.879808 0.879961 0.752764
O19   O     O_R   0.941740 0.901920 0.082770 -0.549981
C40   C     C_R   0.110532 0.877738 0.109795 0.713533
V4    V     V_3+5 0.830220 0.985300 0.996000 1.503461
O20   O     O_3   0.105210 0.054870 0.996020 -0.347817
O21   O     O_3   0.996916 0.671949 0.890367 -0.564442
C41   C     C_3   0.963206 0.575681 0.882503 -0.275424
H5    H     H_    0.099022 0.536727 0.883829 0.183588
H6    H     H_    0.880964 0.557541 0.825990 0.127683
H7    H     H_    0.877857 0.553017 0.936792 0.150909
H8    H     H_    0.592633 0.757091 0.324909 0.118033
O22   O     O_3   0.468978 0.701661 0.135074 -0.548502
C42   C     C_3   0.530503 0.735767 0.057925 -0.180549
H9    H     H_    0.587546 0.676384 0.021333 0.139106
H10   H     H_    0.647666 0.787179 0.062018 0.140103
H11   H     H_    0.408465 0.764730 0.023788 0.149042
H12   H     H_    0.580640 0.829340 0.190874 0.029279
O23   O     O_3   0.885699 0.264761 0.882105 -0.536532
C43   C     C_3   0.806510 0.323771 0.943392 -0.223847
H13   H     H_    0.687146 0.288342 0.976243 0.108079
H14   H     H_    0.757433 0.391123 0.917616 0.110163
H15   H     H_    0.918086 0.340375 0.989305 0.152402
H16   H     H_    0.229214 0.168795 0.813320 0.213094
H17   H     H_    0.256938 0.097737 0.716896 0.141351
O24   O     O_3   0.206276 0.323916 0.754802 -0.567057
C44   C     C_3   0.223007 0.413244 0.720612 -0.143454
H18   H     H_    0.130585 0.461478 0.755852 0.119706
H19   H     H_    0.174769 0.415462 0.655638 0.188638
H20   H     H_    0.368858 0.440524 0.728790 0.169843
O25   O     O_3   0.181079 0.247008 0.624213 -0.586401
C45   C     C_3   0.016673 0.189851 0.626601 -0.301246
H21   H     H_    0.952103 0.183221 0.689012 0.171265
H22   H     H_    0.052456 0.119269 0.602778 0.136179
H23   H     H_    0.908557 0.219188 0.584749 0.168992
H24   H     H_    0.810943 0.684971 0.721159 0.153108
O26   O     O_3   0.858345 0.086852 0.248119 -0.541926
C46   C     C_3   0.744115 0.019068 0.287842 -0.298946
H25   H     H_    0.626737 0.995444 0.247134 0.165706
H26   H     H_    0.687648 0.044485 0.348591 0.156033
H27   H     H_    0.831246 0.956669 0.300140 0.131431
O27   O     O_3   0.323018 0.089907 0.246528 -0.562260
C47   C     C_3   0.220603 0.043872 0.309571 -0.113503
H28   H     H_    0.113416 0.087447 0.342108 0.162217
H29   H     H_    0.322236 0.017970 0.356140 0.121593
H30   H     H_    0.150980 0.981794 0.282240 0.144321
O28   O     O_3   0.121479 0.203030 0.190840 -0.541112
C48   C     C_3   0.108635 0.292587 0.155250 -0.313071
H31   H     H_    0.208277 0.298915 0.101800 0.159983
H32   H     H_    0.132422 0.349622 0.200838 0.114421
H33   H     H_    0.962407 0.301318 0.131463 0.157788
O29   O     O_3   0.379701 0.193848 0.383775 -0.573782
C49   C     C_3   0.280144 0.212614 0.457210 -0.217231
H34   H     H_    0.329477 0.162283 0.503941 0.175032
H35   H     H_    0.124307 0.202920 0.450007 0.117228
H36   H     H_    0.313703 0.283575 0.479938 0.215801
O30   O     O_3   0.896500 0.893414 0.710141 -0.554420
C50   C     C_3   0.804988 0.878287 0.633944 -0.272873
H37   H     H_    0.705724 0.817908 0.637311 0.146827
H38   H     H_    0.909338 0.868579 0.582425 0.126508
H39   H     H_    0.719032 0.940681 0.619747 0.157742
H40   H     H_    0.252132 0.826568 0.621132 0.121386
H41   H     H_    0.452507 0.814512 0.773443 0.163440
O31   O     O_3   0.371923 0.606756 0.784740 -0.574376
C51   C     C_3   0.468189 0.624170 0.859274 -0.309325
H42   H     H_    0.541943 0.559513 0.877427 0.160279
H43   H     H_    0.368670 0.642648 0.910584 0.164713
H44   H     H_    0.577112 0.679734 0.851123 0.171290
H45   H     H_    0.845085 0.748862 0.162154 0.143443
H46   H     H_    0.516645 0.644657 0.275593 0.193177

loop_
_geom_bond_atom_site_label_1
_geom_bond_atom_site_label_2
_ccdc_geom_bond_type
C13   C18   A    
O15   V3    S    
C35   O27   S    
O25   C45   S    
C28   O25   S    
C15   H45   S    
C27   C28   S    
C22   C23   A    
C21   C28   S    
C42   H11   S    
C1    O6    A    
O29   C49   S    
O11   C38   A    
O14   V3    S    
C31   H3    S    
C50   H37   S    
C27   H16   S    
C47   H29   S    
C14   C15   A    
O31   C51   S    
C21   C26   A    
C23   H2    S    
C42   H10   S    
C6    C7    S    
O5    C3    A    
C17   C18   A    
O14   C38   A    
V2    O10   S    
O13   V3    S    
C5    C8    S    
C32   O26   S    
C21   C22   A    
C4    C12   S    
C48   H31   S    
O8    V2    S    
C20   O22   S    
C7    C8    S    
O16   V4    S    
C49   H35   S    
C11   C12   S    
C41   H5    S    
O1    V2    S    
C44   H19   S    
C5    H24   S    
O17   V3    S    
C50   H39   S    
C6    O21   S    
C1    C22   S    
O9    C4    A    
O21   C41   S    
O27   C47   S    
C50   H38   S    
O23   C43   S    
O18   V4    S    
C31   C32   A    
O15   C39   A    
C27   H17   S    
C47   H30   S    
O12   C37   A    
C5    C12   S    
C6    C11   S    
C36   O29   S    
C7    C10   S    
C42   H9    S    
C25   C26   A    
O4    C2    A    
C29   C34   A    
C10   H41   S    
O12   V3    S    
C45   H23   S    
O19   V4    S    
C13   C14   A    
C46   H27   S    
V4    O20   S    
C14   C40   S    
O2    C1    A    
O22   C42   S    
C51   H43   S    
O17   V4    S    
C32   C33   A    
C7    C39   S    
O30   C50   S    
C49   H36   S    
C25   C38   S    
C41   H7    S    
C46   H26   S    
C5    C6    S    
C35   C36   S    
C2    C30   S    
C8    C9    S    
C44   H20   S    
C45   H22   S    
C48   H33   S    
O3    C4    A    
C11   O31   S    
C26   C27   S    
C43   H13   S    
O6    V2    S    
C43   H14   S    
O9    V2    S    
C29   C30   A    
C28   O24   S    
O19   C40   A    
C51   H42   S    
O2    V1    S    
C19   H46   S    
O13   C40   A    
C30   C31   A    
O7    V1    S    
C33   C37   S    
C16   H1    S    
C3    C17   S    
O1    C2    A    
C18   C19   S    
O5    V1    S    
O8    C3    A    
C20   H12   S    
C43   H15   S    
C47   H28   S    
O26   C46   S    
V3    O20   S    
C19   C20   S    
C9    H40   S    
C23   C24   A    
O7    V2    S    
C51   H44   S    
C36   H4    S    
C24   O23   S    
O3    V1    S    
V1    O10   S    
O28   C48   S    
C19   H8    S    
C29   C36   S    
C24   C25   A    
C33   C34   A    
C16   C17   A    
C46   H25   S    
C35   O28   S    
C45   H21   S    
O11   V4    S    
C48   H32   S    
O18   C39   A    
C37   O16   A    
O4    V1    S    
O24   C44   S    
C34   C35   S    
C9    C12   S    
C15   C16   A    
C10   C11   S    
C41   H6    S    
C44   H18   S    
C9    C10   S    
C8    O30   S    
C49   H34   S    
C13   C20   S    
