data_mof_unit_21570.cif
_audit_creation_date              2012-12-10T18:49:58-0500
_audit_creation_method            fapswitch 2.2
_symmetry_space_group_name_H-M    P1
_symmetry_Int_Tables_number       1
_space_group_crystal_system       triclinic
_cell_length_a                    10.635676
_cell_length_b                    10.00777
_cell_length_c                    10.637812
_cell_angle_alpha                 89.458986
_cell_angle_beta                  93.93379
_cell_angle_gamma                 89.74012
_cell_volume                      1129.5490473

loop_
_atom_site_label
_atom_site_type_symbol
_atom_type_description
_atom_site_fract_x
_atom_site_fract_y
_atom_site_fract_z
_atom_type_partial_charge
C1    C     C_R   0.260612 0.500299 0.501647 0.849244
C2    C     C_3   0.619786 0.418584 0.936561 -0.411342
C3    C     C_R   0.070403 0.409938 0.581641 -0.193080
C4    C     C_R   0.058690 0.592344 0.427676 -0.230034
C5    C     C_R   0.940985 0.407916 0.579521 -0.203221
C6    C     C_R   0.929813 0.592166 0.427094 -0.190490
C7    C     C_R   0.871996 0.499436 0.502409 -0.001447
C8    C     C_R   0.128068 0.501348 0.504514 0.013938
C9    C     C_R   0.586319 0.069987 0.573550 -0.121880
C10   C     C_R   0.586176 0.927687 0.573744 -0.115089
C11   C     C_R   0.412003 0.929059 0.422640 0.141143
C12   C     C_R   0.410772 0.073688 0.425410 0.165259
C13   C     C_R   0.502457 0.500298 0.258209 0.814735
C14   C     C_R   0.739409 0.499701 0.501236 0.850622
C15   C     C_R   0.502823 0.499697 0.742050 0.821076
C16   C     C_3   0.514913 0.644856 0.070760 -0.410059
C17   C     C_3   0.383651 0.432526 0.064121 -0.410567
C18   C     C_3   0.514085 0.645133 0.928230 -0.391925
C19   C     C_3   0.381488 0.436421 0.919979 -0.397049
C20   C     C_3   0.621025 0.420115 0.081510 -0.389728
C21   C     C_3   0.505266 0.499895 0.121638 0.196744
C22   C     C_3   0.504762 0.499673 0.878811 0.189455
H1    H     H_    0.602946 0.692766 0.110814 0.174492
H2    H     H_    0.380087 0.326561 0.096377 0.170378
H3    H     H_    0.434776 0.705599 0.098483 0.204330
H4    H     H_    0.298065 0.482256 0.095302 0.149518
H5    H     H_    0.432517 0.706151 0.888726 0.184196
H6    H     H_    0.298603 0.495712 0.881157 0.158530
H7    H     H_    0.601837 0.693252 0.898906 0.171000
H8    H     H_    0.370728 0.332995 0.883226 0.174667
H9    H     H_    0.709779 0.466473 0.121479 0.155398
H10   H     H_    0.619111 0.315527 0.117877 0.180030
H11   H     H_    0.708883 0.462309 0.905898 0.152433
H12   H     H_    0.615171 0.313365 0.903603 0.176449
H13   H     H_    0.125302 0.341027 0.642721 0.130483
H14   H     H_    0.103890 0.660594 0.366407 0.151112
H15   H     H_    0.894902 0.337237 0.638775 0.134785
H16   H     H_    0.875308 0.661980 0.366551 0.142855
H17   H     H_    0.656284 0.121874 0.633162 0.133549
H18   H     H_    0.655775 0.873941 0.633793 0.138044
N1    N     N_R   0.499970 0.857200 0.499970 -0.113506
N2    N     N_R   0.499970 0.142800 0.499970 -0.111597
O1    O     O_R   0.316750 0.614620 0.499990 -0.645977
O2    O     O_R   0.316750 0.385380 0.499990 -0.634078
O3    O     O_R   0.499970 0.614670 0.314790 -0.645112
O4    O     O_R   0.499970 0.385330 0.314790 -0.651617
O5    O     O_R   0.683220 0.614710 0.500010 -0.616810
O6    O     O_R   0.683220 0.385290 0.500010 -0.616308
O7    O     O_R   0.500010 0.614660 0.685200 -0.622012
O8    O     O_R   0.500010 0.385340 0.685200 -0.623704
Zn1   Zn    Zn3+2 0.499980 0.653120 0.500000 0.916158
Zn2   Zn    Zn3+2 0.499980 0.346880 0.500000 0.914147
C23   C     C_3   0.307519 0.851735 0.347861 -0.386856
C24   C     C_3   0.270237 0.885736 0.207825 -0.427694
C25   C     C_3   0.193856 0.773894 0.142064 -0.945689
H19   H     H_    0.193136 0.787440 0.038278 0.259646
H20   H     H_    0.233457 0.674392 0.167817 0.253736
H21   H     H_    0.094881 0.776897 0.169253 0.260542
H22   H     H_    0.205045 0.971525 0.197415 0.253696
H23   H     H_    0.355963 0.906919 0.157215 0.221838
H24   H     H_    0.340548 0.751042 0.341891 0.287843
H25   H     H_    0.223142 0.847791 0.403070 0.180442
C26   C     C_3   0.314992 0.151833 0.341413 -0.373369
C27   C     C_3   0.179266 0.146642 0.383982 -0.357118
C28   C     C_3   0.089649 0.230908 0.296782 -0.878445
H26   H     H_    0.124017 0.335080 0.289939 0.261214
H27   H     H_    0.081757 0.187510 0.200897 0.246547
H28   H     H_    0.994628 0.232731 0.333997 0.264158
H29   H     H_    0.141204 0.044596 0.385745 0.215280
H30   H     H_    0.178053 0.183574 0.481656 0.241123
H31   H     H_    0.338672 0.255409 0.336913 0.269863
H32   H     H_    0.324196 0.128125 0.241641 0.145101

loop_
_geom_bond_atom_site_label_1
_geom_bond_atom_site_label_2
_ccdc_geom_bond_type
C2    C22   S    
O8    Zn2   S    
C11   C12   A    
C4    H14   S    
C16   C21   S    
C16   H3    S    
C18   C22   S    
C27   H30   S    
C16   H1    S    
C1    C8    S    
C23   H25   S    
C1    O2    A    
C11   C23   S    
C3    H13   S    
C25   H19   S    
C28   H28   S    
O1    Zn1   S    
C27   C28   S    
C2    H12   S    
C25   H20   S    
C3    C5    A    
C13   C21   S    
C18   H7    S    
C24   H23   S    
C23   C24   S    
C26   H32   S    
C10   N1    A    
C13   O3    A    
C19   H6    S    
O2    Zn2   S    
C9    N2    A    
C14   O5    A    
C23   H24   S    
C15   O8    A    
C4    C6    A    
C17   H4    S    
C2    H11   S    
C10   H18   S    
C17   C19   S    
N1    Zn1   S    
C26   H31   S    
C11   N1    A    
C6    C7    A    
C5    H15   S    
C24   H22   S    
C15   O7    A    
C20   H10   S    
C13   O4    A    
C17   C21   S    
C3    C8    A    
C17   H2    S    
O3    Zn1   S    
C12   N2    A    
C26   C27   S    
O4    Zn2   S    
C9    H17   S    
C19   C22   S    
O6    Zn2   S    
C20   C21   S    
C16   C18   S    
C28   H26   S    
C9    C10   A    
C25   H21   S    
C4    C8    A    
C5    C7    A    
C12   C26   S    
C14   O6    A    
C24   C25   S    
O5    Zn1   S    
O7    Zn1   S    
C6    H16   S    
C27   H29   S    
C19   H8    S    
C2    C20   S    
C1    O1    A    
C15   C22   S    
C7    C14   S    
C18   H5    S    
N2    Zn2   S    
C28   H27   S    
C20   H9    S    
