data_mof_unit_64920.cif
_audit_creation_date              2012-12-10T16:46:09-0500
_audit_creation_method            fapswitch 2.2
_symmetry_space_group_name_H-M    P1
_symmetry_Int_Tables_number       1
_space_group_crystal_system       monoclinic
_cell_length_a                    18.497251
_cell_length_b                    18.497255
_cell_length_c                    34.474208
_cell_angle_alpha                 90.0
_cell_angle_beta                  90.000015
_cell_angle_gamma                 90.0
_cell_volume                      11795.2940241

loop_
_atom_site_label
_atom_site_type_symbol
_atom_type_description
_atom_site_fract_x
_atom_site_fract_y
_atom_site_fract_z
_atom_type_partial_charge
C1    C     C_R   0.500000 0.000000 0.605826 0.922656
C2    C     C_R   0.072813 0.609930 0.229702 0.637638
C3    C     C_R   0.535931 0.055075 0.668445 0.641343
C4    C     C_R   0.444925 0.035930 0.168444 0.641344
C5    C     C_R   0.964070 0.444925 0.168444 0.641345
C6    C     C_R   0.555075 0.964070 0.168445 0.641343
C7    C     C_R   0.035930 0.555075 0.168445 0.641343
C8    C     C_R   0.000000 0.500000 0.648250 -0.369292
C9    C     C_R   0.500000 0.000000 0.648250 -0.369291
C10   C     C_R   0.500000 0.000000 0.148250 -0.369292
C11   C     C_R   1.000000 0.500000 0.148250 -0.369292
C12   C     C_R   0.055390 0.463481 0.709091 -0.218784
C13   C     C_R   0.390070 0.072812 0.229702 0.637639
C14   C     C_R   0.536519 0.055390 0.709091 -0.218784
C15   C     C_R   0.944609 0.536519 0.709091 -0.218785
C16   C     C_R   0.463481 0.944610 0.709091 -0.218785
C17   C     C_R   0.555391 0.963482 0.209091 -0.218785
C18   C     C_R   0.036519 0.555391 0.209091 -0.218785
C19   C     C_R   0.444609 0.036519 0.209091 -0.218785
C20   C     C_R   0.963481 0.444609 0.209091 -0.218786
C21   C     C_R   1.000000 0.500000 0.729552 -0.191642
C22   C     C_R   0.500000 1.000000 0.729552 -0.191642
C23   C     C_R   0.500000 0.000000 0.229552 -0.191642
C24   C     C_R   0.927187 0.390071 0.229702 0.637639
C25   C     C_R   1.000000 0.500000 0.229552 -0.191641
C26   C     C_3   0.110807 0.803641 0.435219 0.158219
C27   C     C_3   0.030384 0.800908 0.425955 -0.703793
C28   C     C_3   0.196357 0.110807 0.435220 0.158221
C29   C     C_3   0.199091 0.030384 0.425955 -0.703793
C30   C     C_3   0.889192 0.196357 0.435219 0.158223
C31   C     C_3   0.969615 0.199091 0.425954 -0.703793
C32   C     C_3   0.803642 0.889191 0.435218 0.158222
C33   C     C_3   0.800908 0.969613 0.425953 -0.703793
C34   C     C_3   0.795979 0.692819 0.414014 0.054125
C35   C     C_R   0.609374 0.926102 0.270029 0.545527
C36   C     C_3   0.835711 0.684420 0.375657 -0.743778
C37   C     C_3   0.692821 0.204018 0.414014 0.054122
C38   C     C_3   0.684423 0.164285 0.375657 -0.743777
C39   C     C_3   0.204016 0.307177 0.414014 0.054122
C40   C     C_3   0.164282 0.315573 0.375657 -0.743774
C41   C     C_3   0.307176 0.795983 0.414014 0.054121
C42   C     C_3   0.315573 0.835717 0.375657 -0.743774
C43   C     C_3   0.610807 0.303638 0.935218 0.158217
C44   C     C_3   0.530384 0.300904 0.925954 -0.703783
C45   C     C_3   0.696358 0.610808 0.935218 0.158220
C46   C     C_R   0.073898 0.609374 0.270029 0.545528
C47   C     C_3   0.699092 0.530386 0.925954 -0.703791
C48   C     C_3   0.389192 0.696359 0.935218 0.158221
C49   C     C_3   0.469615 0.699093 0.925954 -0.703793
C50   C     C_3   0.303641 0.389192 0.935218 0.158219
C51   C     C_3   0.300907 0.469615 0.925954 -0.703790
C52   C     C_3   0.295982 0.192822 0.914014 0.054121
C53   C     C_3   0.335716 0.184425 0.875657 -0.743779
C54   C     C_3   0.192822 0.704018 0.914014 0.054121
C55   C     C_3   0.184425 0.664284 0.875657 -0.743774
C56   C     C_3   0.704018 0.807178 0.914014 0.054124
C57   C     C_R   0.390626 0.073898 0.270029 0.545528
C58   C     C_3   0.664285 0.815576 0.875657 -0.743777
C59   C     C_3   0.807177 0.295983 0.914014 0.054121
C60   C     C_3   0.815574 0.335716 0.875657 -0.743776
C61   C     C_3   0.569103 0.848289 0.358581 0.188954
C62   C     C_3   0.622435 0.801277 0.380612 -0.790589
C63   C     C_3   0.151711 0.569103 0.358581 0.188952
C64   C     C_3   0.198724 0.622435 0.380611 -0.790585
C65   C     C_3   0.430896 0.151711 0.358581 0.188953
C66   C     C_3   0.377564 0.198723 0.380612 -0.790587
C67   C     C_3   0.848289 0.430897 0.358581 0.188953
C68   C     C_R   0.926102 0.390626 0.270029 0.545527
C69   C     C_3   0.801276 0.377565 0.380611 -0.790587
C70   C     C_3   0.069102 0.348288 0.858581 0.188952
C71   C     C_3   0.122433 0.301275 0.880612 -0.790586
C72   C     C_3   0.651712 0.069101 0.858581 0.188951
C73   C     C_3   0.698726 0.122432 0.880612 -0.790589
C74   C     C_3   0.930897 0.651711 0.858581 0.188952
C75   C     C_3   0.877565 0.698724 0.880612 -0.790586
C76   C     C_3   0.348288 0.930898 0.858581 0.188953
C77   C     C_3   0.301275 0.877567 0.880612 -0.790589
C78   C     C_R   0.109373 0.426101 0.770029 0.545527
C79   C     C_R   0.573899 0.109373 0.770029 0.545528
C80   C     C_R   0.890627 0.573899 0.770029 0.545527
C81   C     C_R   0.000000 0.500000 0.605826 0.922656
C82   C     C_R   0.426101 0.890627 0.770029 0.545528
C83   C     C_R   0.554312 0.961627 0.290884 -0.185585
C84   C     C_R   0.038373 0.554312 0.290884 -0.185586
C85   C     C_R   0.445687 0.038373 0.290884 -0.185585
C86   C     C_R   0.961626 0.445688 0.290884 -0.185586
C87   C     C_R   0.054312 0.461626 0.790884 -0.185585
C88   C     C_R   0.538374 0.054312 0.790884 -0.185587
C89   C     C_R   0.945688 0.538374 0.790884 -0.185585
C90   C     C_R   0.461626 0.945688 0.790884 -0.185585
C91   C     C_R   0.500000 0.000000 0.270488 -0.132375
C92   C     C_R   0.000000 0.500000 0.105826 0.922655
C93   C     C_R   1.000000 0.500000 0.270488 -0.132374
C94   C     C_R   1.000000 0.500000 0.770488 -0.132375
C95   C     C_R   0.500000 1.000000 0.770488 -0.132374
C96   C     C_R   0.551765 0.958898 0.331636 0.428413
C97   C     C_R   0.041102 0.551765 0.331636 0.428414
C98   C     C_R   0.448235 0.041102 0.331636 0.428412
C99   C     C_R   0.958898 0.448235 0.331636 0.428413
C100  C     C_R   0.051764 0.458898 0.831636 0.428412
C101  C     C_R   0.541102 0.051764 0.831636 0.428412
C102  C     C_R   0.948235 0.541102 0.831636 0.428412
C103  C     C_R   0.500000 1.000000 0.105826 0.922655
C104  C     C_R   0.458898 0.948236 0.831636 0.428412
C105  C     C_R   0.500000 0.000000 0.351787 -0.313820
C106  C     C_R   1.000000 0.500000 0.351787 -0.313821
C107  C     C_R   1.000000 0.500000 0.851787 -0.313820
C108  C     C_R   0.500000 1.000000 0.851787 -0.313820
C109  C     C_R   0.500000 1.000000 0.394217 0.844618
C110  C     C_R   0.000000 0.500000 0.394217 0.844618
C111  C     C_R   1.000000 0.500000 0.894216 0.844619
C112  C     C_R   0.500000 1.000000 0.894216 0.844620
C113  C     C_R   0.361773 0.138943 0.499617 0.797476
C114  C     C_R   0.109929 0.427186 0.729702 0.637638
C115  C     C_R   0.861057 0.361773 0.499617 0.797474
C116  C     C_R   0.638227 0.861057 0.499617 0.797473
C117  C     C_R   0.138943 0.638227 0.499617 0.797475
C118  C     C_R   0.638954 0.138145 0.500238 0.758046
C119  C     C_R   0.138145 0.361046 0.500238 0.758046
C120  C     C_R   0.361046 0.861855 0.500238 0.758046
C121  C     C_R   0.861855 0.638954 0.500238 0.758047
C122  C     C_R   0.861773 0.638943 0.999617 0.797475
C123  C     C_R   0.361057 0.861773 0.999617 0.797475
C124  C     C_R   0.138227 0.361057 0.999617 0.797475
C125  C     C_R   0.572814 0.109929 0.729702 0.637637
C126  C     C_R   0.638943 0.138227 0.999617 0.797475
C127  C     C_R   0.138954 0.638145 0.000238 0.758047
C128  C     C_R   0.638145 0.861046 0.000238 0.758047
C129  C     C_R   0.861046 0.361855 0.000238 0.758047
C130  C     C_R   0.361855 0.138954 0.000238 0.758047
C131  C     C_2   0.191047 0.753417 0.479093 0.268771
C132  C     C_2   0.246582 0.191047 0.479093 0.268772
C133  C     C_2   0.808953 0.246583 0.479093 0.268772
C134  C     C_2   0.753417 0.808952 0.479093 0.268771
C135  C     C_2   0.800293 0.744957 0.473617 0.238024
C136  C     C_R   0.890071 0.572813 0.729702 0.637639
C137  C     C_2   0.744958 0.199707 0.473618 0.238027
C138  C     C_2   0.199706 0.255041 0.473618 0.238026
C139  C     C_2   0.255041 0.800294 0.473618 0.238027
C140  C     C_2   0.691047 0.253417 0.979093 0.268772
C141  C     C_2   0.746583 0.691047 0.979093 0.268771
C142  C     C_2   0.308953 0.746583 0.979093 0.268771
C143  C     C_2   0.253417 0.308953 0.979093 0.268772
C144  C     C_2   0.300294 0.244958 0.973618 0.238029
C145  C     C_2   0.244958 0.699706 0.973618 0.238028
C146  C     C_2   0.699706 0.755042 0.973618 0.238027
C147  C     C_R   0.427186 0.890071 0.729702 0.637638
C148  C     C_2   0.755042 0.300294 0.973618 0.238031
C149  C     C_2   0.199836 0.686992 0.494493 0.426710
C150  C     C_2   0.313008 0.199836 0.494493 0.426710
C151  C     C_2   0.800164 0.313008 0.494493 0.426710
C152  C     C_2   0.686992 0.800164 0.494493 0.426711
C153  C     C_2   0.810915 0.698446 0.503283 0.479145
C154  C     C_2   0.698446 0.189085 0.503283 0.479144
C155  C     C_2   0.189085 0.301553 0.503283 0.479144
C156  C     C_2   0.301553 0.810915 0.503283 0.479144
C157  C     C_2   0.699836 0.186992 0.994493 0.426708
C158  C     C_R   0.609930 0.927188 0.229702 0.637638
C159  C     C_2   0.813008 0.699836 0.994493 0.426710
C160  C     C_2   0.300164 0.813008 0.994493 0.426710
C161  C     C_2   0.186992 0.300164 0.994493 0.426708
C162  C     C_2   0.310915 0.198446 0.003283 0.479143
C163  C     C_2   0.198446 0.689085 0.003283 0.479143
C164  C     C_2   0.689085 0.801553 0.003283 0.479143
C165  C     C_2   0.801553 0.310915 0.003283 0.479142
C166  C     C_R   0.944925 0.535930 0.668444 0.641344
C167  C     C_R   0.464069 0.944925 0.668444 0.641343
C168  C     C_R   0.055075 0.464069 0.668444 0.641343
F1    F     F_    0.267085 0.659956 0.501543 -0.617285
F2    F     F_    0.840044 0.767085 0.001543 -0.617285
F3    F     F_    0.232915 0.840044 0.001543 -0.617285
F4    F     F_    0.159956 0.232915 0.001543 -0.617284
F5    F     F_    0.278012 0.208501 0.038219 -0.575877
F6    F     F_    0.208501 0.721988 0.038219 -0.575877
F7    F     F_    0.721987 0.791498 0.038219 -0.575878
F8    F     F_    0.791499 0.278012 0.038219 -0.575877
F9    F     F_    0.892914 0.571838 0.648280 -0.541929
F10   F     F_    0.428161 0.892914 0.648280 -0.541929
F11   F     F_    0.107086 0.428162 0.648280 -0.541929
F12   F     F_    0.340044 0.267085 0.501543 -0.617286
F13   F     F_    0.571839 0.107086 0.648280 -0.541929
F14   F     F_    0.392913 0.071837 0.148280 -0.541928
F15   F     F_    0.928162 0.392914 0.148280 -0.541929
F16   F     F_    0.607087 0.928163 0.148280 -0.541928
F17   F     F_    0.071838 0.607086 0.148280 -0.541928
F18   F     F_    0.164353 0.392270 0.711022 -0.520272
F19   F     F_    0.607730 0.164353 0.711022 -0.520272
F20   F     F_    0.835647 0.607730 0.711022 -0.520272
F21   F     F_    0.392270 0.835647 0.711022 -0.520272
F22   F     F_    0.664355 0.892272 0.211022 -0.520271
F23   F     F_    0.732915 0.340044 0.501543 -0.617286
F24   F     F_    0.107728 0.664354 0.211022 -0.520271
F25   F     F_    0.335646 0.107728 0.211022 -0.520272
F26   F     F_    0.892271 0.335646 0.211022 -0.520272
F27   F     F_    0.663980 0.890879 0.288380 -0.584353
F28   F     F_    0.109122 0.663979 0.288380 -0.584353
F29   F     F_    0.336020 0.109122 0.288380 -0.584353
F30   F     F_    0.890878 0.336021 0.288380 -0.584353
F31   F     F_    0.163978 0.390877 0.788380 -0.584354
F32   F     F_    0.609124 0.163978 0.788381 -0.584354
F33   F     F_    0.836021 0.609123 0.788380 -0.584353
F34   F     F_    0.659956 0.732915 0.501544 -0.617285
F35   F     F_    0.390876 0.836022 0.788380 -0.584353
F36   F     F_    0.778013 0.708502 0.538219 -0.575878
F37   F     F_    0.708502 0.221988 0.538219 -0.575878
F38   F     F_    0.221988 0.291499 0.538219 -0.575877
F39   F     F_    0.291499 0.778012 0.538219 -0.575877
F40   F     F_    0.767085 0.159956 0.001543 -0.617285
H1    H     H_    0.139273 0.768540 0.413795 0.151401
H2    H     H_    0.255512 0.010269 0.428260 0.296579
H3    H     H_    0.795557 0.326914 0.363584 0.276674
H4    H     H_    0.056160 0.320981 0.830611 0.154434
H5    H     H_    0.018857 0.352810 0.876241 0.084167
H6    H     H_    0.135036 0.326226 0.909101 0.232048
H7    H     H_    0.098833 0.246854 0.885550 0.204899
H8    H     H_    0.173085 0.295556 0.863584 0.276673
H9    H     H_    0.679019 0.056159 0.830611 0.154434
H10   H     H_    0.647190 0.018856 0.876241 0.084168
H11   H     H_    0.673775 0.135034 0.909101 0.232048
H12   H     H_    0.753147 0.098831 0.885550 0.204901
H13   H     H_    0.860726 0.231458 0.413794 0.151401
H14   H     H_    0.704445 0.173083 0.863584 0.276673
H15   H     H_    0.943839 0.679019 0.830611 0.154434
H16   H     H_    0.981142 0.647190 0.876241 0.084167
H17   H     H_    0.864963 0.673773 0.909101 0.232049
H18   H     H_    0.901165 0.753145 0.885550 0.204899
H19   H     H_    0.826914 0.704443 0.863584 0.276673
H20   H     H_    0.320981 0.943840 0.830611 0.154434
H21   H     H_    0.352810 0.981143 0.876241 0.084167
H22   H     H_    0.326226 0.864964 0.909101 0.232050
H23   H     H_    0.246854 0.901167 0.885550 0.204900
H24   H     H_    0.870697 0.139533 0.431903 0.190199
H25   H     H_    0.295556 0.826916 0.863584 0.276673
H26   H     H_    0.000142 0.164370 0.446514 0.251015
H27   H     H_    0.979118 0.179391 0.395957 0.208282
H28   H     H_    0.989730 0.255513 0.428260 0.296579
H29   H     H_    0.768541 0.860724 0.413794 0.151403
H30   H     H_    0.860467 0.870695 0.431902 0.190199
H31   H     H_    0.835630 0.000140 0.446512 0.251014
H32   H     H_    0.820608 0.979115 0.395955 0.208283
H33   H     H_    0.129302 0.860466 0.431903 0.190201
H34   H     H_    0.744487 0.989728 0.428258 0.296579
H35   H     H_    0.742238 0.717519 0.408221 0.145292
H36   H     H_    0.788098 0.637968 0.426681 0.135938
H37   H     H_    0.889381 0.659058 0.380575 0.269353
H38   H     H_    0.803812 0.649552 0.355790 0.203122
H39   H     H_    0.843429 0.738196 0.361930 0.265869
H40   H     H_    0.717523 0.257759 0.408221 0.145291
H41   H     H_    0.637971 0.211900 0.426680 0.135938
H42   H     H_    0.659060 0.110616 0.380576 0.269354
H43   H     H_    0.649557 0.196184 0.355790 0.203124
H44   H     H_    0.999857 0.835630 0.446514 0.251014
H45   H     H_    0.738200 0.156566 0.361931 0.265869
H46   H     H_    0.257758 0.282475 0.408221 0.145291
H47   H     H_    0.211899 0.362027 0.426680 0.135939
H48   H     H_    0.110614 0.340936 0.380576 0.269354
H49   H     H_    0.196181 0.350439 0.355789 0.203124
H50   H     H_    0.156564 0.261796 0.361931 0.265868
H51   H     H_    0.282475 0.742242 0.408221 0.145290
H52   H     H_    0.362027 0.788101 0.426680 0.135939
H53   H     H_    0.340936 0.889386 0.380575 0.269355
H54   H     H_    0.350439 0.803819 0.355789 0.203124
H55   H     H_    0.020880 0.820606 0.395958 0.208283
H56   H     H_    0.261796 0.843436 0.361931 0.265868
H57   H     H_    0.639273 0.268535 0.913794 0.151397
H58   H     H_    0.629303 0.360463 0.931900 0.190201
H59   H     H_    0.499858 0.335630 0.946512 0.251012
H60   H     H_    0.520881 0.320599 0.895956 0.208283
H61   H     H_    0.510268 0.244483 0.928262 0.296582
H62   H     H_    0.731459 0.639275 0.913794 0.151402
H63   H     H_    0.639533 0.629303 0.931903 0.190200
H64   H     H_    0.664370 0.499858 0.946513 0.251017
H65   H     H_    0.679393 0.520883 0.895957 0.208282
H66   H     H_    0.010268 0.744486 0.428261 0.296581
H67   H     H_    0.755514 0.510270 0.928260 0.296579
H68   H     H_    0.360726 0.731461 0.913794 0.151401
H69   H     H_    0.370697 0.639534 0.931902 0.190200
H70   H     H_    0.500142 0.664371 0.946514 0.251016
H71   H     H_    0.479118 0.679394 0.895957 0.208282
H72   H     H_    0.489730 0.755515 0.928260 0.296579
H73   H     H_    0.268538 0.360726 0.913794 0.151400
H74   H     H_    0.360465 0.370696 0.931902 0.190201
H75   H     H_    0.335630 0.500142 0.946513 0.251014
H76   H     H_    0.320605 0.479118 0.895956 0.208283
H77   H     H_    0.231457 0.139273 0.413795 0.151401
H78   H     H_    0.244485 0.489731 0.928261 0.296581
H79   H     H_    0.242241 0.217524 0.908220 0.145290
H80   H     H_    0.288100 0.137972 0.926680 0.135939
H81   H     H_    0.389385 0.159062 0.880575 0.269354
H82   H     H_    0.303818 0.149559 0.855789 0.203125
H83   H     H_    0.343435 0.238202 0.861931 0.265869
H84   H     H_    0.217524 0.757759 0.908221 0.145291
H85   H     H_    0.137972 0.711900 0.926680 0.135939
H86   H     H_    0.159061 0.610616 0.880575 0.269353
H87   H     H_    0.149559 0.696183 0.855790 0.203123
H88   H     H_    0.139532 0.129302 0.431904 0.190200
H89   H     H_    0.238202 0.656565 0.861931 0.265868
H90   H     H_    0.757760 0.782477 0.908221 0.145290
H91   H     H_    0.711901 0.862029 0.926680 0.135938
H92   H     H_    0.610617 0.840939 0.880575 0.269354
H93   H     H_    0.696184 0.850443 0.855790 0.203123
H94   H     H_    0.656567 0.761799 0.861931 0.265868
H95   H     H_    0.782475 0.242242 0.908220 0.145289
H96   H     H_    0.862028 0.288100 0.926680 0.135938
H97   H     H_    0.840938 0.389385 0.880576 0.269354
H98   H     H_    0.850440 0.303818 0.855789 0.203125
H99   H     H_    0.164370 0.999857 0.446516 0.251018
H100  H     H_    0.761797 0.343436 0.861931 0.265869
H101  H     H_    0.556163 0.820982 0.330611 0.154434
H102  H     H_    0.518858 0.852810 0.376241 0.084167
H103  H     H_    0.635037 0.826228 0.409101 0.232050
H104  H     H_    0.598836 0.746855 0.385550 0.204898
H105  H     H_    0.673087 0.795558 0.363585 0.276674
H106  H     H_    0.179018 0.556162 0.330611 0.154433
H107  H     H_    0.147190 0.518858 0.376241 0.084167
H108  H     H_    0.173773 0.635037 0.409101 0.232048
H109  H     H_    0.253146 0.598835 0.385550 0.204899
H110  H     H_    0.179389 0.020880 0.395959 0.208280
H111  H     H_    0.204443 0.673086 0.363584 0.276673
H112  H     H_    0.443838 0.179018 0.330612 0.154433
H113  H     H_    0.481141 0.147190 0.376242 0.084167
H114  H     H_    0.364961 0.173772 0.409101 0.232050
H115  H     H_    0.401163 0.253144 0.385550 0.204899
H116  H     H_    0.326913 0.204442 0.363584 0.276674
H117  H     H_    0.820981 0.443838 0.330611 0.154433
H118  H     H_    0.852810 0.481142 0.376241 0.084167
H119  H     H_    0.826227 0.364962 0.409101 0.232049
H120  H     H_    0.746855 0.401164 0.385550 0.204898
O1    O     O_3   0.500000 0.000000 0.500000 -0.546155
O2    O     O_R   0.560130 0.000000 0.087440 -0.578530
O3    O     O_R   0.000000 0.560130 0.087440 -0.578531
O4    O     O_R   0.439870 0.000000 0.087440 -0.578530
O5    O     O_R   0.439940 0.000000 0.412560 -0.620238
O6    O     O_R   0.000000 0.439940 0.412560 -0.620239
O7    O     O_R   0.560060 0.000000 0.412560 -0.620238
O8    O     O_R   0.000000 0.560060 0.412560 -0.620238
O9    O     O_R   0.939940 0.500000 0.912560 -0.620239
O10   O     O_R   0.500000 0.939940 0.912560 -0.620239
O11   O     O_R   0.060060 0.500000 0.912560 -0.620239
O12   O     O_3   0.000000 0.500000 0.500000 -0.546155
O13   O     O_R   0.500000 0.060060 0.912560 -0.620239
O14   O     O_R   0.415450 0.144560 0.522930 -0.580154
O15   O     O_R   0.855440 0.415450 0.522930 -0.580154
O16   O     O_R   0.584550 0.855440 0.522930 -0.580153
O17   O     O_R   0.144560 0.584550 0.522930 -0.580154
O18   O     O_R   0.584550 0.144560 0.522930 -0.567342
O19   O     O_R   0.144560 0.415450 0.522930 -0.567342
O20   O     O_R   0.415450 0.855440 0.522930 -0.567342
O21   O     O_R   0.855440 0.584550 0.522930 -0.567342
O22   O     O_R   0.915450 0.644560 0.022930 -0.580154
O23   O     O_3   0.000000 0.500000 0.000000 -0.546155
O24   O     O_R   0.355440 0.915450 0.022930 -0.580154
O25   O     O_R   0.084550 0.355440 0.022930 -0.580153
O26   O     O_R   0.644560 0.084550 0.022930 -0.580153
O27   O     O_R   0.084550 0.644560 0.022930 -0.567342
O28   O     O_R   0.644560 0.915450 0.022930 -0.567342
O29   O     O_R   0.915450 0.355440 0.022930 -0.567342
O30   O     O_R   0.355440 0.084550 0.022930 -0.567342
O31   O     O_R   0.644640 0.915430 0.477080 -0.649420
O32   O     O_R   0.084570 0.644640 0.477080 -0.649422
O33   O     O_R   0.355360 0.084570 0.477080 -0.649421
O34   O     O_3   0.500000 0.000000 0.000000 -0.546155
O35   O     O_R   0.915430 0.355360 0.477080 -0.649420
O36   O     O_R   0.355360 0.915430 0.477080 -0.633997
O37   O     O_R   0.915430 0.644640 0.477080 -0.633998
O38   O     O_R   0.644640 0.084570 0.477080 -0.633996
O39   O     O_R   0.084570 0.355360 0.477080 -0.633997
O40   O     O_R   0.144640 0.415430 0.977080 -0.649422
O41   O     O_R   0.584570 0.144640 0.977080 -0.649424
O42   O     O_R   0.855360 0.584570 0.977080 -0.649421
O43   O     O_R   0.415430 0.855360 0.977080 -0.649421
O44   O     O_R   0.855360 0.415430 0.977080 -0.633997
O45   O     O_R   0.500000 0.939870 0.587440 -0.578531
O46   O     O_R   0.415430 0.144640 0.977080 -0.633999
O47   O     O_R   0.144640 0.584570 0.977080 -0.633997
O48   O     O_R   0.584570 0.855360 0.977080 -0.633997
O49   O     O_3   0.121565 0.780749 0.473878 -0.608199
O50   O     O_3   0.219251 0.121565 0.473878 -0.608200
O51   O     O_3   0.878434 0.219251 0.473877 -0.608200
O52   O     O_3   0.780748 0.878434 0.473876 -0.608200
O53   O     O_3   0.837352 0.736967 0.438936 -0.638933
O54   O     O_3   0.736969 0.162647 0.438937 -0.638932
O55   O     O_3   0.162645 0.263030 0.438937 -0.638933
O56   O     O_R   0.060130 0.500000 0.587440 -0.578531
O57   O     O_3   0.263030 0.837355 0.438937 -0.638932
O58   O     O_3   0.621566 0.280749 0.973877 -0.608197
O59   O     O_3   0.719251 0.621566 0.973877 -0.608200
O60   O     O_3   0.378434 0.719251 0.973877 -0.608199
O61   O     O_3   0.280749 0.378434 0.973877 -0.608199
O62   O     O_3   0.337354 0.236969 0.938937 -0.638933
O63   O     O_3   0.236969 0.662646 0.938937 -0.638932
O64   O     O_3   0.662647 0.763031 0.938937 -0.638933
O65   O     O_3   0.763030 0.337354 0.938937 -0.638930
O66   O     O_3   0.600546 0.916865 0.352102 -0.533583
O67   O     O_R   0.500000 0.060130 0.587440 -0.578531
O68   O     O_3   0.083136 0.600546 0.352102 -0.533583
O69   O     O_3   0.399454 0.083135 0.352102 -0.533583
O70   O     O_3   0.916864 0.399454 0.352102 -0.533583
O71   O     O_3   0.100545 0.416864 0.852102 -0.533583
O72   O     O_3   0.583137 0.100544 0.852102 -0.533584
O73   O     O_3   0.899454 0.583136 0.852102 -0.533583
O74   O     O_3   0.416863 0.899455 0.852102 -0.533584
O75   O     O_R   0.939870 0.500000 0.587440 -0.578531
O76   O     O_R   0.000000 0.439870 0.087440 -0.578530
Zn1   Zn    Zn3+2 0.414160 0.000000 0.467250 0.982072
Zn2   Zn    Zn3+2 0.914220 0.500000 0.532750 1.111906
Zn3   Zn    Zn3+2 0.500000 0.914220 0.532750 1.111906
Zn4   Zn    Zn3+2 0.085780 0.500000 0.532750 1.111907
Zn5   Zn    Zn3+2 0.000000 0.585780 0.032750 1.111907
Zn6   Zn    Zn3+2 0.414220 0.000000 0.032750 1.111907
Zn7   Zn    Zn3+2 0.000000 0.414220 0.032750 1.111907
Zn8   Zn    Zn3+2 0.585780 0.000000 0.032750 1.111907
Zn9   Zn    Zn3+2 0.000000 0.414160 0.467250 0.982073
Zn10  Zn    Zn3+2 0.585840 0.000000 0.467250 0.982074
Zn11  Zn    Zn3+2 0.000000 0.585840 0.467250 0.982072
Zn12  Zn    Zn3+2 0.914160 0.500000 0.967250 0.982073
Zn13  Zn    Zn3+2 0.500000 0.914160 0.967250 0.982072
Zn14  Zn    Zn3+2 0.085840 0.500000 0.967250 0.982072
Zn15  Zn    Zn3+2 0.500000 0.085840 0.967250 0.982070
Zn16  Zn    Zn3+2 0.500000 0.085780 0.532750 1.111906

loop_
_geom_bond_atom_site_label_1
_geom_bond_atom_site_label_2
_ccdc_geom_bond_type
C25   C93   A    
C76   H20   S    
C65   O69   S    
C137  O54   S    
C133  C151  D    
C52   H79   S    
C82   C147  A    
C29   H2    S    
C133  C137  S    
C2    F24   S    
C45   O59   S    
O1    Zn16  S    
C65   H113  S    
C39   H47   S    
C143  C144  S    
C128  O48   A    
C87   C94   A    
C132  C150  D    
C73   H11   S    
C37   O54   S    
C122  O22   A    
C89   C94   A    
C8    C168  A    
C55   H86   S    
C161  F4    S    
C47   H64   S    
C131  O49   S    
C100  O71   S    
C16   C22   A    
C111  O9    A    
C15   C166  A    
C69   H3    S    
C116  O16   A    
O30   Zn6   S    
C59   H95   S    
O38   Zn10  S    
O28   Zn8   S    
C88   C95   A    
C59   C60   S    
O1    Zn3   S    
C148  C165  D    
C18   C25   A    
C54   O63   S    
O47   Zn14  S    
C45   C47   S    
C31   H26   S    
O46   Zn15  S    
C130  O30   A    
C50   H73   S    
C8    C81   S    
C90   C95   A    
C64   H111  S    
C30   O51   S    
C43   H58   S    
O5    Zn1   S    
C109  O7    A    
C40   H50   S    
C49   H72   S    
C67   O70   S    
C74   H15   S    
C6    F16   S    
C118  O18   A    
C41   H52   S    
C119  O19   A    
C43   C44   S    
C37   C38   S    
C123  O24   A    
C80   F33   S    
C118  O38   A    
C166  F9    S    
C120  O36   A    
C86   C99   A    
C53   H81   S    
C113  O14   A    
C46   C84   A    
C5    C11   A    
O13   Zn15  S    
C131  C149  D    
O14   Zn16  S    
C59   O65   S    
C83   C91   A    
C124  C161  S    
C69   H119  S    
O67   Zn16  S    
C79   F32   S    
C57   F29   S    
C34   H35   S    
O42   Zn12  S    
C72   C73   S    
C80   C136  A    
C58   H92   S    
O31   Zn10  S    
C46   F28   S    
O10   Zn13  S    
C71   H6    S    
O33   Zn1   S    
C14   C125  A    
C75   H19   S    
O39   Zn9   S    
C30   C31   S    
C31   H27   S    
C57   C85   A    
C63   H107  S    
C84   C93   A    
C58   H93   S    
O36   Zn1   S    
C40   H48   S    
C129  O29   A    
C167  F10   S    
C115  C151  S    
C49   H71   S    
C117  C149  S    
C143  C161  D    
C71   H8    S    
C67   H117  S    
O12   Zn2   S    
C78   C87   A    
C159  F2    S    
C10   C103  S    
C70   H4    S    
C51   H78   S    
C5    C20   A    
C17   C23   A    
C140  O58   S    
C149  F1    S    
C158  F22   S    
C29   H99   S    
C13   C57   A    
C32   H29   S    
C62   H104  S    
C128  C164  S    
C164  F7    S    
C53   H83   S    
C110  O8    A    
O6    Zn9   S    
C60   H97   S    
C141  C159  D    
C43   O58   S    
O24   Zn6   S    
C148  O65   S    
C65   H112  S    
C55   H87   S    
C130  C162  S    
C130  O46   A    
C136  F20   S    
C113  O33   A    
C36   H37   S    
C42   H53   S    
O35   Zn9   S    
C44   H59   S    
C12   C114  A    
C116  O31   A    
C45   H62   S    
O26   Zn8   S    
C77   H23   S    
O23   Zn12  S    
C75   H17   S    
O23   Zn14  S    
C39   C40   S    
C48   O60   S    
O8    Zn11  S    
C15   C136  A    
C145  C163  D    
C146  C164  D    
C50   O61   S    
O18   Zn16  S    
C66   H116  S    
C3    C9    A    
C86   C93   A    
C63   O68   S    
C32   O52   S    
C99   O70   S    
C24   F26   S    
O2    Zn8   S    
C102  C107  A    
O34   Zn15  S    
O48   Zn13  S    
O12   Zn4   S    
C51   H76   S    
C28   H88   S    
O32   Zn11  S    
C48   H68   S    
C52   C53   S    
C87   C100  A    
C126  C157  S    
C6    C17   A    
C105  C109  S    
C54   C55   S    
C107  C111  S    
C113  C150  S    
C7    F17   S    
C112  O10   A    
C52   H80   S    
O12   Zn9   S    
C134  C135  S    
C125  F19   S    
C14   C22   A    
C126  O41   A    
C76   O74   S    
C110  O6    A    
C33   H32   S    
C61   H102  S    
C38   H42   S    
C147  F21   S    
C71   H7    S    
C83   C96   A    
C56   C58   S    
C118  C154  S    
O23   Zn7   S    
C61   C62   S    
C154  F37   S    
C131  C139  S    
C63   C64   S    
C36   H39   S    
C44   H61   S    
C138  C155  D    
C96   C105  A    
C41   C42   S    
O7    Zn10  S    
C26   H33   S    
C162  F5    S    
C48   H69   S    
C165  F8    S    
C26   C27   S    
C121  C153  S    
C50   H74   S    
C16   C147  A    
C84   C97   A    
C139  O57   S    
C28   C29   S    
C66   H114  S    
C43   H57   S    
C98   O69   S    
C82   F35   S    
C20   C25   A    
O29   Zn7   S    
C16   C167  A    
C132  C138  S    
C99   C106  A    
C74   H16   S    
C120  C156  S    
C36   H38   S    
O34   Zn13  S    
C80   C89   A    
C41   H51   S    
C121  O21   A    
C29   H110  S    
C54   H84   S    
C55   H89   S    
O17   Zn4   S    
C122  C159  S    
C70   C71   S    
C35   F27   S    
C128  O28   A    
O1    Zn1   S    
C101  C108  A    
C115  O15   A    
C122  O42   A    
O9    Zn12  S    
C13   F25   S    
C41   O57   S    
C142  C145  S    
C152  F34   S    
O21   Zn2   S    
C78   C114  A    
C34   O53   S    
C79   C88   A    
O12   Zn11  S    
C30   H13   S    
C92   O76   A    
C56   H91   S    
C13   C19   A    
C34   H36   S    
O75   Zn2   S    
C1    C9    S    
C42   H56   S    
C114  F18   S    
C35   C83   A    
C108  C112  S    
C73   H12   S    
O23   Zn5   S    
O43   Zn13  S    
C127  O27   A    
C27   H44   S    
C117  O17   A    
C143  O61   S    
O41   Zn15  S    
C52   O62   S    
C134  C152  D    
C50   C51   S    
C37   H40   S    
C119  O39   A    
C70   O71   S    
C126  O26   A    
C3    C14   A    
C141  C146  S    
C97   C106  A    
C48   C49   S    
O11   Zn14  S    
O34   Zn8   S    
O16   Zn3   S    
C28   O50   S    
C61   O66   S    
C78   F31   S    
C104  C108  A    
C150  F12   S    
C127  C163  S    
C70   H5    S    
C81   O75   A    
C135  C153  D    
C6    C10   A    
C40   H49   S    
C26   O49   S    
C168  F11   S    
C97   O68   S    
C82   C90   A    
C129  C165  S    
C144  O62   S    
C32   C33   S    
C123  O43   A    
C124  O25   A    
C35   C158  A    
C142  O60   S    
C112  O13   A    
C135  O53   S    
C92   O3    A    
C32   H30   S    
C62   H105  S    
O1    Zn10  S    
C160  F3    S    
C137  C154  D    
C64   H109  S    
C53   H82   S    
C24   C68   A    
C60   H98   S    
C138  O55   S    
C38   H45   S    
C123  C160  S    
C76   H21   S    
C103  O4    A    
C4    F14   S    
C5    F15   S    
C145  O63   S    
C69   H120  S    
C146  O64   S    
C23   C91   A    
C89   C102  A    
C2    C18   A    
C68   C86   A    
C22   C95   A    
C133  O51   S    
C117  O32   A    
C19   C23   A    
C42   H54   S    
C155  F38   S    
C140  C148  S    
C88   C101  A    
C85   C91   A    
C44   H60   S    
C39   H46   S    
C1    O45   A    
C2    C46   A    
C7    C11   A    
C72   H9    S    
C77   H22   S    
C98   C105  A    
C73   H14   S    
C121  O37   A    
C49   H70   S    
O44   Zn12  S    
C81   O56   A    
O19   Zn4   S    
C47   H67   S    
C21   C94   A    
C68   F30   S    
C30   H24   S    
C72   O72   S    
C156  F39   S    
C85   C98   A    
C4    C19   A    
C11   C92   S    
O56   Zn4   S    
C20   C24   A    
O34   Zn6   S    
O15   Zn2   S    
O76   Zn7   S    
C34   C36   S    
C134  O52   S    
C120  O20   A    
C67   H118  S    
C151  F23   S    
C141  O59   S    
C27   H55   S    
C51   H75   S    
C33   H34   S    
C64   H108  S    
C157  F40   S    
C127  O47   A    
C74   C75   S    
C72   H10   S    
C9    C167  A    
C39   O55   S    
C76   C77   S    
C56   H90   S    
C62   H103  S    
C12   C21   A    
C67   C69   S    
C33   H31   S    
C129  O44   A    
C140  C157  D    
C60   H100  S    
C3    F13   S    
O3    Zn5   S    
C74   O73   S    
C61   H101  S    
C38   H43   S    
C7    C18   A    
C90   C104  A    
O20   Zn3   S    
C77   H25   S    
C103  O2    A    
O45   Zn3   S    
C58   H94   S    
C17   C158  A    
C8    C166  A    
C27   H66   S    
C28   H77   S    
C102  O73   S    
C96   O66   S    
C101  O72   S    
C111  O11   A    
C4    C10   A    
O37   Zn11  S    
C116  C152  S    
C59   H96   S    
C106  C110  S    
C45   H63   S    
C100  C107  A    
C119  C155  S    
C144  C162  D    
C75   H18   S    
C142  C160  D    
C12   C168  A    
C47   H65   S    
C31   H28   S    
C1    O67   A    
C63   H106  S    
C153  F36   S    
C115  O35   A    
C66   H115  S    
C132  O50   S    
C109  O5    A    
C139  C156  D    
O22   Zn5   S    
C37   H41   S    
O27   Zn5   S    
O4    Zn6   S    
C56   O64   S    
C26   H1    S    
O25   Zn7   S    
C79   C125  A    
C124  O40   A    
C54   H85   S    
C104  O74   S    
C15   C21   A    
C65   C66   S    
C163  F6    S    
O40   Zn14  S    
