data_mof_unit_32594.cif
_audit_creation_date              2013-03-05T15:40:34-0500
_audit_creation_method            fapswitch 2.2
_symmetry_space_group_name_H-M    P1
_symmetry_Int_Tables_number       1
_space_group_crystal_system       triclinic
_cell_length_a                    7.917699
_cell_length_b                    8.544119
_cell_length_c                    10.621509
_cell_angle_alpha                 90.66625
_cell_angle_beta                  87.469023
_cell_angle_gamma                 93.302979
_cell_volume                      716.619431145

loop_
_atom_site_label
_atom_site_type_symbol
_atom_site_description
_atom_site_fract_x
_atom_site_fract_y
_atom_site_fract_z
_atom_type_partial_charge
O1    O     O_R   0.389250 0.738570 0.508280 -0.636345
O2    O     O_R   0.610750 0.261430 0.491720 -0.608636
O3    O     O_R   0.678390 0.711630 0.486650 -0.617581
O4    O     O_R   0.321610 0.288370 0.513350 -0.622791
C1    C     C_R   0.544941 0.793854 0.499347 0.997372
C2    C     C_R   0.455251 0.206312 0.505722 0.958277
O5    O     O_R   0.355430 0.513480 0.694040 -0.620965
O6    O     O_R   0.644570 0.486520 0.305960 -0.612722
O7    O     O_R   0.644570 0.486540 0.672410 -0.593132
O8    O     O_R   0.355430 0.513460 0.327590 -0.626381
C3    C     C_R   0.508140 0.525164 0.738506 0.895386
C4    C     C_R   0.501238 0.523961 0.261381 0.912590
Zn1   Zn    Zn3+2 0.306940 0.517990 0.514440 0.912308
Zn2   Zn    Zn3+2 0.693060 0.482010 0.485560 0.937491
C5    C     C_R   0.264076 0.730007 0.876941 0.238351
C6    C     C_R   0.820029 0.643518 0.127309 0.242810
C7    C     C_R   0.105918 0.749319 0.938675 -0.191505
C8    C     C_R   0.977723 0.623017 0.066559 -0.221790
C9    C     C_R   0.099873 0.748321 0.071149 -0.192233
C10   C     C_R   0.986493 0.620583 0.934793 -0.227846
C11   C     C_R   0.248768 0.721437 0.133795 0.218926
C12   C     C_R   0.836364 0.635049 0.869271 0.230296
C13   C     C_R   0.373858 0.636454 0.069399 -0.004299
C14   C     C_R   0.678494 0.594169 0.931723 -0.007006
C15   C     C_R   0.381492 0.640200 0.936346 0.012525
C16   C     C_R   0.671323 0.597177 0.064677 -0.003065
C17   C     C_R   0.512355 0.582410 0.130393 -0.165490
C18   C     C_R   0.523957 0.583942 0.869700 -0.174903
H1    H     H_    0.055885 0.856461 0.905152 0.173507
H2    H     H_    0.019030 0.514427 0.105066 0.144974
C19   C     C_2   0.568312 0.957894 0.504571 -0.385889
C20   C     C_2   0.431974 0.042557 0.511273 -0.406193
H3    H     H_    0.697634 0.008446 0.499240 0.183943
H4    H     H_    0.302574 0.992222 0.516224 0.178942
N1    N     N_2   0.950330 0.457950 0.466250 -0.194264
N2    N     N_2   0.049670 0.542050 0.533750 -0.195516
H5    H     H_    0.003414 0.359432 0.429090 0.190512
H6    H     H_    0.005192 0.650656 0.548801 0.178221
H7    H     H_    0.038967 0.513808 0.896631 0.157650
H8    H     H_    0.050944 0.856012 0.107451 0.185133
N3    N     N_2   0.322861 0.840159 0.783099 -0.304024
H9    H     H_    0.239275 0.848632 0.712317 0.230575
C21   C     C_3   0.372360 0.993634 0.834341 -0.853602
H10   H     H_    0.429344 0.070477 0.758962 0.255185
H11   H     H_    0.468624 0.983189 0.905861 0.253306
H12   H     H_    0.261586 0.051436 0.877550 0.235817
N4    N     N_2   0.810957 0.739973 0.237815 -0.256946
H13   H     H_    0.909305 0.730692 0.297330 0.228985
C22   C     C_3   0.766791 0.899942 0.218026 -0.832208
H14   H     H_    0.864247 0.983920 0.256620 0.218093
H15   H     H_    0.645422 0.918369 0.267796 0.277097
H16   H     H_    0.754259 0.925996 0.116558 0.232731
N5    N     N_2   0.295619 0.823622 0.234992 -0.283294
H17   H     H_    0.205294 0.822479 0.307951 0.229006
C23   C     C_3   0.344537 0.982465 0.194613 -0.847886
H18   H     H_    0.394398 0.052858 0.273570 0.245672
H19   H     H_    0.235174 0.043114 0.160790 0.226017
H20   H     H_    0.445112 0.981391 0.118873 0.255111
N6    N     N_2   0.845087 0.727677 0.758091 -0.271479
H21   H     H_    0.966700 0.744567 0.722222 0.200391
C24   C     C_3   0.768561 0.876995 0.770229 -0.817665
H22   H     H_    0.837721 0.965206 0.708035 0.224586
H23   H     H_    0.768983 0.922696 0.868716 0.229994
H24   H     H_    0.638444 0.861805 0.739426 0.283878

loop_
_geom_bond_atom_site_label_1
_geom_bond_atom_site_label_2
_geom_bond_distance
_ccdc_geom_bond_type
C24   H24   1.094821 S    
C2    C20   1.402246 S    
O7    Zn2   2.005064 S    
C19   H3    1.087512 S    
C22   H15   1.094683 S    
C8    H2    1.091183 S    
C13   C17   1.401231 A    
C21   H11   1.107482 S    
N3    H9    1.029161 S    
C19   C20   1.332523 D    
N6    C24   1.445595 S    
O6    C4    1.306621 A    
C22   H16   1.112883 S    
C7    C10   1.410036 A    
C23   H18   1.100477 S    
N5    C23   1.454021 S    
N6    H21   1.022742 S    
N4    C22   1.450124 S    
C6    C8    1.399072 A    
N5    H17   1.030778 S    
C15   C18   1.410162 A    
C11   N5    1.425237 S    
N3    C21   1.453401 S    
O7    C3    1.318082 A    
C16   C17   1.411917 A    
O2    C2    1.295523 A    
O3    Zn2   1.971875 S    
O8    C4    1.324090 A    
C3    C18   1.483767 S    
O1    C1    1.294345 A    
C6    N4    1.427887 S    
N2    H6    1.019752 S    
C9    C11   1.410455 A    
C10   C12   1.415829 A    
O5    C3    1.315454 A    
C8    C10   1.398178 A    
C23   H19   1.109449 S    
C21   H10   1.105369 S    
C6    C16   1.412431 A    
C24   H22   1.111908 S    
O2    Zn2   1.959213 S    
C21   H12   1.110350 S    
C12   C14   1.416427 A    
C5    C15   1.412957 A    
O1    Zn1   1.959213 S    
C9    H8    1.079356 S    
C4    C17   1.480913 S    
C7    C9    1.405889 A    
C14   C18   1.412901 A    
O5    Zn1   1.963674 S    
C13   C15   1.412505 A    
C7    H1    1.087922 S    
C5    N3    1.423467 S    
Zn1   N2    2.060101 S    
O4    C2    1.301676 A    
C22   H14   1.111561 S    
C23   H20   1.107018 S    
N1    H5    1.029259 S    
C12   N6    1.426143 S    
C5    C7    1.405018 A    
C10   H7    1.090599 S    
C8    C9    1.402708 A    
O6    Zn2   1.963674 S    
N1    N2    1.273458 D    
O3    C1    1.303423 A    
C11   C13   1.409782 A    
Zn2   N1    2.060101 S    
C24   H23   1.112399 S    
N4    H13   1.031502 S    
O4    Zn1   1.971875 S    
C14   C16   1.410802 A    
C1    C19   1.403902 S    
O8    Zn1   2.005064 S    
C20   H4    1.087391 S    
