data_mof_unit_55976.cif
_audit_creation_date              2012-12-10T20:40:59-0500
_audit_creation_method            fapswitch 2.2
_symmetry_space_group_name_H-M    P1
_symmetry_Int_Tables_number       1
_space_group_crystal_system       triclinic
_cell_length_a                    27.634634
_cell_length_b                    10.616798
_cell_length_c                    9.829598
_cell_angle_alpha                 90.164369
_cell_angle_beta                  89.328789
_cell_angle_gamma                 89.696905
_cell_volume                      2883.66817666

loop_
_atom_site_label
_atom_site_type_symbol
_atom_type_description
_atom_site_fract_x
_atom_site_fract_y
_atom_site_fract_z
_atom_type_partial_charge
C1    C     C_R   0.496792 0.260130 0.500056 0.854020
C2    C     C_R   0.277187 0.469519 0.621869 0.234403
C3    C     C_R   0.252455 0.520456 0.509440 0.224160
C4    C     C_R   0.100586 0.530992 0.502615 -0.091894
C5    C     C_R   0.126801 0.446622 0.418179 0.015387
C6    C     C_R   0.102587 0.369545 0.326508 -0.156116
C7    C     C_R   0.125494 0.609363 0.594844 -0.166634
C8    C     C_R   0.353305 0.505988 0.503020 -0.102900
C9    C     C_R   0.646309 0.513231 0.495517 -0.170013
C10   C     C_R   0.973768 0.454648 0.402559 -0.017560
C11   C     C_R   0.973239 0.641784 0.550477 0.083698
C12   C     C_R   0.405982 0.500599 0.500767 0.889803
C13   C     C_R   0.948172 0.550763 0.473123 0.065909
C14   C     C_R   0.947222 0.362244 0.332406 -0.333556
C15   C     C_R   0.896770 0.362815 0.332376 0.506659
C16   C     C_R   0.871252 0.461029 0.398557 -0.133679
C17   C     C_R   0.897085 0.556272 0.466651 -0.123024
C18   C     C_R   0.871790 0.656818 0.529712 0.017870
C19   C     C_R   0.821242 0.656765 0.530922 0.512711
C20   C     C_R   0.820437 0.465245 0.403164 0.557934
C21   C     C_R   0.726135 0.464220 0.581756 0.135467
C22   C     C_R   0.676154 0.439144 0.578891 0.409071
C23   C     C_R   0.497787 0.740282 0.500145 0.874951
C24   C     C_R   0.666486 0.602728 0.407465 -0.286295
C25   C     C_R   0.716106 0.620404 0.402902 -0.162371
C26   C     C_R   0.745844 0.551507 0.489213 0.243612
C27   C     C_R   0.025018 0.454365 0.403837 0.108588
C28   C     C_R   0.049548 0.537036 0.493520 0.014395
C29   C     C_R   0.023372 0.625242 0.574043 -0.139432
C30   C     C_R   0.052694 0.373681 0.318680 -0.240007
C31   C     C_R   0.098466 0.684746 0.687993 0.147803
C32   C     C_R   0.947418 0.748195 0.598718 -0.181802
C33   C     C_R   0.897417 0.754456 0.590735 -0.206751
C34   C     C_R   0.593939 0.500503 0.499077 0.921596
C35   C     C_R   0.047845 0.688624 0.680409 0.408418
C36   C     C_R   0.483036 0.064638 0.623558 0.143054
C37   C     C_R   0.486936 0.129220 0.500641 -0.101745
C38   C     C_R   0.479869 0.065017 0.377629 -0.232966
C39   C     C_R   0.479867 0.934893 0.377746 -0.244984
C40   C     C_R   0.487573 0.871289 0.500584 -0.104710
C41   C     C_R   0.483521 0.936296 0.623327 0.156411
C42   C     C_3   0.512806 0.928868 0.749879 -0.510510
C43   C     C_3   0.512071 0.071740 0.751006 -0.484019
C44   C     C_R   0.470949 0.418917 0.071974 0.062852
C45   C     C_R   0.177079 0.442037 0.425817 0.528026
C46   C     C_R   0.531886 0.572499 0.071846 0.520736
C47   C     C_R   0.532044 0.570857 0.926598 -0.230301
C48   C     C_R   0.471042 0.418910 0.929259 0.173238
C49   C     C_3   0.417286 0.412879 0.923777 -0.508660
C50   C     C_3   0.416909 0.414286 0.078671 -0.005046
C51   C     C_R   0.176589 0.608142 0.589842 0.517661
C52   C     C_R   0.278311 0.564780 0.394913 0.251188
C53   C     C_R   0.328629 0.556668 0.392455 -0.317954
C54   C     C_R   0.327613 0.462337 0.616739 -0.239628
H1    H     H_    0.346754 0.418995 0.699901 0.162414
H2    H     H_    0.965361 0.829527 0.640130 0.198692
H3    H     H_    0.643704 0.659070 0.342175 0.201729
H4    H     H_    0.878920 0.835927 0.633423 0.185229
H5    H     H_    0.731627 0.686798 0.331448 0.157791
H6    H     H_    0.478521 0.113762 0.281083 0.174657
H7    H     H_    0.477938 0.885552 0.281410 0.161983
H8    H     H_    0.492119 0.886849 0.835956 0.203088
H9    H     H_    0.549505 0.888149 0.731797 0.207456
H10   H     H_    0.490806 0.112072 0.837578 0.210020
H11   H     H_    0.548475 0.113409 0.735741 0.217539
H12   H     H_    0.557509 0.627544 0.869742 0.161362
H13   H     H_    0.401028 0.499415 0.879796 0.187646
H14   H     H_    0.405029 0.323054 0.877417 0.209344
H15   H     H_    0.400168 0.499844 0.125264 0.151593
H16   H     H_    0.122193 0.306022 0.258962 0.185469
H17   H     H_    0.964443 0.285263 0.278972 0.152738
H18   H     H_    0.037062 0.314555 0.241800 0.142661
H19   H     H_    0.348403 0.591753 0.304777 0.156382
N1    N     N_R   0.200739 0.523366 0.508892 -0.341573
N2    N     N_R   0.797022 0.559574 0.472490 -0.333372
N3    N     N_R   0.499670 0.499140 0.142800 -0.162509
N4    N     N_R   0.499670 0.499180 0.857150 -0.123035
O1    O     O_R   0.500010 0.316790 0.614690 -0.611589
O2    O     O_2   0.794247 0.375282 0.341176 -0.536127
O3    O     O_2   0.202336 0.692649 0.661030 -0.590960
O4    O     O_2   0.796384 0.750968 0.592831 -0.593314
O5    O     O_R   0.500000 0.316760 0.385350 -0.629189
O6    O     O_R   0.428760 0.500040 0.614660 -0.622718
O7    O     O_R   0.428750 0.500000 0.385310 -0.639128
O8    O     O_R   0.500000 0.683240 0.614650 -0.620997
O9    O     O_R   0.499990 0.683210 0.385310 -0.612798
O10   O     O_R   0.571250 0.500000 0.614690 -0.584186
O11   O     O_R   0.571240 0.499960 0.385340 -0.573253
O12   O     O_2   0.202411 0.357743 0.349943 -0.579794
Zn1   Zn    Zn3+2 0.500000 0.500020 0.653130 0.957988
Zn2   Zn    Zn3+2 0.500000 0.499980 0.346870 0.966788
N5    N     N_2   0.253550 0.613621 0.280214 -0.294585
H20   H     H_    0.270796 0.594702 0.188664 0.224784
C55   C     C_3   0.239826 0.744802 0.292477 -0.757346
H21   H     H_    0.219161 0.773486 0.201342 0.236700
H22   H     H_    0.272597 0.804597 0.299848 0.237949
H23   H     H_    0.216424 0.760278 0.383503 0.268325
N6    N     N_2   0.120329 0.748099 0.799416 -0.275495
H24   H     H_    0.148118 0.701550 0.847320 0.253915
C56   C     C_3   0.126919 0.882201 0.781999 -0.641712
H25   H     H_    0.152373 0.900951 0.696262 0.254842
H26   H     H_    0.141899 0.923175 0.876532 0.216795
H27   H     H_    0.091727 0.929053 0.761530 0.244863
O13   O     O_3   0.022703 0.749938 0.783948 -0.653814
C57   C     C_3   0.009095 0.661047 0.883787 0.093834
H28   H     H_    0.041812 0.617735 0.930122 0.146929
H29   H     H_    0.986277 0.585467 0.839217 0.142031
C58   C     C_3   0.979724 0.728268 0.995180 -0.326844
H30   H     H_    0.001540 0.806129 0.038338 0.231807
H31   H     H_    0.946428 0.769359 0.950496 0.226770
C59   C     C_3   0.965490 0.638230 0.109336 -0.936877
H32   H     H_    0.942955 0.560432 0.069330 0.272852
H33   H     H_    0.944308 0.689919 0.188558 0.268534
H34   H     H_    0.998414 0.598165 0.156685 0.271015
N7    N     N_2   0.251731 0.417680 0.735724 -0.299628
H35   H     H_    0.215674 0.398263 0.720925 0.226158
C60   C     C_3   0.260898 0.476736 0.865857 -0.770516
H36   H     H_    0.240541 0.426607 0.947152 0.244121
H37   H     H_    0.248852 0.576667 0.864714 0.271359
H38   H     H_    0.299918 0.472110 0.890864 0.232722
O14   O     O_3   0.566260 0.639316 0.143286 -0.612695
C61   C     C_3   0.564352 0.769742 0.113566 0.057102
H39   H     H_    0.559674 0.820717 0.211645 0.177021
H40   H     H_    0.533481 0.798792 0.048179 0.100693
C62   C     C_3   0.612303 0.811471 0.049042 -0.356709
H41   H     H_    0.642727 0.782213 0.115057 0.232225
H42   H     H_    0.617346 0.765546 0.948234 0.216894
C63   C     C_3   0.613802 0.954169 0.030974 -0.942914
H43   H     H_    0.583672 0.986161 0.965666 0.273061
H44   H     H_    0.648587 0.981205 0.981807 0.270782
H45   H     H_    0.610879 0.002145 0.131331 0.268746
N8    N     N_2   0.399941 0.297180 0.137532 -0.284861
H46   H     H_    0.413841 0.280147 0.232680 0.251783
C64   C     C_3   0.348073 0.279969 0.134221 -0.751460
H47   H     H_    0.338819 0.186398 0.177127 0.244608
H48   H     H_    0.334931 0.283531 0.027997 0.251330
H49   H     H_    0.329468 0.353977 0.195749 0.247107
O15   O     O_3   0.656180 0.346098 0.660153 -0.636192
C65   C     C_3   0.663916 0.226177 0.598975 0.043377
H50   H     H_    0.665345 0.155880 0.682391 0.180342
H51   H     H_    0.698859 0.217764 0.541561 0.136033
C66   C     C_3   0.622338 0.192537 0.504388 -0.346774
H52   H     H_    0.587824 0.213866 0.557283 0.230744
H53   H     H_    0.624556 0.250548 0.410674 0.215681
C67   C     C_3   0.623291 0.053417 0.464634 -0.944109
H54   H     H_    0.657802 0.029564 0.411267 0.273126
H55   H     H_    0.592794 0.033245 0.395456 0.266277
H56   H     H_    0.619270 0.993369 0.556408 0.263239
N9    N     N_2   0.757026 0.402089 0.675703 -0.312790
H57   H     H_    0.748586 0.309551 0.695202 0.238684
C68   C     C_3   0.764756 0.471913 0.800009 -0.721606
H58   H     H_    0.791206 0.420738 0.863959 0.242674
H59   H     H_    0.730165 0.482102 0.857973 0.253493
H60   H     H_    0.779569 0.566596 0.777584 0.265700
O16   O     O_3   0.872818 0.272200 0.257638 -0.600123
C69   C     C_3   0.873412 0.157091 0.329422 0.111043
H61   H     H_    0.857377 0.169329 0.433354 0.146381
H62   H     H_    0.911043 0.120138 0.337964 0.116831
C70   C     C_3   0.843397 0.060702 0.251852 -0.300857
H63   H     H_    0.805477 0.095290 0.244447 0.250327
H64   H     H_    0.858434 0.049248 0.147123 0.223431
C71   C     C_3   0.843560 0.933023 0.322617 -0.956816
H65   H     H_    0.880998 0.894741 0.327152 0.264133
H66   H     H_    0.820879 0.865708 0.265177 0.268104
H67   H     H_    0.828528 0.942482 0.427401 0.292356

loop_
_geom_bond_atom_site_label_1
_geom_bond_atom_site_label_2
_ccdc_geom_bond_type
C10   C27   A    
C21   C26   A    
C33   H4    S    
C49   H14   S    
C11   C13   A    
C14   H17   S    
C59   H32   S    
C51   N1    A    
C63   H43   S    
C64   H49   S    
C46   N3    A    
C67   H54   S    
C19   N2    A    
O1    Zn1   S    
C57   H29   S    
C28   C29   A    
C36   C37   A    
C50   H15   S    
O9    Zn2   S    
N9    C68   S    
C5    C6    A    
C65   C66   S    
C9    C22   A    
C31   N6    S    
C15   C16   A    
C58   H30   S    
C12   O7    A    
C18   C19   A    
C41   C42   S    
C68   H60   S    
C44   N3    A    
C3    N1    S    
C51   O3    S    
C56   H25   S    
C67   H55   S    
C54   H1    S    
C24   H3    S    
N7    C60   S    
C23   O9    A    
C62   C63   S    
C68   H58   S    
C70   H64   S    
C46   O14   S    
O7    Zn2   S    
C21   N9    S    
C8    C12   S    
C45   O12   S    
C42   H8    S    
C47   H12   S    
C15   O16   S    
C43   H11   S    
C21   C22   A    
C27   C30   A    
C1    O1    A    
C66   C67   S    
C36   C41   A    
C4    C7    A    
C56   H26   S    
O13   C57   S    
C4    C28   A    
C43   H10   S    
C17   C18   A    
C71   H66   S    
C38   C39   A    
C39   H7    S    
C57   C58   S    
N4    Zn1   S    
C7    C31   A    
C24   C25   A    
C35   O13   S    
C10   C14   A    
C60   H38   S    
C8    C54   A    
C39   C40   A    
C16   C17   A    
C64   H48   S    
C55   H23   S    
C1    O5    A    
C5    C45   A    
C56   H27   S    
O5    Zn2   S    
C20   N2    A    
C45   N1    A    
C48   N4    A    
C37   C38   A    
C71   H67   S    
C2    N7    S    
C70   H63   S    
O11   Zn2   S    
C16   C20   A    
N5    C55   S    
C26   N2    S    
C70   C71   S    
C59   H33   S    
C34   O11   A    
C55   H22   S    
O14   C61   S    
C50   N8    S    
C38   H6    S    
C40   C41   A    
C6    C30   A    
C11   C32   A    
C49   C50   S    
N6    C56   S    
C2    C54   A    
C62   H41   S    
C31   C35   A    
C52   N5    S    
C42   C43   S    
C47   N4    A    
C61   H40   S    
C63   H45   S    
O16   C69   S    
C67   H56   S    
C52   C53   A    
C65   H50   S    
C71   H65   S    
C44   C50   S    
C6    H16   S    
O6    Zn1   S    
C29   C35   A    
C46   C47   A    
C69   H61   S    
C49   H13   S    
C20   O2    S    
C14   C15   A    
C69   C70   S    
C53   H19   S    
C12   O6    A    
C4    C5    A    
C10   C13   A    
C63   H44   S    
C8    C53   A    
C30   H18   S    
O8    Zn1   S    
C9    C24   A    
C64   H47   S    
C1    C37   S    
C57   H28   S    
C22   O15   S    
C58   C59   S    
C13   C17   A    
C32   C33   A    
C61   C62   S    
C60   H37   S    
C2    C3    A    
C25   C26   A    
C7    C51   A    
C19   O4    S    
C60   H36   S    
C3    C52   A    
C65   H51   S    
N7    H35   S    
C9    C34   S    
C48   C49   S    
C69   H62   S    
N5    H20   S    
C58   H31   S    
N8    H46   S    
C59   H34   S    
C66   H53   S    
C34   O10   A    
C68   H59   S    
C55   H21   S    
C18   C33   A    
O15   C65   S    
N3    Zn2   S    
C44   C48   A    
C11   C29   A    
N8    C64   S    
N6    H24   S    
C23   O8    A    
O10   Zn1   S    
C27   C28   A    
C62   H42   S    
C66   H52   S    
C36   C43   S    
C25   H5    S    
C61   H39   S    
N9    H57   S    
C42   H9    S    
C32   H2    S    
C23   C40   S    
