data_mof_unit_50939.cif
_audit_creation_date              2012-12-10T18:29:45-0500
_audit_creation_method            fapswitch 2.2
_symmetry_space_group_name_H-M    P1
_symmetry_Int_Tables_number       1
_space_group_crystal_system       triclinic
_cell_length_a                    11.546173
_cell_length_b                    14.917192
_cell_length_c                    15.51058
_cell_angle_alpha                 81.53452
_cell_angle_beta                  90.175949
_cell_angle_gamma                 103.934385
_cell_volume                      2563.16228379

loop_
_atom_site_label
_atom_site_type_symbol
_atom_type_description
_atom_site_fract_x
_atom_site_fract_y
_atom_site_fract_z
_atom_type_partial_charge
C1    C     C_R   0.484019 0.441260 0.662541 0.883803
C2    C     C_R   0.601377 0.683717 0.976687 -0.210413
C3    C     C_R   0.669564 0.843127 0.641615 -0.340627
C4    C     C_R   0.299110 0.147623 0.384002 -0.335617
C5    C     C_R   0.663191 0.764157 0.601970 0.249547
C6    C     C_R   0.356816 0.241505 0.382178 0.252930
C7    C     C_R   0.484832 0.784351 0.533194 -0.082274
C8    C     C_R   0.467149 0.202023 0.505747 -0.083933
C9    C     C_R   0.499093 0.872952 0.561957 -0.014874
C10   C     C_R   0.423095 0.104904 0.501392 -0.017585
C11   C     C_R   0.591553 0.899319 0.619552 0.153857
C12   C     C_R   0.520977 0.559057 0.337856 0.875880
C13   C     C_R   0.333481 0.079319 0.441468 0.152787
C14   C     C_R   0.431716 0.939048 0.531113 0.094201
C15   C     C_R   0.468601 0.032928 0.550228 0.086020
C16   C     C_R   0.717974 0.500789 0.499857 0.898614
C17   C     C_R   0.282067 0.499353 0.499691 0.879998
C18   C     C_R   0.554048 0.052189 0.614000 -0.237775
C19   C     C_R   0.333186 0.916339 0.478174 -0.255335
C20   C     C_R   0.612756 0.985472 0.649323 -0.204539
C21   C     C_R   0.284423 0.985633 0.434485 -0.198410
C22   C     C_1   0.838957 0.502033 0.499206 -0.191416
C23   C     C_R   0.537175 0.357347 0.931522 0.115114
C24   C     C_1   0.161179 0.498487 0.498669 -0.203740
C25   C     C_1   0.940958 0.501193 0.498539 -0.016415
C26   C     C_1   0.059201 0.499406 0.498300 -0.005338
C27   C     C_R   0.489672 0.406757 0.755944 -0.171686
C28   C     C_R   0.549309 0.596685 0.245493 -0.171700
C29   C     C_R   0.505230 0.288291 0.877389 -0.322870
C30   C     C_R   0.579834 0.719735 0.121222 -0.303569
C31   C     C_R   0.478832 0.312109 0.789852 0.480974
C32   C     C_R   0.554531 0.690266 0.210383 0.482209
C33   C     C_R   0.515489 0.473925 0.811626 -0.358161
C34   C     C_R   0.589439 0.655224 0.066196 0.103366
C35   C     C_R   0.573464 0.535987 0.191495 -0.345549
C36   C     C_R   0.544454 0.452086 0.898239 0.100039
C37   C     C_R   0.584440 0.561011 0.101011 0.094291
C38   C     C_3   0.425887 0.767586 0.258797 0.087760
C39   C     C_3   0.426480 0.862482 0.283733 -0.815430
C40   C     C_3   0.324141 0.195756 0.760489 0.096585
C41   C     C_3   0.276815 0.130547 0.694960 -0.807335
C42   C     C_3   0.348884 0.303885 0.297257 -0.384474
C43   C     C_3   0.244336 0.350769 0.295476 -0.313084
C44   C     C_3   0.230661 0.400830 0.204189 -0.907376
C45   C     C_R   0.574127 0.521726 0.953386 0.086295
C46   C     C_3   0.776710 0.730012 0.604788 -0.370231
C47   C     C_3   0.778995 0.655401 0.683828 -0.325768
C48   C     C_3   0.902500 0.635828 0.693907 -0.885872
C49   C     C_R   0.581391 0.493767 0.044232 0.087229
C50   C     C_R   0.578207 0.398765 0.074970 -0.231329
C51   C     C_R   0.593866 0.618272 0.920960 -0.232343
C52   C     C_R   0.558174 0.332290 0.019079 -0.216301
H1    H     H_    0.554517 0.260142 0.045380 0.144220
H2    H     H_    0.602952 0.645871 0.852557 0.137789
H3    H     H_    0.681661 0.004082 0.695691 0.144298
H4    H     H_    0.212531 0.966182 0.390571 0.141466
H5    H     H_    0.528345 0.226756 0.554420 0.170318
H6    H     H_    0.412824 0.757717 0.492522 0.142010
H7    H     H_    0.743655 0.866094 0.682913 0.143671
H8    H     H_    0.235435 0.127296 0.334519 0.145192
H9    H     H_    0.366385 0.712298 0.305830 0.144957
H10   H     H_    0.388470 0.765706 0.192429 0.121644
H11   H     H_    0.478142 0.918796 0.233708 0.249408
H12   H     H_    0.611124 0.756445 0.949311 0.145168
H13   H     H_    0.333601 0.870432 0.288089 0.201620
H14   H     H_    0.468579 0.869340 0.347567 0.268160
H15   H     H_    0.265729 0.245538 0.759897 0.133243
H16   H     H_    0.317864 0.152939 0.826220 0.135550
H17   H     H_    0.333077 0.080095 0.693109 0.258939
H18   H     H_    0.183875 0.091093 0.714153 0.200922
H19   H     H_    0.276768 0.171587 0.629195 0.262532
H20   H     H_    0.313389 0.455281 0.182469 0.273196
H21   H     H_    0.211789 0.350268 0.157031 0.265739
H22   H     H_    0.155287 0.435000 0.204984 0.250933
H23   H     H_    0.579022 0.118908 0.636680 0.169018
H24   H     H_    0.160107 0.297419 0.316119 0.212983
H25   H     H_    0.258959 0.403123 0.340058 0.256820
H26   H     H_    0.434825 0.352944 0.278550 0.212734
H27   H     H_    0.336999 0.260848 0.243479 0.172711
H28   H     H_    0.931114 0.613964 0.633741 0.272278
H29   H     H_    0.968843 0.699313 0.707283 0.259792
H30   H     H_    0.899833 0.578919 0.749333 0.255004
H31   H     H_    0.755441 0.680037 0.744045 0.205282
H32   H     H_    0.713917 0.589330 0.677507 0.259312
H33   H     H_    0.798516 0.711561 0.541686 0.222975
H34   H     H_    0.294123 0.845695 0.467525 0.143827
H35   H     H_    0.853736 0.790228 0.610111 0.170864
H36   H     H_    0.581139 0.468553 0.221799 0.168698
H37   H     H_    0.510128 0.543734 0.786173 0.186830
H38   H     H_    0.499244 0.215664 0.903173 0.147219
H39   H     H_    0.586043 0.792223 0.094652 0.154974
H40   H     H_    0.590394 0.372738 0.141985 0.138888
N1    N     N_R   0.566020 0.731700 0.552730 -0.099916
N2    N     N_R   0.433980 0.268300 0.447270 -0.113292
O1    O     O_R   0.466720 0.383110 0.605620 -0.563597
O2    O     O_3   0.443997 0.243309 0.737696 -0.610175
O3    O     O_R   0.533280 0.616890 0.394380 -0.563982
O4    O     O_R   0.509090 0.531900 0.639510 -0.635090
O5    O     O_R   0.490910 0.468100 0.360490 -0.635134
O6    O     O_R   0.644370 0.425610 0.483050 -0.609890
O7    O     O_R   0.355630 0.574390 0.516950 -0.615847
O8    O     O_R   0.686740 0.574390 0.516930 -0.629011
O9    O     O_R   0.313260 0.425610 0.483070 -0.621677
O10   O     O_3   0.543295 0.754972 0.262984 -0.589099
Zn1   Zn    Zn3+2 0.471710 0.400660 0.477370 0.946332
Zn2   Zn    Zn3+2 0.528290 0.599340 0.522630 0.949068

loop_
_geom_bond_atom_site_label_1
_geom_bond_atom_site_label_2
_ccdc_geom_bond_type
C15   C18   A    
N2    Zn1   S    
C18   H23   S    
C34   C37   A    
C43   C44   S    
C19   H34   S    
C27   C33   A    
O6    Zn1   S    
C12   C28   S    
C23   C29   A    
C35   C37   A    
C24   C26   T    
C10   C15   A    
C38   C39   S    
C8    H5    S    
C45   C51   A    
C31   O2    S    
C23   C36   A    
C43   H24   S    
C33   C36   A    
C48   H29   S    
C4    C13   A    
C17   O7    A    
C12   O5    A    
C38   O10   S    
O1    Zn1   S    
C28   C35   A    
C6    N2    A    
C22   C25   T    
C50   C52   A    
C32   O10   S    
C44   H20   S    
C47   H31   S    
C7    H6    S    
C41   H19   S    
C38   H9    S    
C2    C34   A    
C42   H27   S    
C39   H13   S    
C40   O2    S    
C20   H3    S    
O5    Zn1   S    
C29   H38   S    
C2    H12   S    
C7    N1    A    
C11   C20   A    
C17   C24   S    
C30   C34   A    
C27   C31   A    
C28   C32   A    
C8    N2    A    
C4    C6    A    
C16   O6    A    
C25   C26   S    
C40   H15   S    
C9    C14   A    
C33   H37   S    
N1    Zn2   S    
C37   C49   A    
C35   H36   S    
C47   C48   S    
C45   C49   A    
C1    O1    A    
C4    H8    S    
C13   C21   A    
C36   C45   A    
O9    Zn1   S    
C47   H32   S    
C44   H22   S    
C9    C11   A    
C12   O3    A    
O3    Zn2   S    
C16   O8    A    
C40   C41   S    
C42   H26   S    
C6    C42   S    
C39   H14   S    
C42   C43   S    
C52   H1    S    
C41   H17   S    
C46   H35   S    
C50   H40   S    
O7    Zn2   S    
C7    C9    A    
C46   C47   S    
C16   C22   S    
C19   C21   A    
C14   C19   A    
C30   H39   S    
C3    C5    A    
C10   C13   A    
C1    O4    A    
C21   H4    S    
C5    N1    A    
C43   H25   S    
C39   H11   S    
C5    C46   S    
O4    Zn2   S    
C51   H2    S    
C46   H33   S    
C17   O9    A    
C29   C31   A    
C30   C32   A    
C48   H28   S    
C23   C52   A    
C48   H30   S    
O8    Zn2   S    
C18   C20   A    
C44   H21   S    
C3    C11   A    
C2    C51   A    
C8    C10   A    
C49   C50   A    
C40   H16   S    
C1    C27   S    
C14   C15   A    
C41   H18   S    
C38   H10   S    
C3    H7    S    
