data_mof_unit_38689.cif
_audit_creation_date              2012-12-10T17:56:47-0500
_audit_creation_method            fapswitch 2.2
_symmetry_space_group_name_H-M    P1
_symmetry_Int_Tables_number       1
_space_group_crystal_system       triclinic
_cell_length_a                    10.811078
_cell_length_b                    9.534295
_cell_length_c                    10.747882
_cell_angle_alpha                 90.095225
_cell_angle_beta                  90.472636
_cell_angle_gamma                 90.016654
_cell_volume                      1107.80948546

loop_
_atom_site_label
_atom_site_type_symbol
_atom_type_description
_atom_site_fract_x
_atom_site_fract_y
_atom_site_fract_z
_atom_type_partial_charge
C1    C     C_R   0.262118 0.499948 0.499783 0.781928
C2    C     C_R   0.737863 0.499948 0.499877 0.755748
C3    C     C_R   0.935863 0.624668 0.476731 -0.141297
C4    C     C_R   0.063742 0.624914 0.477484 -0.152901
C5    C     C_R   0.422531 0.074656 0.423061 -0.146954
C6    C     C_R   0.577452 0.075084 0.576956 -0.151982
C7    C     C_R   0.423310 0.925014 0.421007 0.513159
C8    C     C_R   0.579703 0.925064 0.576137 0.535006
C9    C     C_R   0.500719 0.499978 0.262571 0.783495
C10   C     C_R   0.502199 0.500137 0.737465 0.784801
C11   C     C_R   0.728935 0.562066 0.132867 -0.346094
C12   C     C_R   0.730001 0.563721 0.873178 -0.298671
C13   C     C_R   0.839419 0.587953 0.069948 0.444996
C14   C     C_R   0.839241 0.593686 0.938785 0.448962
C15   C     C_R   0.618827 0.533650 0.935924 0.017493
C16   C     C_R   0.618255 0.533400 0.067125 0.016542
C17   C     C_R   0.507269 0.500081 0.129001 -0.038811
C18   C     C_R   0.508208 0.500378 0.871248 -0.038338
C19   C     C_R   0.400091 0.464990 0.063051 -0.212438
C20   C     C_R   0.400575 0.465082 0.934623 -0.201147
C21   C     C_R   0.064042 0.374747 0.520898 -0.188268
C22   C     C_R   0.936146 0.374771 0.521077 -0.183256
C23   C     C_R   0.871684 0.499845 0.499330 -0.012865
C24   C     C_R   0.128243 0.499918 0.499553 -0.035013
Cu1   Cu    Cu3+1 0.500000 0.640660 0.500000 1.019741
Cu2   Cu    Cu3+1 0.500000 0.359340 0.500000 0.938617
H1    H     H_    0.315593 0.438646 0.111378 0.127275
H2    H     H_    0.316385 0.438796 0.884242 0.145026
H3    H     H_    0.731848 0.561052 0.233473 0.165440
H4    H     H_    0.733539 0.563304 0.772587 0.180900
H5    H     H_    0.112404 0.277161 0.538355 0.152646
H6    H     H_    0.888014 0.277243 0.538857 0.144128
H7    H     H_    0.887491 0.721689 0.457392 0.151034
H8    H     H_    0.111823 0.722394 0.459510 0.178100
H9    H     H_    0.358858 0.132167 0.364218 0.150405
H10   H     H_    0.636724 0.133422 0.639853 0.153182
N1    N     N_R   0.500000 0.852070 0.500000 -0.235709
N2    N     N_R   0.500000 0.147940 0.500000 -0.197341
O1    O     O_R   0.319640 0.618740 0.499990 -0.542994
O2    O     O_R   0.680360 0.618740 0.500010 -0.555799
O3    O     O_R   0.319620 0.381170 0.499990 -0.592815
O4    O     O_R   0.680380 0.381170 0.500010 -0.591359
O5    O     O_R   0.500000 0.618810 0.319650 -0.550280
O6    O     O_R   0.500000 0.618810 0.680350 -0.533099
O7    O     O_R   0.499970 0.381240 0.319640 -0.581278
O8    O     O_R   0.500030 0.381240 0.680360 -0.581232
O9    O     O_3   0.946608 0.611599 0.137574 -0.583415
C25   C     C_3   0.003923 0.481393 0.160816 -0.307355
H11   H     H_    0.944782 0.413208 0.219667 0.165133
H12   H     H_    0.091521 0.500433 0.212597 0.185836
H13   H     H_    0.027867 0.426761 0.072587 0.170773
O10   O     O_3   0.946635 0.614295 0.871681 -0.581768
C26   C     C_3   0.995685 0.749022 0.895895 -0.280952
H14   H     H_    0.923097 0.830321 0.910810 0.139908
H15   H     H_    0.050184 0.782067 0.813977 0.166776
H16   H     H_    0.060352 0.745744 0.976539 0.212861
O11   O     O_3   0.340900 0.850883 0.346695 -0.556682
C27   C     C_3   0.357811 0.885706 0.220361 -0.309347
H17   H     H_    0.457399 0.887811 0.194306 0.162634
H18   H     H_    0.312682 0.987226 0.197731 0.141439
H19   H     H_    0.312431 0.803934 0.162267 0.195580
O12   O     O_3   0.655147 0.849567 0.656751 -0.536975
C28   C     C_3   0.777080 0.902668 0.658503 -0.375126
H20   H     H_    0.786185 0.987502 0.728903 0.157882
H21   H     H_    0.808032 0.939938 0.565546 0.138197
H22   H     H_    0.840334 0.816713 0.686384 0.215919

loop_
_geom_bond_atom_site_label_1
_geom_bond_atom_site_label_2
_ccdc_geom_bond_type
C10   O8    A    
C15   C18   A    
C6    N2    A    
C9    O7    A    
O12   C28   S    
C13   C14   A    
C19   H1    S    
C11   C16   A    
C3    C23   A    
C19   C20   A    
C12   C15   A    
C12   C14   A    
Cu1   N1    S    
C28   H21   S    
Cu1   O5    S    
C27   H19   S    
C25   H12   S    
C7    N1    A    
C28   H22   S    
Cu2   O3    S    
C21   C22   A    
Cu1   O1    S    
C11   C13   A    
Cu2   O4    S    
O11   C27   S    
C22   H6    S    
C2    O4    A    
Cu2   O8    S    
C5    H9    S    
Cu1   O6    S    
C9    C17   S    
C25   H11   S    
C17   C19   A    
C10   C18   S    
C18   C20   A    
C26   H15   S    
Cu1   O2    S    
C4    C24   A    
C4    H8    S    
C21   C24   A    
C9    O5    A    
C8    N1    A    
C3    H7    S    
C10   O6    A    
C15   C16   A    
O9    C25   S    
C2    O2    A    
C5    N2    A    
O10   C26   S    
C11   H3    S    
C1    C24   S    
C13   O9    S    
C26   H16   S    
C1    O3    A    
C2    C23   S    
C5    C7    A    
C1    O1    A    
C22   C23   A    
Cu2   N2    S    
C6    C8    A    
C20   H2    S    
Cu2   O7    S    
C12   H4    S    
Cu1   Cu2   S    
C26   H14   S    
C27   H17   S    
C27   H18   S    
C7    O11   S    
C25   H13   S    
C14   O10   S    
C3    C4    A    
C28   H20   S    
C8    O12   S    
C6    H10   S    
C16   C17   A    
C21   H5    S    
