data_mof_unit_18945.cif
_audit_creation_date              2012-12-10T16:47:29-0500
_audit_creation_method            fapswitch 2.2
_symmetry_space_group_name_H-M    P1
_symmetry_Int_Tables_number       1
_space_group_crystal_system       triclinic
_cell_length_a                    10.598528
_cell_length_b                    8.705522
_cell_length_c                    7.631581
_cell_angle_alpha                 103.852307
_cell_angle_beta                  95.834411
_cell_angle_gamma                 96.151033
_cell_volume                      673.781603042

loop_
_atom_site_label
_atom_site_type_symbol
_atom_type_description
_atom_site_fract_x
_atom_site_fract_y
_atom_site_fract_z
_atom_type_partial_charge
C1    C     C_R   0.496007 0.199777 0.452481 0.892718
C2    C     C_R   0.503993 0.800222 0.547519 0.892718
C3    C     C_R   0.259780 0.499331 0.499599 0.802666
C4    C     C_R   0.740220 0.500669 0.500401 0.802667
C5    C     C_3   0.054880 0.513517 0.670511 -0.119841
C6    C     C_3   0.945120 0.486483 0.329489 -0.119840
C7    C     C_3   0.951412 0.376209 0.560422 -0.191030
C8    C     C_3   0.048588 0.623791 0.439578 -0.191030
C9    C     C_3   0.877376 0.500408 0.499970 0.023134
C10   C     C_3   0.122624 0.499592 0.500030 0.023134
C11   C     C_3   0.978552 0.637702 0.609788 -0.157791
C12   C     C_3   0.021448 0.362298 0.390212 -0.157791
C13   C     C_2   0.494264 0.030672 0.427417 -0.358189
C14   C     C_2   0.505736 0.969328 0.572583 -0.358189
Cu1   Cu    Cu3+1 0.514140 0.517380 0.684380 1.004681
Cu2   Cu    Cu3+1 0.485860 0.482620 0.315620 1.004681
H1    H     H_    0.908506 0.275105 0.609938 0.134215
H2    H     H_    0.091494 0.724895 0.390062 0.134215
H3    H     H_    0.102307 0.524380 0.810369 0.148975
H4    H     H_    0.897693 0.475620 0.189630 0.148975
H5    H     H_    0.957768 0.750180 0.699595 0.149676
H6    H     H_    0.042232 0.249820 0.300405 0.149676
H7    H     H_    0.483574 0.956508 0.288807 0.184950
H8    H     H_    0.516426 0.043492 0.711193 0.184950
N1    N     N_2   0.464560 0.456420 0.038510 -0.219684
N2    N     N_2   0.535440 0.543580 0.961490 -0.219684
O1    O     O_R   0.509190 0.286130 0.619780 -0.552913
O2    O     O_R   0.490810 0.713870 0.380220 -0.552913
O3    O     O_R   0.485310 0.256770 0.308360 -0.567088
O4    O     O_R   0.514690 0.743230 0.691640 -0.567088
O5    O     O_R   0.328790 0.514640 0.655680 -0.561311
O6    O     O_R   0.671210 0.485360 0.344320 -0.561311
O7    O     O_R   0.304910 0.485280 0.344260 -0.569450
O8    O     O_R   0.695090 0.514720 0.655740 -0.569450
C15   C     C_2   0.362289 0.329685 0.950799 1.023718
O9    O     O_2   0.306438 0.259159 0.046723 -0.607563
O10   O     O_R   0.321308 0.281340 0.765654 -0.753471
H9    H     H_    0.247653 0.190546 0.730370 0.293597
C16   C     C_2   0.637711 0.670315 0.049201 1.023718
O11   O     O_2   0.693562 0.740841 0.953277 -0.607563
O12   O     O_R   0.678692 0.718660 0.234346 -0.753470
H10   H     H_    0.752347 0.809454 0.269630 0.293597

loop_
_geom_bond_atom_site_label_1
_geom_bond_atom_site_label_2
_ccdc_geom_bond_type
Cu2   O2    S    
C2    O2    A    
Cu1   O5    S    
O10   H9    S    
C5    H3    S    
Cu2   O7    S    
Cu2   O6    S    
C6    H4    S    
O12   H10   S    
Cu1   O8    S    
Cu1   O1    S    
C15   O9    D    
C2    O4    A    
C1    O1    A    
C6    C9    S    
C1    O3    A    
N1    N2    D    
C5    C10   S    
C16   O12   S    
C3    C10   S    
C13   C14   D    
C3    O5    A    
C9    C11   S    
Cu2   O3    S    
C4    O6    A    
C10   C12   S    
N1    C15   S    
C8    C11   S    
C8    C10   S    
C15   O10   S    
C5    C11   S    
C6    C12   S    
C7    C12   S    
C2    C14   S    
C4    O8    A    
N2    C16   S    
C1    C13   S    
C3    O7    A    
Cu1   Cu2   S    
C12   H6    S    
C16   O11   D    
C13   H7    S    
Cu1   O4    S    
C7    C9    S    
C14   H8    S    
Cu2   N1    S    
C5    C7    S    
Cu1   N2    S    
C6    C8    S    
C4    C9    S    
C11   H5    S    
C8    H2    S    
C7    H1    S    
