data_mof_unit_61716.cif
_audit_creation_date              2012-12-10T20:12:34-0500
_audit_creation_method            fapswitch 2.2
_symmetry_space_group_name_H-M    P1
_symmetry_Int_Tables_number       1
_space_group_crystal_system       triclinic
_cell_length_a                    15.93114
_cell_length_b                    15.930938
_cell_length_c                    60.046484
_cell_angle_alpha                 90.03239
_cell_angle_beta                  90.032463
_cell_angle_gamma                 90.008576
_cell_volume                      15239.6727103

loop_
_atom_site_label
_atom_site_type_symbol
_atom_type_description
_atom_site_fract_x
_atom_site_fract_y
_atom_site_fract_z
_atom_type_partial_charge
C1    C     C_R   0.499997 0.000021 0.810434 0.901492
C2    C     C_R   0.432900 0.862701 0.452653 0.626893
C3    C     C_1   0.223425 0.723406 0.750004 -0.109301
C4    C     C_1   0.276585 0.223416 0.250000 -0.107917
C5    C     C_1   0.723415 0.776584 0.750000 -0.108646
C6    C     C_1   0.223404 0.723426 0.250003 -0.109168
C7    C     C_1   0.776596 0.276573 0.749997 -0.109284
C8    C     C_R   0.535279 0.066308 0.582642 0.645848
C9    C     C_R   0.464738 0.933691 0.417359 0.645850
C10   C     C_R   0.940758 0.453955 0.582585 0.644393
C11   C     C_R   0.059239 0.546045 0.417415 0.644397
C12   C     C_R   0.454113 0.940632 0.582584 0.644394
C13   C     C_R   0.883726 0.400931 0.547289 0.622140
C14   C     C_R   0.545872 0.059388 0.417416 0.644396
C15   C     C_R   0.066217 0.535455 0.582642 0.645832
C16   C     C_R   0.933781 0.464544 0.417358 0.645836
C17   C     C_R   0.956004 0.560595 0.082463 0.644015
C18   C     C_R   0.018469 0.427421 0.917486 0.644843
C19   C     C_R   0.430329 0.027386 0.082386 0.645184
C20   C     C_R   0.574818 0.001545 0.917418 0.645594
C21   C     C_R   0.043748 0.439275 0.082464 0.644000
C22   C     C_R   0.981806 0.572593 0.917504 0.644832
C23   C     C_R   0.569568 0.972340 0.082393 0.645204
C24   C     C_R   0.116270 0.599070 0.452711 0.622142
C25   C     C_R   0.425114 0.998717 0.917393 0.645581
C26   C     C_R   0.573204 0.990242 0.629354 -0.162726
C27   C     C_R   0.576936 0.987592 0.370242 -0.160581
C28   C     C_R   0.990044 0.573177 0.629355 -0.162731
C29   C     C_R   0.009959 0.426824 0.370645 -0.162708
C30   C     C_R   0.423067 0.012431 0.629758 -0.160611
C31   C     C_R   0.426794 0.009745 0.370646 -0.162697
C32   C     C_R   0.012656 0.423100 0.629759 -0.160599
C33   C     C_R   0.987337 0.576899 0.370241 -0.160576
C34   C     C_R   0.925266 0.486276 0.129484 -0.161411
C35   C     C_R   0.401241 0.883464 0.547287 0.622118
C36   C     C_R   0.924925 0.510216 0.870529 -0.162637
C37   C     C_R   0.502597 0.924079 0.129402 -0.162008
C38   C     C_R   0.479222 0.927102 0.870478 -0.163601
C39   C     C_R   0.074529 0.513681 0.129498 -0.161481
C40   C     C_R   0.075292 0.489803 0.870536 -0.162571
C41   C     C_R   0.497361 0.075706 0.129411 -0.162075
C42   C     C_R   0.520726 0.073111 0.870494 -0.163531
C43   C     C_R   0.574408 0.989789 0.652640 0.581845
C44   C     C_R   0.576482 0.988103 0.346989 0.581550
C45   C     C_R   0.989587 0.574380 0.652641 0.581837
C46   C     C_R   0.598741 0.116565 0.452712 0.622121
C47   C     C_R   0.010417 0.425621 0.347359 0.581867
C48   C     C_R   0.423521 0.011918 0.653011 0.581504
C49   C     C_R   0.425589 0.010196 0.347359 0.581889
C50   C     C_R   0.012140 0.423554 0.653012 0.581493
C51   C     C_R   0.987854 0.576445 0.346988 0.581521
C52   C     C_R   0.924921 0.486356 0.152771 0.581063
C53   C     C_R   0.924518 0.510180 0.847244 0.582865
C54   C     C_R   0.502602 0.923735 0.152695 0.582253
C55   C     C_R   0.479380 0.926670 0.847185 0.582366
C56   C     C_R   0.074927 0.513636 0.152783 0.581108
C57   C     C_R   0.137114 0.567492 0.547347 0.626820
C58   C     C_R   0.075638 0.489835 0.847249 0.582815
C59   C     C_R   0.497379 0.076110 0.152703 0.582305
C60   C     C_R   0.520579 0.073486 0.847200 0.582338
C61   C     C_R   0.497655 0.001476 0.617798 0.070484
C62   C     C_R   0.502345 0.998530 0.382202 0.070482
C63   C     C_R   0.001491 0.497659 0.617798 0.070522
C64   C     C_R   0.998507 0.502341 0.382201 0.070524
C65   C     C_R   0.999886 0.499966 0.117704 0.071619
C66   C     C_R   0.000123 0.500011 0.882297 0.075709
C67   C     C_R   0.499971 0.999879 0.117624 0.070771
C68   C     C_R   0.862884 0.432506 0.452653 0.626824
C69   C     C_R   0.499972 0.000120 0.882236 0.078400
C70   C     C_R   0.494430 0.003690 0.547275 -0.225842
C71   C     C_R   0.505572 0.996324 0.452725 -0.225840
C72   C     C_R   0.003701 0.494442 0.547275 -0.225838
C73   C     C_R   0.996296 0.505558 0.452725 -0.225836
C74   C     C_R   0.999920 0.499939 0.047156 -0.221403
C75   C     C_R   0.000090 0.499990 0.952804 -0.221178
C76   C     C_R   0.499946 0.999909 0.047076 -0.221221
C77   C     C_R   0.499960 0.000082 0.952719 -0.221832
C78   C     C_R   0.534239 0.068886 0.559165 -0.238157
C79   C     C_R   0.908257 0.621725 0.047016 0.622701
C80   C     C_R   0.465775 0.931118 0.440835 -0.238162
C81   C     C_R   0.941110 0.450651 0.559124 -0.234719
C82   C     C_R   0.058887 0.549350 0.440876 -0.234721
C83   C     C_R   0.450806 0.940979 0.559123 -0.234768
C84   C     C_R   0.549182 0.059042 0.440877 -0.234770
C85   C     C_R   0.068793 0.534424 0.559165 -0.238186
C86   C     C_R   0.931205 0.465575 0.440835 -0.238193
C87   C     C_R   0.954789 0.561758 0.058973 -0.233473
C88   C     C_R   0.019065 0.425829 0.940976 -0.234700
C89   C     C_R   0.428802 0.028119 0.058890 -0.235940
C90   C     C_R   0.035742 0.351778 0.952925 0.619365
C91   C     C_R   0.576514 0.001296 0.940913 -0.235387
C92   C     C_R   0.045016 0.438113 0.058975 -0.233473
C93   C     C_R   0.981153 0.574164 0.940994 -0.234717
C94   C     C_R   0.571089 0.971662 0.058897 -0.235935
C95   C     C_R   0.423410 0.998907 0.940888 -0.235396
C96   C     C_R   0.359020 0.057996 0.046922 0.623127
C97   C     C_R   0.500001 0.999979 0.189540 0.894091
C98   C     C_R   0.652350 0.004187 0.952891 0.623182
C99   C     C_R   0.091582 0.378151 0.047021 0.622714
C100  C     C_R   0.964441 0.648203 0.952962 0.619393
C101  C     C_R   0.640871 0.941820 0.046935 0.623126
C102  C     C_R   0.347570 0.995978 0.952840 0.623195
C103  C     C_R   0.499374 0.000559 0.664827 -0.330354
C104  C     C_R   0.500626 0.999443 0.335173 -0.330446
C105  C     C_R   0.000566 0.499375 0.664827 -0.330341
C106  C     C_R   0.999433 0.500625 0.335173 -0.330383
C107  C     C_R   0.999939 0.500000 0.164789 -0.329067
C108  C     C_R   0.000021 0.500000 0.810446 0.896717
C109  C     C_R   0.000062 0.500005 0.835226 -0.328482
C110  C     C_R   0.499995 0.999939 0.164736 -0.331089
C111  C     C_R   0.499985 0.000062 0.835192 -0.325836
C112  C     C_R   0.972962 0.572179 0.988252 -0.088452
C113  C     C_R   0.038520 0.433161 0.011712 -0.085014
C114  C     C_R   0.423225 0.007663 0.988152 -0.085698
C115  C     C_R   0.574344 0.979701 0.011636 -0.089639
C116  C     C_R   0.027089 0.427759 0.988239 -0.088452
C117  C     C_R   0.961442 0.566749 0.011716 -0.085016
C118  C     C_R   0.576683 0.992371 0.988173 -0.085684
C119  C     C_R   0.999979 0.500002 0.189559 0.896696
C120  C     C_R   0.425556 0.020243 0.011623 -0.089646
C121  C     C_R   0.546399 0.062187 0.488209 -0.089230
C122  C     C_R   0.453600 0.937831 0.511791 -0.089224
C123  C     C_R   0.932678 0.461403 0.488179 -0.091623
C124  C     C_R   0.067319 0.538597 0.511821 -0.091622
C125  C     C_R   0.461593 0.932580 0.488179 -0.091568
C126  C     C_R   0.538413 0.067434 0.511822 -0.091575
C127  C     C_R   0.062047 0.546569 0.488208 -0.089153
C128  C     C_R   0.937950 0.453431 0.511792 -0.089155
C129  C     C_R   0.000048 0.499976 0.976473 -0.054479
C130  C     C_R   0.999925 0.500083 0.310428 0.895601
C131  C     C_R   0.999960 0.499949 0.023487 -0.054468
C132  C     C_R   0.499956 0.000039 0.976388 -0.054715
C133  C     C_R   0.499948 0.999950 0.023405 -0.054592
C134  C     C_R   0.503503 0.997693 0.476453 -0.047530
C135  C     C_R   0.496499 0.002322 0.523547 -0.047531
C136  C     C_R   0.997673 0.503494 0.476453 -0.047537
C137  C     C_R   0.002324 0.496506 0.523547 -0.047538
C138  C     C_R   0.961551 0.647559 0.976172 0.618498
C139  C     C_R   0.089404 0.376413 0.023809 0.616575
C140  C     C_R   0.347438 0.999255 0.976054 0.618014
C141  C     C_R   0.000075 0.499917 0.689571 0.895365
C142  C     C_R   0.642112 0.944740 0.023722 0.620358
C143  C     C_R   0.038547 0.352394 0.976137 0.618524
C144  C     C_R   0.910512 0.623483 0.023805 0.616567
C145  C     C_R   0.652474 0.000825 0.976104 0.617990
C146  C     C_R   0.357784 0.055157 0.023707 0.620376
C147  C     C_R   0.600864 0.115097 0.475879 0.615385
C148  C     C_R   0.399127 0.884927 0.524120 0.615387
C149  C     C_R   0.861642 0.434533 0.475823 0.618034
C150  C     C_R   0.138356 0.565466 0.524177 0.618035
C151  C     C_R   0.434925 0.861467 0.475823 0.618034
C152  C     C_R   0.500084 0.999927 0.310429 0.895554
C153  C     C_R   0.565091 0.138542 0.524178 0.618035
C154  C     C_R   0.114803 0.601183 0.475878 0.615358
C155  C     C_R   0.885194 0.398818 0.524122 0.615356
C156  C     C_R   0.660311 0.839687 0.750000 0.848061
C157  C     C_R   0.339688 0.160312 0.250000 0.848648
C158  C     C_R   0.160323 0.660307 0.750003 0.847371
C159  C     C_R   0.839677 0.339693 0.249997 0.848402
C160  C     C_R   0.339678 0.160323 0.750000 0.848656
C161  C     C_R   0.660322 0.839677 0.250000 0.849250
C162  C     C_R   0.839693 0.339676 0.749998 0.847203
C163  C     C_R   0.499916 0.000073 0.689571 0.895189
C164  C     C_R   0.160306 0.660324 0.250002 0.848239
C165  C     C_R   0.660324 0.160307 0.250002 0.846990
C166  C     C_R   0.339676 0.839694 0.749998 0.849741
C167  C     C_R   0.160312 0.339688 0.250000 0.847867
C168  C     C_R   0.839688 0.660312 0.750000 0.849589
C169  C     C_R   0.339693 0.839676 0.249997 0.847154
C170  C     C_R   0.660307 0.160323 0.750003 0.849900
C171  C     C_R   0.839677 0.660322 0.250000 0.848466
C172  C     C_R   0.160323 0.339678 0.750000 0.850193
C173  C     C_1   0.723406 0.223425 0.750004 -0.108411
C174  C     C_R   0.567123 0.137300 0.547348 0.626884
C175  C     C_1   0.276594 0.776575 0.249996 -0.109673
C176  C     C_1   0.776584 0.723415 0.750000 -0.107715
C177  C     C_1   0.223416 0.276585 0.250000 -0.108367
C178  C     C_1   0.276574 0.776596 0.749997 -0.108370
C179  C     C_1   0.723426 0.223405 0.250003 -0.109650
C180  C     C_1   0.223418 0.276583 0.749999 -0.107676
C181  C     C_1   0.776581 0.723417 0.250001 -0.108327
C182  C     C_1   0.723417 0.776581 0.250000 -0.107878
C183  C     C_1   0.276583 0.223419 0.749999 -0.108609
C184  C     C_1   0.776575 0.276594 0.249996 -0.109201
F1    F     F_    0.349592 0.023399 0.663820 -0.594912
F2    F     F_    0.150047 0.479306 0.836609 -0.596505
F3    F     F_    0.494728 0.151278 0.163332 -0.594102
F4    F     F_    0.541783 0.145481 0.836512 -0.598728
F5    F     F_    0.851157 0.472117 0.163422 -0.596178
F6    F     F_    0.850078 0.520707 0.836599 -0.596462
F7    F     F_    0.505263 0.848599 0.163318 -0.594140
F8    F     F_    0.458179 0.854646 0.836481 -0.598709
F9    F     F_    0.596800 0.206291 0.558084 -0.496478
F10   F     F_    0.403236 0.793704 0.441918 -0.496473
F11   F     F_    0.829161 0.349382 0.558014 -0.501090
F12   F     F_    0.350995 0.021890 0.336879 -0.595158
F13   F     F_    0.170835 0.650620 0.441986 -0.501092
F14   F     F_    0.349836 0.828760 0.558012 -0.500907
F15   F     F_    0.650134 0.171278 0.441987 -0.500897
F16   F     F_    0.206026 0.597354 0.558081 -0.496355
F17   F     F_    0.793972 0.402644 0.441918 -0.496340
F18   F     F_    0.858467 0.678238 0.057619 -0.500875
F19   F     F_    0.047859 0.277444 0.942312 -0.500013
F20   F     F_    0.291810 0.091985 0.057520 -0.494159
F21   F     F_    0.727279 0.011934 0.942306 -0.500670
F22   F     F_    0.141336 0.321628 0.057630 -0.500873
F23   F     F_    0.023839 0.349660 0.663822 -0.594954
F24   F     F_    0.952361 0.722549 0.942371 -0.499986
F25   F     F_    0.708078 0.907794 0.057536 -0.494158
F26   F     F_    0.272645 0.988269 0.942226 -0.500658
F27   F     F_    0.956773 0.723013 0.986597 -0.498009
F28   F     F_    0.144697 0.324819 0.013407 -0.511715
F29   F     F_    0.273278 0.984714 0.986471 -0.508546
F30   F     F_    0.706112 0.904566 0.013291 -0.492980
F31   F     F_    0.043287 0.276927 0.986535 -0.497966
F32   F     F_    0.855256 0.675086 0.013392 -0.511720
F33   F     F_    0.726631 0.015326 0.986553 -0.508585
F34   F     F_    0.976150 0.650338 0.336177 -0.594966
F35   F     F_    0.293787 0.095369 0.013278 -0.492954
F36   F     F_    0.664144 0.158388 0.485728 -0.499803
F37   F     F_    0.335849 0.841639 0.514269 -0.499814
F38   F     F_    0.786427 0.419842 0.485658 -0.498445
F39   F     F_    0.213571 0.580157 0.514342 -0.498451
F40   F     F_    0.420441 0.786212 0.485659 -0.498640
F41   F     F_    0.579576 0.213800 0.514344 -0.498630
F42   F     F_    0.157919 0.664581 0.485728 -0.500075
F43   F     F_    0.842078 0.335419 0.514272 -0.500073
F44   F     F_    0.648999 0.978075 0.663121 -0.595155
F45   F     F_    0.650414 0.976640 0.336180 -0.594916
F46   F     F_    0.977653 0.648936 0.663122 -0.595197
F47   F     F_    0.022357 0.351066 0.336877 -0.595209
F48   F     F_    0.148717 0.527893 0.163447 -0.596152
H1    H     H_    0.364452 0.021766 0.620957 0.206289
H2    H     H_    0.133758 0.482009 0.879508 0.203096
H3    H     H_    0.495572 0.134663 0.120454 0.206694
H4    H     H_    0.536871 0.129814 0.879483 0.201334
H5    H     H_    0.867295 0.475155 0.120529 0.205856
H6    H     H_    0.866481 0.518010 0.879497 0.203088
H7    H     H_    0.504376 0.865100 0.120438 0.206710
H8    H     H_    0.463074 0.870420 0.879454 0.201323
H9    H     H_    0.368826 0.018466 0.379768 0.205684
H10   H     H_    0.022158 0.364512 0.620958 0.206263
H11   H     H_    0.977831 0.635487 0.379041 0.206254
H12   H     H_    0.631169 0.981508 0.620232 0.205691
H13   H     H_    0.635553 0.978272 0.379043 0.206282
H14   H     H_    0.981145 0.631118 0.620232 0.205658
H15   H     H_    0.018862 0.368884 0.379768 0.205649
H16   H     H_    0.132481 0.524788 0.120553 0.205836
N1    N     N_R   0.496541 0.002253 0.593804 -0.346718
N2    N     N_R   0.503460 0.997756 0.406196 -0.346722
N3    N     N_R   0.002268 0.496546 0.593804 -0.346723
N4    N     N_R   0.997730 0.503454 0.406196 -0.346727
N5    N     N_R   0.999869 0.499939 0.093676 -0.346509
N6    N     N_R   0.000145 0.500011 0.906303 -0.347453
N7    N     N_R   0.499952 0.999857 0.093598 -0.346886
N8    N     N_R   0.499968 0.000140 0.906227 -0.348771
O1    O     O_3   0.500000 1.000000 0.750000 -0.534028
O2    O     O_R   0.500000 0.069020 0.200420 -0.580389
O3    O     O_R   0.069020 0.500000 0.799580 -0.581221
O4    O     O_R   0.930980 0.500000 0.200420 -0.581622
O5    O     O_R   0.000000 0.569020 0.299580 -0.580955
O6    O     O_R   0.000000 0.430980 0.700420 -0.581045
O7    O     O_R   0.430980 1.000000 0.299580 -0.581357
O8    O     O_R   0.569020 0.000000 0.700420 -0.581529
O9    O     O_R   1.000000 0.430980 0.299580 -0.581414
O10   O     O_R   0.000000 0.569020 0.700420 -0.581503
O11   O     O_R   0.569020 1.000000 0.299580 -0.580899
O12   O     O_3   0.500000 1.000000 0.250000 -0.534309
O13   O     O_R   0.430980 0.000000 0.700420 -0.581070
O14   O     O_R   0.597490 0.833170 0.762730 -0.627616
O15   O     O_R   0.402510 0.166830 0.237270 -0.622854
O16   O     O_R   0.166830 0.597490 0.762730 -0.624591
O17   O     O_R   0.833170 0.402510 0.237270 -0.620507
O18   O     O_R   0.402510 0.166830 0.762730 -0.627786
O19   O     O_R   0.597490 0.833170 0.237270 -0.623025
O20   O     O_R   0.833170 0.402510 0.762730 -0.624487
O21   O     O_R   0.166830 0.597490 0.237270 -0.620389
O22   O     O_R   0.597490 0.166830 0.237270 -0.623045
O23   O     O_3   0.000000 0.500000 0.750000 -0.534298
O24   O     O_R   0.402510 0.833170 0.762730 -0.619597
O25   O     O_R   0.166830 0.402510 0.237270 -0.625651
O26   O     O_R   0.833170 0.597490 0.762730 -0.622259
O27   O     O_R   0.402510 0.833170 0.237270 -0.623153
O28   O     O_R   0.597490 0.166830 0.762730 -0.619719
O29   O     O_R   0.833170 0.597490 0.237270 -0.625822
O30   O     O_R   0.166830 0.402510 0.762730 -0.622431
O31   O     O_R   0.097490 0.333170 0.262730 -0.620682
O32   O     O_R   0.902510 0.666830 0.737270 -0.621047
O33   O     O_R   0.666830 0.097490 0.262730 -0.624931
O34   O     O_3   0.000000 0.500000 0.250000 -0.534242
O35   O     O_R   0.333170 0.902510 0.737270 -0.625455
O36   O     O_R   0.902510 0.666830 0.262730 -0.620116
O37   O     O_R   0.097490 0.333170 0.737270 -0.620484
O38   O     O_R   0.333170 0.902510 0.262730 -0.624950
O39   O     O_R   0.666830 0.097490 0.737270 -0.625469
O40   O     O_R   0.097490 0.666830 0.737270 -0.624630
O41   O     O_R   0.902510 0.333170 0.262730 -0.625466
O42   O     O_R   0.666830 0.902510 0.737270 -0.620162
O43   O     O_R   0.333170 0.097490 0.262730 -0.621177
O44   O     O_R   0.902510 0.333170 0.737270 -0.624613
O45   O     O_R   0.500000 0.069020 0.799580 -0.583445
O46   O     O_R   0.097490 0.666830 0.262730 -0.625452
O47   O     O_R   0.333170 0.097490 0.737270 -0.619599
O48   O     O_R   0.666830 0.902510 0.262730 -0.620617
O49   O     O_2   0.573998 0.127575 0.594282 -0.425530
O50   O     O_2   0.426037 0.872411 0.405718 -0.425506
O51   O     O_2   0.879092 0.415648 0.594144 -0.427176
O52   O     O_2   0.120905 0.584354 0.405855 -0.427157
O53   O     O_2   0.415971 0.878861 0.594142 -0.427180
O54   O     O_2   0.583995 0.121170 0.405857 -0.427158
O55   O     O_2   0.127383 0.574336 0.594282 -0.425520
O56   O     O_R   0.500000 0.930980 0.200420 -0.580586
O57   O     O_2   0.872616 0.425661 0.405718 -0.425497
O58   O     O_2   0.914593 0.620128 0.094065 -0.426524
O59   O     O_2   0.035577 0.357021 0.905847 -0.425700
O60   O     O_2   0.362529 0.053009 0.093995 -0.425793
O61   O     O_2   0.647223 0.002373 0.905781 -0.423234
O62   O     O_2   0.085132 0.379740 0.094067 -0.426500
O63   O     O_2   0.964725 0.643004 0.905883 -0.425644
O64   O     O_2   0.637370 0.946689 0.094010 -0.425813
O65   O     O_2   0.352714 0.997917 0.905733 -0.423246
O66   O     O_R   0.930980 0.500000 0.799580 -0.581027
O67   O     O_R   0.069020 0.500000 0.200420 -0.581424
O68   O     O_R   0.500000 0.930980 0.799580 -0.583248
Zn1   Zn    Zn3+2 0.599000 0.000000 0.730930 1.047704
Zn2   Zn    Zn3+2 0.901000 0.500000 0.769070 1.047453
Zn3   Zn    Zn3+2 0.500000 0.099000 0.230930 1.047378
Zn4   Zn    Zn3+2 0.500000 0.901000 0.769070 1.047138
Zn5   Zn    Zn3+2 0.901000 0.500000 0.230930 1.047385
Zn6   Zn    Zn3+2 0.099000 0.500000 0.769070 1.047539
Zn7   Zn    Zn3+2 0.500000 0.901000 0.230930 1.047462
Zn8   Zn    Zn3+2 0.500000 0.099000 0.769070 1.047222
Zn9   Zn    Zn3+2 0.401000 0.000000 0.269070 1.047013
Zn10  Zn    Zn3+2 0.000000 0.599000 0.730930 1.047439
Zn11  Zn    Zn3+2 0.000000 0.401000 0.269070 1.047099
Zn12  Zn    Zn3+2 0.401000 0.000000 0.730930 1.048549
Zn13  Zn    Zn3+2 0.599000 0.000000 0.269070 1.047862
Zn14  Zn    Zn3+2 0.000000 0.401000 0.730930 1.048286
Zn15  Zn    Zn3+2 0.000000 0.599000 0.269070 1.047946
Zn16  Zn    Zn3+2 0.099000 0.500000 0.230930 1.047300

loop_
_geom_bond_atom_site_label_1
_geom_bond_atom_site_label_2
_ccdc_geom_bond_type
C8    C78   A    
C120  C146  A    
O6    Zn14  S    
C58   F2    S    
C150  F39   S    
C4    C177  T    
C79   C87   A    
C16   N4    A    
C41   C67   A    
O45   Zn8   S    
C153  F41   S    
O44   Zn14  S    
O5    Zn15  S    
C36   C66   A    
C37   H7    S    
O29   Zn5   S    
O36   Zn15  S    
C108  C109  S    
C120  C133  A    
C74   C92   A    
C161  C182  S    
C68   C149  A    
C76   C94   A    
C38   C55   A    
C65   N5    S    
C3    C158  S    
C121  C147  A    
C171  C181  S    
C122  C148  A    
C112  C129  A    
C53   F6    S    
C90   C143  A    
C95   C102  A    
C15   C85   A    
C32   H10   S    
C119  O4    A    
C38   C69   A    
C60   F4    S    
C39   C65   A    
C31   C62   A    
C25   N8    A    
C24   C154  A    
C172  O37   A    
C51   F34   S    
C100  F24   S    
C8    N1    A    
C40   C58   A    
C159  O17   A    
C112  C138  A    
C124  C137  A    
C127  C136  A    
C8    O49   S    
O1    Zn1   S    
C12   N1    A    
C164  O46   A    
C172  O30   A    
C39   C56   A    
C115  C118  A    
C93   C100  A    
C124  C127  A    
C46   C84   A    
C152  O7    A    
C19   N7    A    
C154  F42   S    
C25   C95   A    
O26   Zn2   S    
C5    C176  T    
C121  C134  A    
O28   Zn8   S    
O22   Zn3   S    
C75   C93   A    
C143  F31   S    
C53   C109  A    
C106  C130  S    
C77   C91   A    
O18   Zn8   S    
C55   C111  A    
C17   C87   A    
C26   C61   A    
O41   Zn11  S    
C76   C133  A    
O31   Zn11  S    
C104  C152  S    
C89   C96   A    
C57   C85   A    
C52   F5    S    
C91   C98   A    
C160  O47   A    
C130  O5    A    
C38   H8    S    
C39   H16   S    
C28   C63   A    
C62   N2    S    
C25   O65   S    
C30   C61   A    
O1    Zn12  S    
C77   C132  A    
C21   C92   A    
C165  O22   A    
C44   F45   S    
C169  O38   A    
C49   C104  A    
C72   C85   A    
C151  F40   S    
C155  F43   S    
C29   C47   A    
C30   C48   A    
C27   H13   S    
C54   C110  A    
C161  O19   A    
C64   N4    S    
C130  O9    A    
C162  O20   A    
C27   C44   A    
C9    O50   S    
O25   Zn16  S    
C113  C139  A    
C59   F3    S    
C36   C53   A    
C114  C140  A    
C74   C87   A    
C76   C89   A    
O67   Zn16  S    
C18   N6    A    
C74   C131  A    
C99   C139  A    
C127  C154  A    
C45   C105  A    
C97   O2    A    
C96   F20   S    
C11   C82   A    
C117  C144  A    
C144  F32   S    
C41   H3    S    
C101  F25   S    
C48   C103  A    
O32   Zn10  S    
O42   Zn1   S    
C18   C88   A    
C169  O27   A    
C170  O28   A    
C148  F37   S    
C27   C62   A    
C101  C142  A    
C4    C157  S    
C28   H14   S    
C157  O43   A    
C140  F29   S    
C167  O25   A    
C166  O35   A    
O12   Zn3   S    
C119  O67   A    
C165  C179  S    
C164  O21   A    
C33   H11   S    
C160  O18   A    
C45   F46   S    
C1    O68   A    
C43   F44   S    
C179  C184  T    
C168  C176  S    
C118  C145  A    
C98   C145  A    
C139  F28   S    
O43   Zn9   S    
C96   C146  A    
C11   N4    A    
O7    Zn9   S    
C141  O10   A    
C122  C125  A    
O19   Zn7   S    
C9    N2    A    
C48   F1    S    
C60   C111  A    
C46   F15   S    
O66   Zn2   S    
C10   O51   S    
C37   C67   A    
C35   C148  A    
C117  C131  A    
C29   C64   A    
C118  C132  A    
C21   N5    A    
C97   O56   A    
C61   N1    S    
C149  F38   S    
O12   Zn7   S    
C108  O3    A    
C159  O41   A    
O33   Zn13  S    
C69   N8    S    
C125  C134  A    
C63   N3    S    
O23   Zn14  S    
C14   C84   A    
C71   C134  A    
C181  C182  T    
C170  O39   A    
O8    Zn1   S    
C163  O13   A    
C14   O54   S    
C3    C178  T    
C112  C117  A    
O30   Zn6   S    
C156  O14   A    
C6    C175  T    
C157  O15   A    
C13   C81   A    
O35   Zn12  S    
C158  O16   A    
O48   Zn13  S    
O3    Zn6   S    
C147  F36   S    
C167  O31   A    
C168  O32   A    
C66   N6    S    
C52   C107  A    
C163  O8    A    
C166  C178  S    
C159  C184  S    
C160  C183  S    
C72   C81   A    
C16   O57   S    
C171  O36   A    
C172  C180  S    
C115  C142  A    
O56   Zn7   S    
C40   C66   A    
C16   C86   A    
O23   Zn2   S    
O20   Zn2   S    
O47   Zn12  S    
C31   C49   A    
O27   Zn7   S    
C107  C119  S    
C20   N8    A    
C44   C104  A    
C20   C91   A    
C142  F30   S    
C40   H2    S    
C35   C83   A    
C115  C133  A    
C153  C174  A    
O11   Zn13  S    
C12   C83   A    
C2    F10   S    
C46   C147  A    
C73   C136  A    
O68   Zn4   S    
C47   C106  A    
O12   Zn9   S    
O39   Zn1   S    
C102  C140  A    
C70   C83   A    
O4    Zn5   S    
C100  C138  A    
C146  F35   S    
C167  C177  S    
C88   C90   A    
C24   F13   S    
C70   C135  A    
O23   Zn6   S    
O2    Zn3   S    
C73   C82   A    
C165  O33   A    
C90   F19   S    
C2    C151  A    
C124  C150  A    
C68   F17   S    
O14   Zn4   S    
C31   H9    S    
C171  O29   A    
C36   H6    S    
C14   N2    A    
C49   F12   S    
C67   N7    S    
C33   C51   A    
C5    C156  S    
C10   C81   A    
C34   C52   A    
C17   O58   S    
C55   F8    S    
C158  O40   A    
C1    C111  S    
C168  O26   A    
O12   Zn13  S    
C43   C103  A    
C122  C135  A    
O34   Zn5   S    
C126  C153  A    
C145  F33   S    
C174  F9    S    
C13   F11   S    
C114  C120  A    
C170  C173  S    
C123  C149  A    
C70   C78   A    
C58   C109  A    
C68   C86   A    
C141  O6    A    
O10   Zn10  S    
C17   N5    A    
C21   O62   S    
O16   Zn6   S    
C156  O42   A    
C23   O64   S    
C33   C64   A    
C105  C141  S    
C26   H12   S    
C47   F47   S    
C138  F27   S    
C59   C110  A    
C56   F48   S    
C10   N3    A    
O9    Zn11  S    
C161  O48   A    
C34   H5    S    
C24   C82   A    
C13   C155  A    
C128  C155  A    
C42   H4    S    
C116  C129  A    
C94   C101  A    
O34   Zn15  S    
C98   F21   S    
C125  C151  A    
C180  C183  T    
C113  C116  A    
C50   F23   S    
C79   F18   S    
O13   Zn12  S    
O17   Zn5   S    
C29   H15   S    
C1    O45   A    
O34   Zn16  S    
C34   C65   A    
C166  O24   A    
C71   C80   A    
C26   C43   A    
C152  O11   A    
C169  C175  S    
C7    C162  S    
C28   C45   A    
O1    Zn4   S    
C54   F7    S    
C99   F22   S    
C108  O66   A    
C18   O59   S    
C41   C59   A    
C23   N7    A    
C42   C60   A    
C102  F26   S    
C77   C95   A    
C42   C69   A    
C9    C80   A    
C128  C137  A    
C56   C107  A    
C30   H1    S    
C19   C89   A    
O34   Zn11  S    
C50   C105  A    
C116  C143  A    
C79   C144  A    
O21   Zn16  S    
C57   C150  A    
C32   C50   A    
C37   C54   A    
C72   C137  A    
C57   F16   S    
C19   O60   S    
C22   C93   A    
O40   Zn10  S    
O37   Zn14  S    
C162  O44   A    
O24   Zn4   S    
C71   C84   A    
C20   O61   S    
C11   O52   S    
C113  C131  A    
C22   O63   S    
O1    Zn8   S    
C114  C132  A    
C32   C63   A    
C6    C164  S    
C126  C135  A    
O38   Zn9   S    
O15   Zn3   S    
C103  C163  S    
C12   O53   S    
C23   C94   A    
C123  C136  A    
C121  C126  A    
C97   C110  S    
C123  C128  A    
C15   N3    A    
C51   C106  A    
C7    C173  T    
O23   Zn10  S    
C73   C86   A    
C22   N6    A    
C2    C80   A    
O46   Zn15  S    
C75   C88   A    
C92   C99   A    
C78   C174  A    
C75   C129  A    
C35   F14   S    
C15   O55   S    
