data_mof_unit_22454.cif
_audit_creation_date              2012-12-10T18:26:30-0500
_audit_creation_method            fapswitch 2.2
_symmetry_space_group_name_H-M    P1
_symmetry_Int_Tables_number       1
_space_group_crystal_system       triclinic
_cell_length_a                    15.00161
_cell_length_b                    14.006182
_cell_length_c                    23.435868
_cell_angle_alpha                 89.982426
_cell_angle_beta                  90.011176
_cell_angle_gamma                 89.902127
_cell_volume                      4924.22645557

loop_
_atom_site_label
_atom_site_type_symbol
_atom_type_description
_atom_site_fract_x
_atom_site_fract_y
_atom_site_fract_z
_atom_type_partial_charge
C1    C     C_R   0.326572 0.500069 0.500274 0.898601
C2    C     C_R   0.498295 0.413009 0.702887 -0.206326
C3    C     C_R   0.502372 0.413614 0.237815 -0.093252
C4    C     C_R   0.497747 0.413034 0.762097 -0.093611
C5    C     C_R   0.502395 0.500347 0.208345 0.312781
C6    C     C_R   0.497628 0.499647 0.791655 0.312155
C7    C     C_R   0.814715 0.419090 0.480064 -0.157140
C8    C     C_R   0.185288 0.581148 0.519445 -0.152382
C9    C     C_R   0.769161 0.499902 0.499084 -0.105811
C10   C     C_R   0.230849 0.500206 0.500637 -0.105948
C11   C     C_R   0.814569 0.580750 0.517520 -0.191997
C12   C     C_R   0.673432 0.499940 0.499701 0.899209
C13   C     C_R   0.185454 0.419485 0.482003 -0.198899
C14   C     C_R   0.906629 0.581216 0.517861 0.055292
C15   C     C_R   0.093392 0.419221 0.481357 0.081950
C16   C     C_R   0.500276 0.500020 0.389234 0.883380
C17   C     C_R   0.499725 0.499979 0.610766 0.884021
C18   C     C_R   0.953583 0.499732 0.499121 0.018028
C19   C     C_R   0.046434 0.500790 0.499958 0.015616
C20   C     C_R   0.907527 0.417436 0.479623 -0.004251
C21   C     C_R   0.092488 0.583076 0.519468 -0.026802
C22   C     C_R   0.951709 0.662129 0.537120 -0.266865
C23   C     C_R   0.502259 0.586962 0.237903 -0.093738
C24   C     C_R   0.048320 0.338418 0.461942 -0.301164
C25   C     C_R   0.044428 0.664276 0.538306 0.461865
C26   C     C_R   0.955601 0.336419 0.460510 0.416724
C27   C     C_R   0.545234 0.797544 0.458699 -0.034092
C28   C     C_R   0.454698 0.202455 0.541272 -0.035194
C29   C     C_R   0.453582 0.797665 0.540774 -0.019124
C30   C     C_R   0.546312 0.202331 0.459180 -0.021536
C31   C     C_R   0.451144 0.898770 0.541918 -0.011529
C32   C     C_R   0.548620 0.101223 0.457977 -0.012214
C33   C     C_R   0.545696 0.898602 0.456679 -0.010183
C34   C     C_R   0.497661 0.586381 0.762186 -0.091486
C35   C     C_R   0.454094 0.101391 0.543231 -0.011413
C36   C     C_R   0.499682 0.949455 0.499865 -0.002987
C37   C     C_R   0.500095 0.050541 0.500038 -0.002067
C38   C     C_R   0.401678 0.949605 0.583798 0.159935
C39   C     C_R   0.597930 0.050385 0.416021 0.154534
C40   C     C_R   0.590664 0.949199 0.412758 0.198379
C41   C     C_R   0.408966 0.050788 0.587086 0.197090
C42   C     C_R   0.574064 0.472024 0.880233 0.507614
C43   C     C_R   0.425959 0.527967 0.119767 0.506763
C44   C     C_R   0.423009 0.527193 0.880883 0.506709
C45   C     C_R   0.501702 0.586988 0.297113 -0.206705
C46   C     C_R   0.577014 0.472800 0.119117 0.506781
C47   C     C_R   0.422152 0.528110 0.940463 -0.018071
C48   C     C_R   0.577871 0.471881 0.059537 -0.018068
C49   C     C_R   0.499634 0.499883 0.970028 -0.020359
C50   C     C_R   0.500389 0.500109 0.029972 -0.020342
C51   C     C_R   0.576371 0.471444 0.939793 -0.017790
C52   C     C_R   0.423652 0.528547 0.060207 -0.017488
C53   C     C_R   0.346032 0.556284 0.970977 -0.150647
C54   C     C_R   0.653991 0.443707 0.029023 -0.150901
C55   C     C_R   0.346775 0.556499 0.030369 -0.151292
C56   C     C_R   0.498192 0.586646 0.702971 -0.204729
C57   C     C_R   0.653247 0.443491 0.969631 -0.150617
C58   C     C_3   0.338074 0.895952 0.622587 -0.808086
C59   C     C_3   0.661323 0.104068 0.377108 -0.785554
C60   C     C_3   0.626200 0.895223 0.361339 -0.899687
C61   C     C_3   0.373234 0.104762 0.638449 -0.905401
C62   C     C_R   0.501228 0.500110 0.327029 -0.042434
C63   C     C_R   0.498779 0.499888 0.672971 -0.042845
C64   C     C_R   0.501834 0.413351 0.297030 -0.206635
H1    H     H_    0.285759 0.578225 0.949117 0.197449
H2    H     H_    0.497706 0.653348 0.785274 0.144714
H3    H     H_    0.501534 0.654790 0.319337 0.160630
H4    H     H_    0.498330 0.654525 0.680808 0.161818
H5    H     H_    0.501705 0.345473 0.319194 0.161185
H6    H     H_    0.498449 0.345208 0.680662 0.160794
H7    H     H_    0.502340 0.346646 0.214728 0.144157
H8    H     H_    0.497487 0.345974 0.785113 0.144468
H9    H     H_    0.776699 0.358435 0.465416 0.217401
H10   H     H_    0.223292 0.641631 0.534356 0.218298
H11   H     H_    0.778154 0.642962 0.532389 0.165833
H12   H     H_    0.714263 0.421767 0.050883 0.197131
H13   H     H_    0.221885 0.357209 0.467244 0.163506
H14   H     H_    0.914076 0.723660 0.551497 0.212901
H15   H     H_    0.085987 0.276845 0.447686 0.189193
H16   H     H_    0.056067 0.907034 0.596285 0.395306
H17   H     H_    0.001392 0.170647 0.377045 0.360825
H18   H     H_    0.285416 0.942137 0.640975 0.262034
H19   H     H_    0.300557 0.842014 0.597726 0.283568
H20   H     H_    0.375759 0.860121 0.657312 0.226454
H21   H     H_    0.713708 0.057883 0.358413 0.269350
H22   H     H_    0.623419 0.140221 0.342600 0.220148
H23   H     H_    0.581821 0.755283 0.428059 0.149445
H24   H     H_    0.699156 0.157748 0.401969 0.285505
H25   H     H_    0.636692 0.941444 0.323597 0.256234
H26   H     H_    0.689457 0.858517 0.372577 0.254349
H27   H     H_    0.576553 0.841908 0.346643 0.226272
H28   H     H_    0.362262 0.058501 0.676116 0.257616
H29   H     H_    0.422968 0.157841 0.653332 0.228484
H30   H     H_    0.310193 0.141757 0.627050 0.250419
H31   H     H_    0.418159 0.244722 0.571931 0.149546
H32   H     H_    0.419927 0.755418 0.572712 0.147525
H33   H     H_    0.579986 0.244583 0.427253 0.147167
H34   H     H_    0.287050 0.578590 0.052761 0.196883
H35   H     H_    0.712973 0.421400 0.947239 0.197068
H36   H     H_    0.502510 0.654021 0.214886 0.144379
N1    N     N_R   0.498196 0.499536 0.852346 -0.360480
N2    N     N_R   0.501826 0.500457 0.147655 -0.360339
N3    N     N_R   0.500000 0.750030 0.500000 -0.114055
N4    N     N_R   0.500000 0.249970 0.500000 -0.113751
O1    O     O_R   0.367850 0.580280 0.500010 -0.614752
O2    O     O_2   0.353014 0.553973 0.149730 -0.546985
O3    O     O_2   0.349385 0.553096 0.851551 -0.543350
O4    O     O_2   0.650639 0.446898 0.148449 -0.544165
O5    O     O_2   0.150608 0.743640 0.616473 -0.327417
O6    O     O_2   0.157615 0.808686 0.519334 -0.311818
O7    O     O_3   0.020823 0.852226 0.582065 -0.529841
O8    O     O_2   0.843849 0.190626 0.479117 -0.271239
O9    O     O_2   0.847245 0.258016 0.382793 -0.339866
O10   O     O_3   0.978650 0.149239 0.414605 -0.504129
O11   O     O_R   0.632150 0.419720 0.499990 -0.614689
O12   O     O_R   0.632150 0.580280 0.499990 -0.624003
O13   O     O_R   0.367850 0.419720 0.500010 -0.624687
O14   O     O_R   0.499970 0.580290 0.416160 -0.625917
O15   O     O_R   0.500030 0.419710 0.583840 -0.625806
O16   O     O_R   0.500030 0.580290 0.583840 -0.630243
O17   O     O_R   0.499970 0.419710 0.416160 -0.630683
O18   O     O_2   0.647008 0.446017 0.850270 -0.545379
S1    S     S_3+6 0.096887 0.768912 0.564456 0.004082
S2    S     S_3+6 0.903111 0.232167 0.433794 0.013830
Zn1   Zn    Zn3+2 0.500000 0.607200 0.500000 0.964506
Zn2   Zn    Zn3+2 0.500000 0.392800 0.500000 0.963356

loop_
_geom_bond_atom_site_label_1
_geom_bond_atom_site_label_2
_ccdc_geom_bond_type
C34   C56   A    
C23   C45   A    
C14   C18   A    
C3    H7    S    
C41   C61   S    
C34   H2    S    
C7    H9    S    
C3    C64   A    
C27   C33   A    
C15   C19   A    
C46   N2    A    
C30   H33   S    
O11   Zn2   S    
C26   S2    S    
C28   H31   S    
C40   C60   S    
C36   C37   A    
C35   C37   A    
C24   C26   A    
O8    S2    D    
C58   H20   S    
C58   H18   S    
C11   C14   A    
C61   H29   S    
C43   C52   A    
C6    N1    S    
C57   H35   S    
C45   C62   A    
C33   C36   A    
C29   N3    A    
C18   C19   A    
C32   C39   A    
C59   H24   S    
C62   C64   A    
C17   O16   A    
C38   C58   S    
C28   C35   A    
C49   C51   A    
C22   C25   A    
C46   O4    S    
H17   O10   S    
C45   H3    S    
C50   C52   A    
C51   C57   A    
O14   Zn1   S    
C53   H1    S    
O13   Zn2   S    
C44   C47   A    
C42   C51   A    
C47   C53   A    
C12   O11   A    
O10   S2    S    
C48   C50   A    
C23   H36   S    
C16   C62   S    
C35   C41   A    
C13   H13   S    
C53   C55   A    
C46   C48   A    
C33   C40   A    
O7    S1    S    
C22   H14   S    
C38   C41   A    
C4    C6    A    
C39   C40   A    
O16   Zn1   S    
O5    S1    D    
C56   H4    S    
C6    C34   A    
C43   O2    S    
C48   C54   A    
C2    C4    A    
C16   O17   A    
C59   H21   S    
C16   O14   A    
O6    S1    D    
C9    C11   A    
C28   N4    A    
C24   H15   S    
C5    C23   A    
C39   C59   S    
C8    H10   S    
C8    C21   A    
C56   C63   A    
C1    O13   A    
C32   C37   A    
C27   H23   S    
C25   S1    S    
C55   H34   S    
C54   H12   S    
C15   C24   A    
C49   C50   A    
O12   Zn1   S    
C13   C15   A    
C42   N1    A    
C4    H8    S    
C2    C63   A    
C42   O18   S    
C44   O3    S    
C7    C9    A    
C21   C25   A    
C5    N2    S    
C60   H27   S    
C19   C21   A    
C61   H30   S    
C1    C10   S    
C3    C5    A    
C10   C13   A    
C29   H32   S    
C44   N1    A    
C52   C55   A    
C60   H26   S    
C47   C49   A    
C64   H5    S    
C31   C38   A    
O1    Zn1   S    
C14   C22   A    
C59   H22   S    
O17   Zn2   S    
C29   C31   A    
C11   H11   S    
C58   H19   S    
C17   C63   S    
C30   C32   A    
O9    S2    D    
C20   C26   A    
C60   H25   S    
H16   O7    S    
C27   N3    A    
C61   H28   S    
C18   C20   A    
N3    Zn1   S    
C9    C12   S    
C43   N2    A    
C17   O15   A    
O15   Zn2   S    
N4    Zn2   S    
C8    C10   A    
C7    C20   A    
C30   N4    A    
C31   C36   A    
C2    H6    S    
C1    O1    A    
C12   O12   A    
C54   C57   A    
