data_mof_unit_61367.cif
_audit_creation_date              2013-03-05T16:53:38-0500
_audit_creation_method            fapswitch 2.2
_symmetry_space_group_name_H-M    P1
_symmetry_Int_Tables_number       1
_space_group_crystal_system       triclinic
_cell_length_a                    17.571181
_cell_length_b                    16.812093
_cell_length_c                    10.732121
_cell_angle_alpha                 90.01515
_cell_angle_beta                  90.838233
_cell_angle_gamma                 89.970937
_cell_volume                      3170.0181424

loop_
_atom_site_label
_atom_site_type_symbol
_atom_site_description
_atom_site_fract_x
_atom_site_fract_y
_atom_site_fract_z
_atom_type_partial_charge
O1    O     O_R   0.389110 0.566570 0.499990 -0.626486
O2    O     O_R   0.610890 0.566570 0.500010 -0.626509
O3    O     O_R   0.389090 0.433480 0.499980 -0.592125
O4    O     O_R   0.610910 0.433480 0.500020 -0.593010
C1    C     C_R   0.353333 0.500108 0.499601 0.891200
C2    C     C_R   0.646667 0.500053 0.499159 0.893288
O5    O     O_R   0.500000 0.566530 0.319070 -0.579757
O6    O     O_R   0.500000 0.566530 0.680930 -0.579015
O7    O     O_R   0.499970 0.433440 0.319070 -0.613152
O8    O     O_R   0.500030 0.433440 0.680930 -0.612864
C3    C     C_R   0.495598 0.499884 0.262402 0.872269
C4    C     C_R   0.504403 0.499900 0.737604 0.873908
Zn1   Zn    Zn3+2 0.500000 0.588860 0.500000 1.019864
Zn2   Zn    Zn3+2 0.500000 0.411140 0.500000 1.047741
C5    C     C_2   0.496076 0.436831 0.933622 -0.183067
C6    C     C_2   0.504137 0.436843 0.066361 -0.183387
C7    C     C_2   0.520813 0.498713 0.867642 0.307852
C8    C     C_2   0.479185 0.498657 0.132380 0.308624
H1    H     H_    0.466444 0.386924 0.890539 0.176351
H2    H     H_    0.533953 0.387027 0.109418 0.175865
C9    C     C_R   0.848265 0.570013 0.517138 -0.129404
C10   C     C_R   0.153297 0.568474 0.445985 -0.129162
H3    H     H_    0.879640 0.623242 0.542510 0.157885
H4    H     H_    0.123358 0.621180 0.413905 0.158692
C11   C     C_R   0.769581 0.569517 0.524491 -0.154696
C12   C     C_R   0.232105 0.568690 0.453426 -0.152390
H5    H     H_    0.740641 0.622755 0.555369 0.175638
H6    H     H_    0.262596 0.621624 0.425543 0.176047
C13   C     C_R   0.729005 0.500329 0.493264 -0.048149
C14   C     C_R   0.270901 0.500506 0.495001 -0.049908
C15   C     C_R   0.767537 0.432059 0.453356 -0.121057
C16   C     C_R   0.230423 0.432496 0.530121 -0.117811
H7    H     H_    0.736927 0.378763 0.426384 0.193584
H8    H     H_    0.259559 0.379993 0.564536 0.192580
C17   C     C_R   0.846213 0.432727 0.446077 -0.127246
C18   C     C_R   0.151613 0.432441 0.522606 -0.123400
H9    H     H_    0.875957 0.379771 0.415921 0.160057
H10   H     H_    0.120338 0.379956 0.550381 0.159902
C19   C     C_R   0.885993 0.501616 0.478192 0.130574
C20   C     C_R   0.113652 0.500322 0.480310 0.129186
C21   C     C_1   0.966040 0.501298 0.475477 -0.025592
C22   C     C_1   0.033567 0.500861 0.476163 -0.025876
C23   C     C_R   0.450300 0.831803 0.419639 0.206155
C24   C     C_R   0.549861 0.831687 0.580450 0.205687
C25   C     C_R   0.452399 0.747619 0.421403 -0.043057
C26   C     C_R   0.547649 0.747511 0.578626 -0.043009
H11   H     H_    0.414794 0.713883 0.360660 0.193399
H12   H     H_    0.585215 0.713691 0.639342 0.194503
N1    N     N_R   0.500000 0.707230 0.500000 -0.138922
C27   C     C_R   0.500113 0.875309 0.500059 -0.126633
C28   C     C_1   0.500173 0.963195 0.500104 0.183370
C29   C     C_1   0.500199 0.036075 0.500130 0.121930
C30   C     C_R   0.440884 0.166487 0.444126 -0.255314
C31   C     C_R   0.559360 0.166593 0.556050 -0.255623
H13   H     H_    0.394334 0.134801 0.399127 0.220550
H14   H     H_    0.605974 0.135006 0.601100 0.220119
C32   C     C_R   0.441621 0.250641 0.443221 0.372193
C33   C     C_R   0.558443 0.250749 0.556844 0.371677
N2    N     N_R   0.500000 0.292770 0.500000 -0.202619
C34   C     C_R   0.500160 0.123563 0.500104 -0.006974
N3    N     N_R   0.380152 0.290599 0.381028 0.226713
O9    O     O_R   0.310590 0.270648 0.406644 -0.396326
O10   O     O_R   0.392729 0.327778 0.277260 -0.364719
N4    N     N_R   0.619761 0.290861 0.619087 0.227172
O11   O     O_R   0.689405 0.271772 0.592405 -0.395346
O12   O     O_R   0.607202 0.327276 0.723570 -0.364994
Cl1   Cl    Cl    0.581184 0.574260 0.928910 -0.510186
Cl2   Cl    Cl    0.418525 0.574024 0.071205 -0.511699
N5    N     N_R   0.397589 0.871100 0.335821 0.225286
O13   O     O_R   0.373879 0.835214 0.235039 -0.325305
O14   O     O_R   0.367008 0.938951 0.365102 -0.367943
N6    N     N_R   0.602620 0.870858 0.664299 0.225320
O15   O     O_R   0.626243 0.834939 0.765096 -0.324514
O16   O     O_R   0.633327 0.938607 0.635032 -0.367939

loop_
_geom_bond_atom_site_label_1
_geom_bond_atom_site_label_2
_geom_bond_distance
_ccdc_geom_bond_type
C4    C7    1.421059 S    
C17   C19   1.393671 A    
O7    Zn2   1.977715 S    
C15   H7    1.082473 S    
C3    C8    1.420907 S    
C32   N3    1.428917 S    
O6    Zn1   1.977818 S    
C11   H5    1.083431 S    
O7    C3    1.273779 A    
C21   C22   1.186460 T    
C20   C22   1.407260 S    
N3    O9    1.300902 A    
C9    C19   1.394101 A    
C25   N1    1.360603 A    
O6    C4    1.276581 A    
C10   C20   1.393671 A    
N4    O11   1.300888 A    
C18   H10   1.083914 S    
C27   C28   1.477545 S    
C10   C12   1.385879 A    
C13   C15   1.402353 A    
C31   C34   1.395756 A    
O5    C3    1.276565 A    
Zn2   N2    1.990047 S    
C23   C25   1.415906 A    
C26   N1    1.360611 A    
N4    O12   1.299084 A    
O2    C2    1.282696 A    
O3    Zn2   1.984491 S    
O8    C4    1.273832 A    
Zn1   N1    1.990047 S    
C5    C7    1.335118 D    
C16   C18   1.385954 A    
C15   C17   1.385817 A    
N6    O16   1.301107 A    
C6    H2    1.087247 S    
C17   H9    1.083903 S    
C30   C34   1.395599 A    
C24   C26   1.415837 A    
C12   C14   1.403013 A    
C10   H4    1.083909 S    
C30   H13   1.083865 S    
C9    H3    1.083920 S    
O4    Zn2   1.984864 S    
N5    O13   1.301597 A    
O1    C1    1.282319 A    
C32   N2    1.381091 A    
O4    C2    1.283899 A    
O1    Zn1   1.984364 S    
C7    Cl1   1.775196 S    
C8    Cl2   1.775155 S    
C28   C29   1.225264 T    
C14   C16   1.401493 A    
C23   C27   1.422743 A    
O5    Zn1   1.977624 S    
C2    C13   1.449096 S    
C19   C21   1.407256 S    
C11   C13   1.402611 A    
C6    C8    1.335077 D    
C1    C14   1.448557 S    
C31   C33   1.414957 A    
C25   H11   1.082067 S    
C24   C27   1.422657 A    
N5    O14   1.301106 A    
O2    Zn1   1.983989 S    
C9    C11   1.385997 A    
N6    O15   1.301590 A    
C18   C20   1.394272 A    
C30   C32   1.414916 A    
C29   C34   1.470846 S    
C33   N4    1.428720 S    
C33   N2    1.380934 A    
C5    H1    1.087235 S    
C24   N6    1.441795 S    
C12   H6    1.083451 S    
C26   H12   1.082052 S    
N3    O10   1.299021 A    
C5    C6    1.429527 S    
C23   N5    1.441803 S    
O8    Zn2   1.977520 S    
C31   H14   1.083855 S    
O3    C1    1.284030 A    
C16   H8    1.082505 S    
