data_mof_unit_55142.cif
_audit_creation_date              2012-12-10T17:05:18-0500
_audit_creation_method            fapswitch 2.2
_symmetry_space_group_name_H-M    P1
_symmetry_Int_Tables_number       1
_space_group_crystal_system       triclinic
_cell_length_a                    10.031292
_cell_length_b                    10.700529
_cell_length_c                    15.469056
_cell_angle_alpha                 89.709962
_cell_angle_beta                  67.643297
_cell_angle_gamma                 88.64235
_cell_volume                      1535.19553168

loop_
_atom_site_label
_atom_site_type_symbol
_atom_type_description
_atom_site_fract_x
_atom_site_fract_y
_atom_site_fract_z
_atom_type_partial_charge
C1    C     C_R   0.502312 0.737020 0.493181 0.807244
C2    C     C_R   0.702320 0.615410 0.043827 -0.023185
C3    C     C_R   0.570224 0.555600 0.093035 -0.101360
C4    C     C_R   0.409468 0.501468 0.676244 0.895001
C5    C     C_R   0.802369 0.631937 0.086739 0.519497
C6    C     C_R   0.771391 0.586061 0.177223 -0.403555
C7    C     C_R   0.551921 0.496793 0.177582 0.558618
C8    C     C_2   0.617903 0.065431 0.459026 0.572573
C9    C     C_2   0.500872 0.130057 0.515542 0.295658
C10   C     C_2   0.623947 0.931396 0.465377 -0.359704
C11   C     C_2   0.509963 0.866427 0.469981 0.488799
C12   C     C_R   0.401479 0.553255 0.917258 0.082556
C13   C     C_2   0.111467 0.437065 0.440216 -0.081571
C14   C     C_2   0.963391 0.443407 0.436769 -0.108677
C15   C     C_R   0.500129 0.262696 0.503049 0.841116
C16   C     C_R   0.590269 0.500515 0.323828 0.968272
C17   C     C_R   0.351646 0.511086 0.778228 -0.198947
C18   C     C_R   0.644312 0.521386 0.223208 -0.224262
C19   C     C_R   0.163212 0.484965 0.930886 -0.196136
C20   C     C_R   0.208815 0.481888 0.833807 0.600896
C21   C     C_R   0.444961 0.549023 0.820240 -0.331305
C22   C     C_3   0.921796 0.812891 0.075446 -0.276456
C23   C     C_R   0.259350 0.517337 0.972926 0.085768
C24   C     C_3   0.329889 0.140146 0.667663 -0.248817
C25   C     C_R   0.499614 0.582329 0.959820 0.088195
C26   C     C_R   0.462191 0.553173 0.055115 0.114555
C27   C     C_R   0.316665 0.527632 0.110308 -0.135196
C28   C     C_R   0.216381 0.511337 0.069648 -0.192464
C29   C     C_R   0.633501 0.638848 0.910730 -0.221802
C30   C     C_R   0.731150 0.658226 0.953172 -0.118485
F1    F     F_    0.734869 0.123128 0.396564 -0.663541
F2    F     F_    0.400153 0.919823 0.449992 -0.611183
F3    F     F_    0.448468 0.410249 0.214737 -0.675507
F4    F     F_    0.115396 0.445541 0.794832 -0.667196
H1    H     H_    0.106478 0.489192 0.113698 0.163201
H2    H     H_    0.554659 0.568418 0.775790 0.189229
H3    H     H_    0.277139 0.523814 0.185672 0.201499
H4    H     H_    0.662756 0.674403 0.840687 0.148601
H5    H     H_    0.914853 0.811740 0.148934 0.176612
H6    H     H_    0.828794 0.866812 0.070238 0.169509
H7    H     H_    0.021356 0.862339 0.033085 0.201174
H8    H     H_    0.258995 0.218150 0.661547 0.214462
H9    H     H_    0.416598 0.175896 0.688704 0.121202
H10   H     H_    0.262503 0.078241 0.724408 0.201729
H11   H     H_    0.719311 0.887691 0.470810 0.158889
H12   H     H_    0.192544 0.378502 0.388744 0.212492
H13   H     H_    0.074482 0.559499 0.544475 0.175248
H14   H     H_    0.948909 0.396537 0.379041 0.187743
H15   H     H_    0.863731 0.537146 0.556440 0.172075
H16   H     H_    0.844465 0.603805 0.212118 0.193254
H17   H     H_    0.830793 0.704618 0.913803 0.196928
H18   H     H_    0.054267 0.457962 0.973112 0.181870
N1    N     N_2   0.148330 0.498670 0.499030 -0.183192
N2    N     N_2   0.852680 0.498640 0.499000 -0.187206
O1    O     O_R   0.386950 0.680940 0.500010 -0.564197
O2    O     O_3   0.386372 0.069929 0.583893 -0.592093
O3    O     O_R   0.613110 0.680900 0.499990 -0.653843
O4    O     O_R   0.322330 0.500030 0.632270 -0.557840
O5    O     O_R   0.548480 0.499990 0.632240 -0.624337
O6    O     O_R   0.386890 0.319100 0.500010 -0.590852
O7    O     O_R   0.613050 0.319060 0.499990 -0.583005
O8    O     O_R   0.451520 0.500010 0.367760 -0.568419
O9    O     O_R   0.677670 0.499970 0.367730 -0.617805
O10   O     O_3   0.931181 0.690720 0.039589 -0.624794
Zn1   Zn    Zn3+2 0.349000 0.500030 0.500020 1.035678
Zn2   Zn    Zn3+2 0.651000 0.499970 0.499980 0.966788

loop_
_geom_bond_atom_site_label_1
_geom_bond_atom_site_label_2
_ccdc_geom_bond_type
C29   H4    S    
O6    Zn1   S    
C19   C23   A    
C30   H17   S    
C29   C30   A    
N2    Zn2   S    
C16   O9    A    
C1    O3    A    
C24   O2    S    
N1    Zn1   S    
C15   O6    A    
C12   C25   A    
O4    Zn1   S    
C13   N1    D    
C19   C20   A    
C1    C11   S    
C2    C30   A    
O3    Zn2   S    
H13   N1    S    
C7    C18   A    
C20   F4    S    
C10   H11   S    
C2    C3    A    
C15   O7    A    
O9    Zn2   S    
C22   H6    S    
C21   H2    S    
C23   C28   A    
C6    H16   S    
C7    F3    S    
C12   C23   A    
C26   C27   A    
C13   H12   S    
C16   O8    A    
C27   H3    S    
C12   C21   A    
C6    C18   A    
C22   H5    S    
O7    Zn2   S    
C4    O5    A    
C8    C10   S    
C14   N2    D    
C11   F2    S    
C1    O1    A    
C3    C7    A    
O5    Zn2   S    
C25   C29   A    
C5    C6    A    
C24   H10   S    
C13   C14   S    
C2    C5    A    
C10   C11   D    
C4    C17   S    
C22   O10   S    
H15   N2    S    
C22   H7    S    
C17   C20   A    
C24   H8    S    
C5    O10   S    
C16   C18   S    
C4    O4    A    
C27   C28   A    
C9    O2    S    
C24   H9    S    
C14   H14   S    
O8    Zn1   S    
O1    Zn1   S    
C25   C26   A    
C9    C15   S    
C8    F1    S    
C19   H18   S    
C3    C26   A    
C17   C21   A    
C28   H1    S    
C8    C9    D    
