data_mof_unit_43857.cif
_audit_creation_date              2012-12-11T16:45:45-0500
_audit_creation_method            fapswitch 2.2
_symmetry_space_group_name_H-M    P1
_symmetry_Int_Tables_number       1
_space_group_crystal_system       triclinic
_cell_length_a                    19.879584
_cell_length_b                    17.058119
_cell_length_c                    15.347816
_cell_angle_alpha                 90.001105
_cell_angle_beta                  52.497458
_cell_angle_gamma                 89.999831
_cell_volume                      4128.92395945

loop_
_atom_site_label
_atom_site_type_symbol
_atom_type_description
_atom_site_fract_x
_atom_site_fract_y
_atom_site_fract_z
_atom_type_partial_charge
C1    C     C_R   0.840410 0.673709 0.046637 -0.103518
C2    C     C_R   0.148613 0.309890 0.073087 0.094611
C3    C     C_R   0.351387 0.809889 0.926914 0.094613
C4    C     C_R   0.648614 0.809891 0.073085 0.094616
C5    C     C_R   0.889588 0.684680 0.304557 0.023559
C6    C     C_R   0.110421 0.684671 0.695441 0.023535
C7    C     C_R   0.389588 0.184676 0.304557 0.023501
C8    C     C_R   0.610422 0.184670 0.695439 0.023534
C9    C     C_R   0.848908 0.710467 0.488783 0.120872
C10   C     C_R   0.151202 0.710410 0.511175 0.120863
C11   C     C_R   0.348826 0.210418 0.488820 0.120805
C12   C     C_R   0.159589 0.673709 0.953365 -0.103521
C13   C     C_R   0.651201 0.210407 0.511171 0.120850
C14   C     C_R   0.872350 0.739621 0.388497 0.045154
C15   C     C_R   0.127689 0.739594 0.611477 0.045184
C16   C     C_R   0.372331 0.239601 0.388518 0.045166
C17   C     C_R   0.627685 0.239593 0.611476 0.045169
C18   C     C_R   0.365460 0.320751 0.379394 -0.190254
C19   C     C_R   0.634546 0.320743 0.620606 -0.190268
C20   C     C_R   0.865433 0.820763 0.379374 -0.190273
C21   C     C_R   0.134560 0.820741 0.620603 -0.190333
C22   C     C_R   0.316325 0.366271 0.475127 -0.229570
C23   C     C_R   0.340409 0.173708 0.046640 -0.103515
C24   C     C_R   0.683677 0.366264 0.524876 -0.229548
C25   C     C_R   0.816297 0.866285 0.475106 -0.229557
C26   C     C_R   0.183698 0.866258 0.524872 -0.229519
C27   C     C_R   0.271235 0.328947 0.578213 0.059103
C28   C     C_R   0.728776 0.328941 0.421788 0.059106
C29   C     C_R   0.771245 0.828966 0.578194 0.059085
C30   C     C_R   0.228783 0.828937 0.421786 0.059099
C31   C     C_R   0.798492 0.754491 0.582734 0.176987
C32   C     C_R   0.201610 0.754433 0.417230 0.176961
C33   C     C_R   0.298416 0.254443 0.582768 0.176961
C34   C     C_R   0.659587 0.173711 0.953370 -0.103529
C35   C     C_R   0.701608 0.254433 0.417227 0.176951
C36   C     C_3   0.749539 0.684016 0.650985 -0.512899
C37   C     C_3   0.250654 0.683985 0.349015 -0.512991
C38   C     C_3   0.249380 0.183986 0.650990 -0.512930
C39   C     C_3   0.750656 0.183981 0.349006 -0.512933
C40   C     C_R   0.848497 0.331412 0.219586 -0.241611
C41   C     C_R   0.151504 0.331413 0.780414 -0.241604
C42   C     C_R   0.348503 0.831405 0.219583 -0.241633
C43   C     C_R   0.651503 0.831409 0.780408 -0.241628
C44   C     C_3   0.804893 0.635762 0.548110 -0.481368
C45   C     C_R   0.808865 0.359705 0.325020 -0.085861
C46   C     C_3   0.195309 0.635732 0.451887 -0.481372
C47   C     C_3   0.304727 0.135732 0.548115 -0.481240
C48   C     C_3   0.695312 0.135726 0.451877 -0.481326
C49   C     C_2   0.782635 0.184505 0.958889 -0.165553
C50   C     C_2   0.217345 0.184494 0.041148 -0.165583
C51   C     C_2   0.282650 0.684496 0.958861 -0.165571
C52   C     C_2   0.717352 0.684498 0.041135 -0.165577
C53   C     C_2   0.311349 0.752038 0.902402 -0.167942
C54   C     C_2   0.688649 0.752039 0.097599 -0.167963
C55   C     C_2   0.811350 0.252036 0.902405 -0.167938
C56   C     C_R   0.191137 0.359703 0.674982 -0.085890
C57   C     C_2   0.188648 0.252040 0.097602 -0.167944
C58   C     C_R   0.866963 0.387967 0.895196 -0.256384
C59   C     C_R   0.133037 0.387969 0.104805 -0.256393
C60   C     C_R   0.366963 0.887968 0.895196 -0.256398
C61   C     C_R   0.633037 0.887969 0.104804 -0.256427
C62   C     C_R   0.909786 0.607650 0.301725 -0.061497
C63   C     C_R   0.090220 0.607644 0.698272 -0.061511
C64   C     C_R   0.409787 0.107648 0.301724 -0.061373
C65   C     C_R   0.590221 0.107643 0.698271 -0.061509
C66   C     C_R   0.880678 0.297772 0.986867 0.457580
C67   C     C_R   0.308870 0.859696 0.325016 -0.085839
C68   C     C_R   0.119323 0.297772 0.013130 0.457596
C69   C     C_R   0.380678 0.797771 0.986867 0.457603
C70   C     C_R   0.619325 0.797772 0.013129 0.457591
C71   C     C_R   0.897714 0.698615 0.209656 -0.133681
C72   C     C_R   0.102289 0.698613 0.790344 -0.133692
C73   C     C_R   0.397714 0.198615 0.209658 -0.133695
C74   C     C_R   0.602289 0.198613 0.790343 -0.133684
C75   C     C_R   0.862086 0.417480 0.317517 0.534401
C76   C     C_R   0.137915 0.417476 0.682484 0.534419
C77   C     C_R   0.362082 0.917477 0.317515 0.534359
C78   C     C_R   0.691133 0.859698 0.674973 -0.085831
C79   C     C_R   0.637908 0.917471 0.682483 0.534400
C80   C     C_R   0.830692 0.580934 0.950572 -0.139974
C81   C     C_R   0.169308 0.580935 0.049428 -0.139970
C82   C     C_R   0.330690 0.080933 0.950576 -0.139965
C83   C     C_R   0.669304 0.080937 0.049435 -0.139975
C84   C     C_R   0.789713 0.644718 0.020724 0.103721
C85   C     C_R   0.210286 0.644718 0.979277 0.103720
C86   C     C_R   0.289711 0.144716 0.020729 0.103721
C87   C     C_R   0.710281 0.144721 0.979288 0.103725
C88   C     C_R   0.851387 0.309890 0.926915 0.094609
H1    H     H_    0.830792 0.724914 0.094293 0.091247
H2    H     H_    0.240269 0.670699 0.287082 0.199240
H3    H     H_    0.259778 0.170706 0.712919 0.199219
H4    H     H_    0.740269 0.170694 0.287072 0.199217
H5    H     H_    0.682063 0.684636 0.683088 0.216889
H6    H     H_    0.318108 0.684686 0.316976 0.216921
H7    H     H_    0.181920 0.184677 0.683037 0.216910
H8    H     H_    0.818113 0.184682 0.316966 0.216916
H9    H     H_    0.847182 0.594993 0.550909 0.204318
H10   H     H_    0.153096 0.594896 0.449042 0.204394
H11   H     H_    0.346953 0.094902 0.550956 0.204358
H12   H     H_    0.169206 0.724912 0.905710 0.091246
H13   H     H_    0.653097 0.094888 0.449030 0.204374
H14   H     H_    0.768862 0.608828 0.521868 0.219750
H15   H     H_    0.231319 0.608878 0.478199 0.219721
H16   H     H_    0.268710 0.108868 0.521811 0.219745
H17   H     H_    0.731325 0.108871 0.478188 0.219710
H18   H     H_    0.800065 0.164342 0.009257 0.198439
H19   H     H_    0.199888 0.164309 0.990817 0.198475
H20   H     H_    0.300104 0.664315 0.009197 0.198465
H21   H     H_    0.699905 0.664321 0.990791 0.198470
H22   H     H_    0.292864 0.771205 0.852368 0.123186
H23   H     H_    0.330791 0.224912 0.094298 0.091247
H24   H     H_    0.707129 0.771205 0.147639 0.123194
H25   H     H_    0.792882 0.271191 0.852349 0.123196
H26   H     H_    0.207136 0.271211 0.147632 0.123193
H27   H     H_    0.822781 0.289580 0.194661 0.154681
H28   H     H_    0.177223 0.289584 0.805339 0.154692
H29   H     H_    0.322789 0.789569 0.194659 0.154698
H30   H     H_    0.677225 0.789586 0.805334 0.154691
H31   H     H_    0.861833 0.415029 0.835728 0.132401
H32   H     H_    0.138166 0.415033 0.164273 0.132400
H33   H     H_    0.361833 0.915029 0.835729 0.132396
H34   H     H_    0.669203 0.224917 0.905720 0.091251
H35   H     H_    0.638166 0.915033 0.164272 0.132389
H36   H     H_    0.927024 0.581368 0.349606 0.153899
H37   H     H_    0.072996 0.581360 0.650377 0.153907
H38   H     H_    0.427020 0.081365 0.349610 0.153869
H39   H     H_    0.572996 0.081359 0.650376 0.153910
H40   H     H_    0.898874 0.755334 0.177358 0.092619
H41   H     H_    0.101135 0.755334 0.822638 0.092630
H42   H     H_    0.398870 0.255336 0.177365 0.092633
H43   H     H_    0.601135 0.255334 0.822636 0.092631
H44   H     H_    0.810158 0.547071 0.911098 0.104902
H45   H     H_    0.305723 0.427374 0.468105 0.157868
H46   H     H_    0.189844 0.547072 0.088899 0.104898
H47   H     H_    0.310154 0.047069 0.911105 0.104897
H48   H     H_    0.689837 0.047076 0.088912 0.104898
H49   H     H_    0.389339 0.347153 0.301342 0.131999
H50   H     H_    0.610660 0.347146 0.698660 0.132001
H51   H     H_    0.889272 0.847155 0.301330 0.131993
H52   H     H_    0.110679 0.847143 0.698654 0.132016
H53   H     H_    0.932766 0.235767 0.035438 0.315859
H54   H     H_    0.067242 0.235767 0.964550 0.315863
H55   H     H_    0.432770 0.735768 0.035432 0.315860
H56   H     H_    0.694269 0.427368 0.531904 0.157848
H57   H     H_    0.567245 0.735767 0.964546 0.315859
H58   H     H_    0.829916 0.414573 0.463517 0.311613
H59   H     H_    0.170090 0.414531 0.536473 0.311515
H60   H     H_    0.329982 0.914507 0.463480 0.311469
H61   H     H_    0.670025 0.914517 0.536505 0.311541
H62   H     H_    0.805664 0.927378 0.468084 0.157907
H63   H     H_    0.194306 0.927357 0.531895 0.157972
H64   H     H_    0.759995 0.670795 0.712874 0.199196
N1    N     N_R   0.908660 0.628630 0.995840 -0.047657
N2    N     N_R   0.096530 0.421430 0.063580 -0.058111
N3    N     N_R   0.403470 0.921430 0.936420 -0.058108
N4    N     N_R   0.596530 0.921430 0.063580 -0.058109
N5    N     N_R   0.927500 0.575670 0.211370 -0.044823
N6    N     N_R   0.072500 0.575670 0.788630 -0.044824
N7    N     N_R   0.427500 0.075670 0.211370 -0.044817
N8    N     N_R   0.572500 0.075670 0.788630 -0.044822
N9    N     N_R   0.908660 0.365680 0.995820 -0.100198
N10   N     N_R   0.091340 0.365680 0.004180 -0.100201
N11   N     N_R   0.408660 0.865680 0.995820 -0.100196
N12   N     N_R   0.091340 0.628630 0.004160 -0.047658
N13   N     N_R   0.591340 0.865680 0.004180 -0.100196
N14   N     N_R   0.922310 0.631420 0.151980 -0.046882
N15   N     N_R   0.077690 0.631420 0.848020 -0.046879
N16   N     N_R   0.422310 0.131420 0.151980 -0.046881
N17   N     N_R   0.577690 0.131420 0.848020 -0.046879
N18   N     N_R   0.927500 0.426330 0.211360 -0.067693
N19   N     N_R   0.072500 0.426330 0.788640 -0.067703
N20   N     N_R   0.427500 0.926330 0.211360 -0.067721
N21   N     N_R   0.572500 0.926330 0.788640 -0.067701
N22   N     N_R   0.903470 0.570760 0.936440 -0.041293
N23   N     N_R   0.408660 0.128630 0.995840 -0.047657
N24   N     N_R   0.096530 0.570760 0.063560 -0.041295
N25   N     N_R   0.403470 0.070760 0.936440 -0.041293
N26   N     N_R   0.596530 0.070760 0.063560 -0.041299
N27   N     N_R   0.591340 0.128630 0.004160 -0.047656
N28   N     N_R   0.922310 0.368460 0.151950 -0.072938
N29   N     N_R   0.077690 0.368460 0.848050 -0.072936
N30   N     N_R   0.422310 0.868460 0.151950 -0.072937
N31   N     N_R   0.577690 0.868460 0.848050 -0.072937
N32   N     N_R   0.903470 0.421430 0.936420 -0.058111
Ni1   Ni    Ni4+2 0.000000 0.630300 0.000000 0.199143
Ni2   Ni    Ni4+2 0.500000 0.130300 0.000000 0.199146
Ni3   Ni    Ni4+2 0.000000 0.369700 0.000000 0.207720
Ni4   Ni    Ni4+2 0.500000 0.869700 0.000000 0.207720
Ni5   Ni    Ni4+2 0.988090 0.497570 0.863760 0.230084
Ni6   Ni    Ni4+2 0.011910 0.497570 0.136240 0.230084
Ni7   Ni    Ni4+2 0.488090 0.997570 0.863760 0.230085
Ni8   Ni    Ni4+2 0.511910 0.997570 0.136240 0.230048
O1    O     O_3   0.905003 0.226268 0.000670 -0.794830
O2    O     O_3   0.095006 0.226267 0.999315 -0.794851
O3    O     O_3   0.405001 0.726267 0.000673 -0.794846
O4    O     O_3   0.595008 0.726267 0.999313 -0.794843
O5    O     O_3   0.859273 0.451364 0.400853 -0.813848
O6    O     O_3   0.140728 0.451355 0.599146 -0.813741
O7    O     O_3   0.359238 0.951387 0.400862 -0.813739
O8    O     O_3   0.640712 0.951350 0.599151 -0.813807

loop_
_geom_bond_atom_site_label_1
_geom_bond_atom_site_label_2
_ccdc_geom_bond_type
C53   H22   S    
C83   C87   A    
C21   C26   A    
C59   H32   S    
N25   Ni7   S    
C18   H49   S    
N14   Ni1   S    
C79   N21   A    
C11   C47   S    
C67   C77   A    
C80   C84   A    
C51   C85   S    
C4    C70   A    
N26   N27   A    
N29   Ni3   S    
C2    C57   S    
C72   H41   S    
N23   N25   A    
N27   Ni2   S    
N20   Ni8   S    
C43   C78   A    
C6    C72   A    
C12   C85   A    
C80   H44   S    
C65   H39   S    
C20   H51   S    
C26   H63   S    
C3    C69   A    
C24   H56   S    
N17   Ni2   S    
C13   C35   A    
C2    C68   A    
C10   C15   A    
C73   N16   A    
C66   C88   A    
N10   Ni3   S    
C40   H27   S    
C23   N23   A    
C20   C25   A    
N15   Ni1   S    
C69   O3    S    
C47   H11   S    
N7    N16   A    
N19   Ni5   S    
C58   N32   A    
C44   H9    S    
C82   H47   S    
C52   C84   S    
C49   C87   S    
N5    Ni6   S    
H57   O4    S    
C6    C15   S    
C40   N28   A    
C36   H5    S    
C29   C78   S    
C28   C35   A    
C43   H30   S    
C51   H20   S    
C74   N17   A    
C23   C86   A    
C82   N25   A    
C38   H7    S    
C10   C46   S    
N8    N17   A    
N12   N24   A    
C47   H16   S    
C45   C75   A    
C24   C28   A    
C30   C67   S    
C3    C60   A    
N2    Ni6   S    
C8    C65   A    
C34   H34   S    
C18   C22   A    
C74   H43   S    
C41   N29   A    
C34   N27   A    
C65   N8    A    
C62   H36   S    
C59   N2    A    
C52   C54   D    
N6    N15   A    
C9    C31   A    
C75   O5    S    
C25   C29   A    
C40   C45   A    
C39   H8    S    
C28   C45   S    
N13   Ni4   S    
N16   Ni2   S    
C22   H45   S    
C81   N24   A    
C14   C20   A    
C11   C33   A    
C81   H46   S    
C7    C73   A    
N12   Ni1   S    
C70   N13   A    
C44   H14   S    
C78   C79   A    
C36   H64   S    
H53   O1    S    
C55   H25   S    
N3    N11   A    
C82   C86   A    
C4    C61   A    
C71   N14   A    
C42   N30   A    
C66   N9    A    
N18   N28   A    
N11   Ni4   S    
C1    C84   A    
C6    C63   A    
N5    N14   A    
C76   N19   A    
C35   C39   S    
C9    C14   A    
C41   C56   A    
C77   N20   A    
N28   Ni3   S    
N20   N30   A    
C12   N12   A    
N26   Ni8   S    
C11   C16   A    
N24   Ni6   S    
C48   H17   S    
H55   O3    S    
C75   N18   A    
C8    C74   A    
H54   O2    S    
C62   N5    A    
C54   H24   S    
C42   H29   S    
C16   C18   A    
N30   Ni4   S    
C32   C37   S    
C27   C56   S    
C1    N1    A    
C77   O7    S    
C5    C14   S    
C63   H37   S    
N3    Ni7   S    
C37   H2    S    
C37   H6    S    
C70   O4    S    
C7    C16   S    
C26   C30   A    
C64   H38   S    
C22   C27   A    
N9    Ni3   S    
C50   H19   S    
C72   N15   A    
N4    N13   A    
C71   H40   S    
N6    Ni5   S    
C41   H28   S    
C61   N4    A    
N4    Ni8   S    
C39   H4    S    
C66   O1    S    
C73   H42   S    
C9    C44   S    
C1    H1    S    
C79   O8    S    
C83   N26   A    
C4    C54   S    
N1    N22   A    
C2    C59   A    
C50   C57   D    
N7    Ni8   S    
N19   N29   A    
C69   N11   A    
N8    Ni7   S    
C58   C88   A    
N2    N10   A    
C13   C48   S    
C68   O2    S    
H60   O7    S    
C49   H18   S    
C68   N10   A    
C23   H23   S    
C46   H15   S    
N18   Ni6   S    
C33   C38   S    
C21   H52   S    
C38   C47   S    
C61   H35   S    
N9    N32   A    
C19   C24   A    
C60   N3    A    
C80   N22   A    
C5    C71   A    
C56   C76   A    
C49   C55   D    
N31   Ni4   S    
C8    C17   S    
C30   C32   A    
C3    C53   S    
C42   C67   A    
C57   H26   S    
N1    Ni1   S    
C52   H21   S    
H58   O5    S    
C19   H50   S    
C48   H13   S    
C38   H3    S    
C64   N7    A    
C43   N31   A    
C58   H31   S    
C17   C19   A    
N21   Ni7   S    
C5    C62   A    
C55   C88   S    
C34   C87   A    
C46   H10   S    
C60   H33   S    
C7    C64   A    
C12   H12   S    
C36   C44   S    
H61   O8    S    
C50   C86   S    
N22   Ni5   S    
C13   C17   A    
C10   C32   A    
C15   C21   A    
N21   N31   A    
C29   C31   A    
C27   C33   A    
C31   C36   S    
C25   H62   S    
H59   O6    S    
C76   O6    S    
C63   N6    A    
C51   C53   D    
C37   C46   S    
N32   Ni5   S    
C81   C85   A    
C39   C48   S    
N23   Ni2   S    
C83   H48   S    
