data_mof_unit_50627.cif
_audit_creation_date              2012-12-10T17:45:33-0500
_audit_creation_method            fapswitch 2.2
_symmetry_space_group_name_H-M    P1
_symmetry_Int_Tables_number       1
_space_group_crystal_system       triclinic
_cell_length_a                    11.534398
_cell_length_b                    10.678416
_cell_length_c                    9.994672
_cell_angle_alpha                 88.966024
_cell_angle_beta                  89.942982
_cell_angle_gamma                 93.312501
_cell_volume                      1228.77530967

loop_
_atom_site_label
_atom_site_type_symbol
_atom_type_description
_atom_site_fract_x
_atom_site_fract_y
_atom_site_fract_z
_atom_type_partial_charge
C1    C     C_R   0.505895 0.261125 0.501284 0.957664
C2    C     C_R   0.801654 0.074106 0.672144 0.343361
C3    C     C_R   0.802600 0.945125 0.660181 -0.209761
C4    C     C_R   0.710406 0.877652 0.600993 0.610259
C5    C     C_R   0.611647 0.938362 0.553791 -0.185424
C6    C     C_R   0.610634 0.069968 0.561174 -0.123246
C7    C     C_R   0.514562 0.128901 0.503740 -0.100182
C8    C     C_R   0.423870 0.061271 0.441376 -0.269017
C9    C     C_R   0.423188 0.933392 0.438344 0.629634
C10   C     C_R   0.514607 0.872365 0.496053 -0.178426
C11   C     C_R   0.341320 0.343768 0.150227 -0.316979
C12   C     C_R   0.282258 0.499662 0.500030 0.891705
C13   C     C_R   0.253065 0.270754 0.091396 0.341080
C14   C     C_R   0.247625 0.267385 0.954500 0.555696
C15   C     C_R   0.331339 0.334605 0.873822 0.328025
C16   C     C_R   0.418530 0.420388 0.931667 -0.077876
C17   C     C_R   0.420585 0.422148 0.075885 -0.067230
C18   C     C_R   0.575696 0.574818 0.069457 0.583427
C19   C     C_R   0.575777 0.574746 0.926981 0.577960
C20   C     C_R   0.503544 0.739392 0.498824 1.022935
C21   C     C_R   0.717785 0.500494 0.499777 1.050393
C22   C     C_1   0.161656 0.499102 0.500104 -0.110003
C23   C     C_1   0.059377 0.498941 0.500002 0.051987
C24   C     C_1   0.940620 0.499313 0.499752 0.047094
C25   C     C_1   0.838387 0.499916 0.499588 -0.034795
C26   C     C_R   0.706568 0.137008 0.621759 0.470610
H1    H     H_    0.351715 0.108036 0.397254 0.163684
H2    H     H_    0.876754 0.896440 0.695758 0.232759
H3    H     H_    0.345085 0.336079 0.255330 0.226460
N1    N     N_R   0.498930 0.498800 0.142780 -0.161840
N2    N     N_R   0.498900 0.498720 0.857170 -0.156601
O1    O     O_R   0.500000 0.316780 0.614690 -0.505775
O2    O     O_R   0.499990 0.316750 0.385360 -0.666922
O3    O     O_R   0.334450 0.500030 0.614670 -0.559449
O4    O     O_R   0.334440 0.500000 0.385330 -0.636021
O5    O     O_R   0.500010 0.683250 0.614640 -0.571731
O6    O     O_R   0.500000 0.683220 0.385310 -0.550811
O7    O     O_R   0.665560 0.500000 0.614670 -0.496888
O8    O     O_R   0.665550 0.499970 0.385330 -0.594710
Zn1   Zn    Zn3+2 0.500010 0.500020 0.653130 1.121382
Zn2   Zn    Zn3+2 0.499990 0.499980 0.346870 1.050933
F1    F     F_    0.161083 0.193554 0.899104 -0.589363
O9    O     O_3   0.328723 0.310972 0.740453 -0.709066
H4    H     H_    0.270732 0.242725 0.717452 0.364324
F2    F     F_    0.653572 0.651878 0.859163 -0.575627
F3    F     F_    0.710422 0.262722 0.632005 -0.702020
O10   O     O_3   0.896295 0.135738 0.731433 -0.660973
H5    H     H_    0.884833 0.226883 0.733288 0.393194
F4    F     F_    0.722437 0.753754 0.585349 -0.654042
F5    F     F_    0.331323 0.868312 0.382362 -0.638438
F6    F     F_    0.653386 0.652161 0.134060 -0.588460
O11   O     O_3   0.171970 0.198878 0.165607 -0.647660
H6    H     H_    0.185855 0.212902 0.262235 0.324769

loop_
_geom_bond_atom_site_label_1
_geom_bond_atom_site_label_2
_ccdc_geom_bond_type
C8    C9    A    
C23   C24   S    
C19   F2    S    
N1    Zn2   S    
C6    C7    A    
C17   N1    A    
C2    O10   S    
C13   O11   S    
C9    C10   A    
O10   H5    S    
C21   O8    A    
O5    Zn1   S    
C4    F4    S    
C14   F1    S    
C1    O1    A    
C19   N2    A    
C2    C3    A    
C24   C25   T    
C15   O9    S    
C7    C8    A    
C2    C26   A    
C13   C14   A    
O11   H6    S    
C12   O4    A    
O7    Zn1   S    
C20   O6    A    
C11   C13   A    
C6    C26   A    
O3    Zn1   S    
C21   O7    A    
C3    H2    S    
C18   F6    S    
O1    Zn1   S    
O9    H4    S    
O6    Zn2   S    
C5    C6    A    
O4    Zn2   S    
C26   F3    S    
C18   N1    A    
C1    O2    A    
C15   C16   A    
C20   O5    A    
C12   C22   S    
C5    C10   A    
O2    Zn2   S    
C11   H3    S    
O8    Zn2   S    
C18   C19   A    
C8    H1    S    
C21   C25   S    
C14   C15   A    
C16   C17   A    
N2    Zn1   S    
C1    C7    S    
C12   O3    A    
C22   C23   T    
C11   C17   A    
C9    F5    S    
C3    C4    A    
C10   C20   S    
C4    C5    A    
C16   N2    A    
