data_mof_unit_48688.cif
_audit_creation_date              2012-12-11T14:27:54-0500
_audit_creation_method            fapswitch 2.2
_symmetry_space_group_name_H-M    P1
_symmetry_Int_Tables_number       1
_space_group_crystal_system       triclinic
_cell_length_a                    6.959441
_cell_length_b                    14.774366
_cell_length_c                    16.196935
_cell_angle_alpha                 90.799528
_cell_angle_beta                  89.202296
_cell_angle_gamma                 89.613677
_cell_volume                      1665.02676348

loop_
_atom_site_label
_atom_site_type_symbol
_atom_type_description
_atom_site_fract_x
_atom_site_fract_y
_atom_site_fract_z
_atom_type_partial_charge
O1    O     O_R   0.494510 0.415970 0.413200 -0.555958
O2    O     O_R   0.823800 0.407430 0.586200 -0.505680
O3    O     O_R   0.994130 0.584030 0.586800 -0.509561
C1    C     C_R   0.653842 0.381520 0.609931 0.822872
O4    O     O_R   0.824220 0.405090 0.413820 -0.526962
O5    O     O_R   0.994560 0.581670 0.413190 -0.523313
C2    C     C_R   0.656422 0.382955 0.385836 0.759983
O6    O     O_R   0.494090 0.418330 0.586810 -0.539641
O7    O     O_3   0.660810 0.557940 0.500000 -0.367972
V1    V     V_3+5 0.935650 0.489250 0.500000 1.643338
O8    O     O_R   0.324270 0.592570 0.413800 -0.564012
C3    C     C_R   0.155332 0.615405 0.386702 0.721726
O9    O     O_R   0.323850 0.594910 0.586180 -0.536642
C4    C     C_R   0.153456 0.617268 0.614204 0.757332
V2    V     V_3+5 0.435660 0.510750 0.500000 1.540009
O10   O     O_3   0.160630 0.442060 0.500000 -0.356582
C5    C     C_3   0.081318 0.664131 0.774845 -0.036539
C6    C     C_3   0.255341 0.718435 0.807922 -0.213739
H1    H     H_    0.348597 0.695266 0.858337 0.198245
C7    C     C_3   0.126817 0.805231 0.810837 -0.141973
C8    C     C_3   0.953939 0.750691 0.778734 -0.042924
C9    C     C_3   0.015789 0.772145 0.689036 0.147271
C10   C     C_3   0.186472 0.825699 0.721301 0.089730
C11   C     C_3   0.312342 0.740046 0.716986 -0.017766
C12   C     C_3   0.140262 0.685441 0.684397 -0.096110
C13   C     C_2   0.987991 0.714600 0.284146 0.219715
C14   C     C_2   0.148672 0.687332 0.323603 -0.307773
H2    H     H_    0.283689 0.720838 0.309908 0.096761
C15   C     C_2   0.993363 0.789564 0.223170 -0.274044
C16   C     C_2   0.124244 0.798271 0.161177 -0.159671
H3    H     H_    0.877380 0.839035 0.228453 0.147933
C17   C     C_2   0.725958 0.172939 0.748803 -0.095971
C18   C     C_2   0.629624 0.183932 0.822518 -0.239324
C19   C     C_2   0.776244 0.250697 0.695075 0.063698
C20   C     C_2   0.633601 0.303565 0.665644 -0.244732
H4    H     H_    0.486718 0.286799 0.683162 0.131605
C21   C     C_2   0.763812 0.222199 0.202145 -0.085684
C22   C     C_2   0.612407 0.168222 0.182665 0.038566
C23   C     C_2   0.778490 0.262232 0.286535 -0.058446
C24   C     C_2   0.646367 0.324755 0.311384 -0.244761
H5    H     H_    0.526725 0.338736 0.270857 0.130968
O11   O     O_R   0.771000 0.074870 0.906030 -0.535130
O12   O     O_R   0.440710 0.088040 0.078970 -0.556360
O13   O     O_R   0.270540 0.911420 0.079570 -0.521339
C25   C     C_R   0.608409 0.110315 0.107105 0.737911
O14   O     O_R   0.441280 0.085700 0.906600 -0.547094
O15   O     O_R   0.271110 0.909060 0.905960 -0.526651
C26   C     C_R   0.611214 0.107882 0.879771 0.667469
O16   O     O_R   0.770430 0.077230 0.079640 -0.528931
O17   O     O_3   0.604340 0.935220 0.992820 -0.358372
V3    V     V_3+5 0.329430 0.003850 0.992770 1.496693
O18   O     O_R   0.941400 0.898110 0.906530 -0.561981
C27   C     C_R   0.112168 0.875237 0.879133 0.717811
O19   O     O_R   0.940830 0.900450 0.078910 -0.546747
C28   C     C_R   0.110204 0.876281 0.104575 0.750200
V4    V     V_3+5 0.829450 0.982250 0.992700 1.501304
O20   O     O_3   0.104410 0.051000 0.992740 -0.366833
C29   C     C_2   0.271627 0.726829 0.142301 0.362830
H6    H     H_    0.263774 0.660984 0.170721 0.063086
O21   O     O_2   0.401474 0.739811 0.092474 -0.513169
C30   C     C_2   0.780608 0.080596 0.717096 0.367095
H7    H     H_    0.751742 0.020517 0.752823 0.027600
O22   O     O_2   0.855232 0.070410 0.648880 -0.518367
C31   C     C_2   0.566451 0.273127 0.857770 0.428934
H8    H     H_    0.455525 0.275151 0.905568 0.057792
O23   O     O_2   0.643017 0.343907 0.838205 -0.505160
C32   C     C_2   0.982937 0.261007 0.673818 0.546733
H9    H     H_    0.088425 0.256584 0.722340 0.005533
O24   O     O_2   0.038119 0.266134 0.602198 -0.486961
C33   C     C_2   0.918218 0.247222 0.142351 0.354889
H10   H     H_    0.054790 0.271266 0.165191 0.022263
O25   O     O_2   0.891282 0.247185 0.068015 -0.515915
N1    N     N_3   0.458179 0.158269 0.241714 -0.657093
H11   H     H_    0.330244 0.176412 0.213110 0.215433
H12   H     H_    0.449335 0.089921 0.257127 0.224994
C34   C     C_2   0.936467 0.228761 0.339111 0.439285
H13   H     H_    0.060319 0.195702 0.310388 0.017413
O26   O     O_2   0.925287 0.232232 0.414366 -0.480669
C35   C     C_2   0.025441 0.573423 0.807547 0.499086
H14   H     H_    0.993174 0.566322 0.872814 0.083412
O27   O     O_2   0.016674 0.507456 0.761647 -0.523837
C36   C     C_2   0.760865 0.758130 0.820122 0.470594
H15   H     H_    0.672287 0.817803 0.811205 0.030514
O28   O     O_2   0.705462 0.698873 0.866171 -0.532531
N2    N     N_3   0.895796 0.804286 0.622677 -0.654281
H16   H     H_    0.849378 0.869616 0.638987 0.240347
H17   H     H_    0.983163 0.810140 0.570049 0.220005
N3    N     N_3   0.247129 0.914315 0.692871 -0.671646
H18   H     H_    0.260148 0.910690 0.628567 0.238320
H19   H     H_    0.135890 0.960020 0.706783 0.252355
C37   C     C_2   0.502272 0.736198 0.673985 0.402295
H20   H     H_    0.541736 0.790877 0.633630 0.068470
O29   O     O_2   0.604404 0.669019 0.678589 -0.492787
N4    N     N_3   0.804504 0.676455 0.304358 -0.626513
H21   H     H_    0.745596 0.651019 0.249811 0.232192
H22   H     H_    0.714606 0.728673 0.326333 0.221538

loop_
_geom_bond_atom_site_label_1
_geom_bond_atom_site_label_2
_ccdc_geom_bond_type
C13   N4    S    
N1    H11   S    
C20   H4    S    
C1    O6    A    
N2    H16   S    
C13   C14   D    
C15   C16   D    
C6    C11   S    
C34   O26   D    
C17   C30   S    
C6    H1    S    
O5    C3    A    
C29   O21   D    
V2    O10   S    
C5    C35   S    
V4    O20   S    
C19   C20   D    
C9    N2    S    
C30   O22   D    
C22   C25   S    
O11   V4    S    
O8    V2    S    
C9    C12   S    
C10   C11   S    
C33   H10   S    
V3    O20   S    
O7    V1    S    
O15   C27   A    
N3    H18   S    
C1    C20   S    
O9    C4    A    
N1    H12   S    
N4    H21   S    
O17   V3    S    
O14   C26   A    
N2    H17   S    
O19   V4    S    
C3    C14   S    
C32   H9    S    
C11   C12   S    
C37   H20   S    
O4    C2    A    
O15   V3    S    
C29   H6    S    
O14   V3    S    
O17   V4    S    
C32   O24   D    
C17   C19   S    
O2    C1    A    
C21   C22   D    
C37   O29   D    
C7    C10   S    
C25   O16   A    
C2    C24   S    
C5    C6    S    
O11   C26   A    
C23   C34   S    
C34   H13   S    
N4    H22   S    
O12   C25   A    
O3    C4    A    
O1    V2    S    
O13   V3    S    
C24   H5    S    
N3    H19   S    
O6    V2    S    
C36   O28   D    
C10   N3    S    
O9    V2    S    
O2    V1    S    
C11   C37   S    
C23   C24   D    
O18   C27   A    
C35   O27   D    
O19   C28   A    
O1    C2    A    
C7    C27   S    
C19   C32   S    
O5    V1    S    
O8    C3    A    
O16   V4    S    
C16   C28   S    
C5    C12   S    
C31   H8    S    
O7    V2    S    
O4    V1    S    
C15   H3    S    
O3    V1    S    
V1    O10   S    
C17   C18   D    
C8    C36   S    
O13   C28   A    
O12   V3    S    
C18   C31   S    
C16   C29   S    
C6    C7    S    
C4    C12   S    
C30   H7    S    
C5    C8    S    
C35   H14   S    
C7    C8    S    
C13   C15   S    
C21   C23   S    
C36   H15   S    
C14   H2    S    
C18   C26   S    
C9    C10   S    
C33   O25   D    
C8    C9    S    
C21   C33   S    
O18   V4    S    
C31   O23   D    
C22   N1    S    
