data_mof_unit_36419.cif
_audit_creation_date              2012-12-11T15:49:19-0500
_audit_creation_method            fapswitch 2.2
_symmetry_space_group_name_H-M    P1
_symmetry_Int_Tables_number       1
_space_group_crystal_system       triclinic
_cell_length_a                    8.281349
_cell_length_b                    19.033185
_cell_length_c                    26.912619
_cell_angle_alpha                 94.305401
_cell_angle_beta                  92.825771
_cell_angle_gamma                 85.46987
_cell_volume                      4212.77849204

loop_
_atom_site_label
_atom_site_type_symbol
_atom_type_description
_atom_site_fract_x
_atom_site_fract_y
_atom_site_fract_z
_atom_type_partial_charge
Ba1   Ba    Ba6+2 0.854000 0.466860 0.523710 1.643881
Ba2   Ba    Ba6+2 0.335820 0.533080 0.476290 1.639916
C1    C     C_3   0.648716 0.223760 0.713847 -0.074401
C2    C     C_R   0.891882 0.570797 0.176604 0.583562
C3    C     C_2   0.739928 0.525611 0.269726 -0.082337
C4    C     C_3   0.155353 0.334570 0.659929 0.373514
C5    C     C_3   0.695260 0.517579 0.323164 -0.049386
C6    C     C_1   0.981811 0.489798 0.343069 0.038525
C7    C     C_2   0.022674 0.492187 0.296063 -0.097122
C8    C     C_2   0.896166 0.511757 0.256093 0.200409
C9    C     C_R   0.033389 0.515958 0.104150 -0.078847
C10   C     C_R   0.080519 0.457419 0.132053 -0.032962
C11   C     C_R   0.175020 0.400643 0.109729 -0.065026
C12   C     C_3   0.593526 0.294175 0.689594 0.265683
C13   C     C_R   0.937755 0.572849 0.126662 -0.028256
C14   C     C_2   0.843138 0.520507 0.358189 -0.284658
C15   C     C_2   0.348871 0.481742 0.641262 -0.276365
C16   C     C_3   0.192200 0.325877 0.715335 -0.265617
C17   C     C_R   0.225114 0.460518 0.981327 0.019476
C18   C     C_R   0.077244 0.577429 0.975080 0.020553
C19   C     C_R   0.173151 0.519152 0.953068 0.046215
C20   C     C_R   0.323220 0.404647 0.957915 -0.105720
C21   C     C_R   0.365098 0.405492 0.908660 -0.080987
C22   C     C_R   0.312267 0.461977 0.880069 -0.021824
C23   C     C_3   0.497672 0.639284 0.625727 0.298974
C24   C     C_R   0.217100 0.519205 0.902109 -0.080762
C25   C     C_R   0.165486 0.576132 0.873108 -0.031873
C26   C     C_R   0.205151 0.573850 0.822102 0.569954
C27   C     C_R   0.348852 0.460632 0.829306 0.570775
C28   C     C_3   0.191025 0.316956 0.418440 0.325195
C29   C     C_2   0.465417 0.483281 0.729427 -0.117358
C30   C     C_3   0.467469 0.447751 0.677753 -0.064448
C31   C     C_1   0.215014 0.515940 0.658413 0.021326
C32   C     C_2   0.184049 0.523022 0.707190 -0.125987
C33   C     C_2   0.319905 0.509711 0.746293 0.201020
C34   C     C_3   0.480645 0.661920 0.681032 -0.247425
C35   C     C_R   0.177729 0.459315 0.031642 0.020127
C36   C     C_R   0.081038 0.517346 0.053659 0.048803
C37   C     C_R   0.031061 0.576567 0.025737 0.019186
C38   C     C_R   0.222553 0.401439 0.060917 -0.102665
C39   C     C_R   0.890014 0.630917 0.098842 -0.066925
C40   C     C_3   0.250165 0.240485 0.402263 -0.245948
C41   C     C_R   0.031170 0.634681 0.945266 -0.101174
C42   C     C_R   0.074714 0.633994 0.895719 -0.076058
C43   C     C_R   0.935094 0.632817 0.049717 -0.102675
C44   C     C_R   0.399677 0.298513 0.524545 -0.260465
C45   C     C_3   0.969784 0.692421 0.343557 0.289626
C46   C     C_R   0.536140 0.276035 0.497301 0.088632
C47   C     C_R   0.581733 0.203492 0.490053 -0.116463
C48   C     C_R   0.489813 0.153062 0.509048 -0.002177
C49   C     C_R   0.348314 0.176885 0.534837 -0.150381
C50   C     C_R   0.301719 0.249588 0.541795 -0.015913
C51   C     C_R   0.552126 0.034804 0.543382 -0.086878
C52   C     C_3   0.004768 0.682082 0.579677 0.308389
C53   C     C_R   0.620252 0.964795 0.541006 0.038734
C54   C     C_R   0.662995 0.931463 0.493963 0.057212
C55   C     C_R   0.652646 0.972588 0.452327 -0.062186
C56   C     C_3   0.926434 0.719860 0.292702 -0.366048
C57   C     C_R   0.595900 0.044233 0.456664 -0.074163
C58   C     C_R   0.543498 0.076083 0.502428 0.048487
C59   C     C_R   0.853322 0.828103 0.463636 -0.143476
C60   C     C_R   0.898202 0.755119 0.460130 0.016963
C61   C     C_R   0.658620 0.733304 0.502392 0.044294
C62   C     C_R   0.610414 0.805499 0.505260 -0.116262
C63   C     C_R   0.709175 0.854053 0.486969 -0.013273
C64   C     C_3   0.984263 0.761169 0.593342 -0.405316
C65   C     C_R   0.797599 0.708358 0.477836 -0.280740
C66   C     C_3   0.687990 0.371235 0.373645 0.297650
C67   C     C_3   0.496947 0.718746 0.361722 0.324486
C68   C     C_3   0.707919 0.343381 0.319556 -0.390141
C69   C     C_3   0.128174 0.199962 0.368651 -0.182218
C70   C     C_3   0.971378 0.191138 0.394721 -0.193383
C71   C     C_3   0.860891 0.144252 0.362314 -0.428510
C72   C     C_3   0.519925 0.168331 0.712015 -0.243909
C73   C     C_3   0.443463 0.150479 0.660401 -0.210823
C74   C     C_3   0.344644 0.085936 0.660901 -0.416067
C75   C     C_3   0.640677 0.649558 0.711257 -0.197108
C76   C     C_3   0.614630 0.665278 0.767104 -0.233379
C77   C     C_3   0.771237 0.650787 0.797924 -0.401332
C78   C     C_3   0.521693 0.793304 0.346384 -0.174656
C79   C     C_3   0.718204 0.237853 0.768277 -0.204996
C80   C     C_3   0.601873 0.233473 0.810684 -0.197104
C81   C     C_3   0.682496 0.254032 0.861375 -0.416812
C82   C     C_1   0.424562 0.846154 0.377457 0.254837
C83   C     C_3   0.483649 0.803234 0.290438 -0.180948
C84   C     C_3   0.312490 0.784613 0.272295 -0.184115
C85   C     C_3   0.278403 0.800200 0.217829 -0.442407
C86   C     C_3   0.650139 0.929843 0.589962 -0.210571
C87   C     C_3   0.773143 0.968364 0.624608 -0.198184
C88   C     C_3   0.792117 0.937458 0.675454 -0.427873
C89   C     C_R   0.031695 0.456352 0.181694 0.587558
C90   C     C_3   0.042598 0.314770 0.743224 -0.177293
C91   C     C_3   0.074225 0.319802 0.800367 -0.233469
C92   C     C_3   0.990051 0.387080 0.825040 -0.406520
H1    H     H_    0.509163 0.284365 0.657217 -0.009187
H2    H     H_    0.603269 0.419360 0.375325 0.040869
H3    H     H_    0.856632 0.387681 0.818819 0.136304
H4    H     H_    0.018416 0.389856 0.865841 0.130317
H5    H     H_    0.027734 0.273599 0.816311 0.105905
H6    H     H_    0.205887 0.317876 0.810556 0.160281
H7    H     H_    0.944649 0.354805 0.732902 0.166817
H8    H     H_    0.004883 0.261474 0.730531 0.134863
H9    H     H_    0.750366 0.198681 0.691522 0.120252
H10   H     H_    0.780375 0.291755 0.318009 0.130366
H11   H     H_    0.772521 0.380130 0.299109 0.080589
H12   H     H_    0.587153 0.336485 0.300792 0.122674
H13   H     H_    0.531608 0.329836 0.718388 0.030621
H14   H     H_    0.373804 0.633684 0.609240 0.032323
H15   H     H_    0.568966 0.587328 0.621197 0.035715
H16   H     H_    0.387738 0.631293 0.695856 0.085272
H17   H     H_    0.436438 0.718673 0.685351 0.127627
H18   H     H_    0.363143 0.241190 0.381741 0.116425
H19   H     H_    0.245557 0.374083 0.731918 0.116112
H20   H     H_    0.023561 0.637275 0.338232 0.059130
H21   H     H_    0.855411 0.693193 0.363639 -0.005019
H22   H     H_    0.027317 0.706344 0.267325 0.119951
H23   H     H_    0.818174 0.694696 0.276376 0.168717
H24   H     H_    0.898520 0.778012 0.296153 0.109953
H25   H     H_    0.555183 0.713901 0.399477 0.010120
H26   H     H_    0.366310 0.712093 0.363364 0.109138
H27   H     H_    0.651168 0.803295 0.354427 0.055761
H28   H     H_    0.062037 0.379199 0.656178 0.097758
H29   H     H_    0.280620 0.210979 0.435729 0.051621
H30   H     H_    0.148167 0.481045 0.286432 0.129627
H31   H     H_    0.213190 0.354732 0.130074 0.119012
H32   H     H_    0.570146 0.474847 0.754735 0.112787
H33   H     H_    0.437902 0.360582 0.892703 0.110845
H34   H     H_    0.370430 0.358723 0.976383 0.064570
H35   H     H_    0.294023 0.354974 0.047347 0.065064
H36   H     H_    0.643807 0.536539 0.241852 0.108459
H37   H     H_    0.816487 0.675656 0.115031 0.114845
H38   H     H_    0.960470 0.681354 0.958943 0.063925
H39   H     H_    0.269212 0.348442 0.644446 -0.115087
H40   H     H_    0.886038 0.662567 0.567909 0.015039
H41   H     H_    0.035680 0.679371 0.874968 0.109545
H42   H     H_    0.061386 0.537323 0.718757 0.113329
H43   H     H_    0.891740 0.679606 0.031590 0.064623
H44   H     H_    0.836172 0.548230 0.394900 0.073391
H45   H     H_    0.354720 0.462241 0.602401 0.083785
H46   H     H_    0.500716 0.824177 0.524012 0.078785
H47   H     H_    0.511313 0.057901 0.578255 0.069470
H48   H     H_    0.687717 0.186410 0.469061 0.067767
H49   H     H_    0.685932 0.948808 0.416071 0.064385
H50   H     H_    0.588623 0.074213 0.423963 0.056187
H51   H     H_    0.089591 0.671895 0.548904 0.063738
H52   H     H_    0.931953 0.864291 0.449711 0.086404
H53   H     H_    0.272474 0.139135 0.548112 0.071435
H54   H     H_    0.833154 0.652293 0.475352 0.058756
H55   H     H_    0.363289 0.354365 0.529318 0.064593
H56   H     H_    0.281272 0.280769 0.719890 0.093399
H57   H     H_    0.296025 0.344242 0.435065 -0.004765
H58   H     H_    0.099108 0.317152 0.447025 0.038130
H59   H     H_    0.840968 0.163635 0.324434 0.134269
H60   H     H_    0.915377 0.088959 0.359160 0.135368
H61   H     H_    0.741566 0.145270 0.379377 0.124319
H62   H     H_    0.890507 0.772273 0.621538 0.124052
H63   H     H_    0.999639 0.167418 0.430957 0.122046
H64   H     H_    0.905910 0.243591 0.401976 0.158087
H65   H     H_    0.099680 0.227253 0.333817 0.148474
H66   H     H_    0.186866 0.146780 0.357870 0.107211
H67   H     H_    0.425671 0.038156 0.668178 0.127303
H68   H     H_    0.253793 0.094617 0.690204 0.137397
H69   H     H_    0.278146 0.076801 0.624486 0.122418
H70   H     H_    0.359587 0.194872 0.648779 0.143955
H71   H     H_    0.541064 0.141599 0.633532 0.116030
H72   H     H_    0.581631 0.118960 0.725818 0.119810
H73   H     H_    0.946612 0.790281 0.560202 0.064715
H74   H     H_    0.420438 0.184904 0.737292 0.107673
H75   H     H_    0.818426 0.594745 0.791215 0.147325
H76   H     H_    0.863502 0.686063 0.788074 0.177035
H77   H     H_    0.747494 0.661186 0.838152 0.119742
H78   H     H_    0.570106 0.721571 0.774472 0.133419
H79   H     H_    0.522247 0.631580 0.779167 0.155024
H80   H     H_    0.688625 0.593603 0.704538 0.130679
H81   H     H_    0.730959 0.684214 0.699015 0.147595
H82   H     H_    0.796694 0.220492 0.867473 0.127667
H83   H     H_    0.709748 0.310353 0.863757 0.150361
H84   H     H_    0.100792 0.780362 0.608962 0.122652
H85   H     H_    0.599701 0.246244 0.891377 0.115698
H86   H     H_    0.491109 0.269146 0.804737 0.154589
H87   H     H_    0.566885 0.178475 0.811772 0.108878
H88   H     H_    0.824146 0.199348 0.774457 0.090276
H89   H     H_    0.759759 0.291633 0.772326 0.137435
H90   H     H_    0.285834 0.857352 0.213244 0.134940
H91   H     H_    0.367190 0.768909 0.193776 0.150677
H92   H     H_    0.154587 0.785680 0.205654 0.133583
H93   H     H_    0.301248 0.727435 0.275576 0.155516
H94   H     H_    0.220342 0.815514 0.295359 0.144105
H95   H     H_    0.808325 0.383187 0.390243 0.024645
H96   H     H_    0.499464 0.859079 0.283308 0.094179
H97   H     H_    0.573484 0.769867 0.268012 0.148601
H98   H     H_    0.674368 0.942907 0.693965 0.130225
H99   H     H_    0.835915 0.880813 0.671417 0.137381
H100  H     H_    0.881648 0.966354 0.699446 0.123832
H101  H     H_    0.892870 0.963610 0.607181 0.124190
H102  H     H_    0.734092 0.025404 0.630678 0.121840
H103  H     H_    0.532838 0.930219 0.608412 0.100699
H104  H     H_    0.698930 0.874218 0.584571 0.107988
H105  H     H_    0.030474 0.434466 0.809142 0.132877
N1    N     N_R   0.940088 0.513153 0.204017 -0.420990
N2    N     N_R   0.292158 0.515465 0.800056 -0.419434
N3    N     N_1   0.347630 0.887510 0.401806 -0.282453
O1    O     O_2   0.913240 0.537010 0.617740 -0.452732
O2    O     O_2   0.239617 0.749642 0.456241 -0.487781
O3    O     O_3   0.082543 0.734759 0.369364 -0.615418
O4    O     O_3   0.145240 0.536960 0.557560 -0.490310
O5    O     O_3   0.557280 0.416300 0.475860 -0.478275
O6    O     O_2   0.376710 0.670070 0.522470 -0.470425
O7    O     O_3   0.572865 0.691087 0.602774 -0.651971
O8    O     O_2   0.360853 0.568136 0.323669 -0.503625
O9    O     O_3   0.566229 0.666870 0.327668 -0.634946
O10   O     O_2   0.069032 0.404141 0.204772 -0.604878
O11   O     O_2   0.427703 0.409127 0.810867 -0.649221
O12   O     O_3   0.623317 0.319257 0.398570 -0.651468
O13   O     O_2   0.809704 0.620759 0.195657 -0.621678
O14   O     O_2   0.163427 0.624144 0.797585 -0.619198
O15   O     O_3   0.669960 0.410470 0.588880 -0.446483
O16   O     O_2   0.803510 0.456814 0.675882 -0.518809
O17   O     O_3   0.065484 0.649437 0.622012 -0.633944
O18   O     O_3   0.727723 0.325417 0.672096 -0.593411
O19   O     O_2   0.812980 0.329910 0.477500 -0.481386
O20   O     O_3   0.078660 0.374870 0.564770 -0.486046
O21   O     O_2   0.957813 0.250369 0.545285 -0.472253
O22   O     O_3   0.101947 0.272609 0.634361 -0.593167
O23   O     O_2   0.276450 0.462960 0.382230 -0.470555
O24   O     O_3   0.044470 0.462980 0.442430 -0.487656
O25   O     O_3   0.519740 0.589470 0.411120 -0.472596
O26   O     O_3   0.124443 0.350571 0.376920 -0.636730
O27   O     O_3   0.632420 0.583650 0.524140 -0.465907
O28   O     O_3   0.111040 0.625070 0.435230 -0.480530
P1    P     P_3+3 0.082480 0.557670 0.610090 0.987435
P2    P     P_3+3 0.635220 0.340300 0.462910 0.977402
P3    P     P_3+3 0.108747 0.283884 0.570302 0.966032
P4    P     P_3+3 0.107220 0.442270 0.389900 0.994012
P5    P     P_3+3 0.086255 0.717098 0.432207 0.946682
P6    P     P_3+3 0.666841 0.411281 0.654063 0.954196
P7    P     P_3+3 0.561240 0.671628 0.538161 0.946148
P8    P     P_3+3 0.531716 0.583069 0.346152 0.950674

loop_
_geom_bond_atom_site_label_1
_geom_bond_atom_site_label_2
_ccdc_geom_bond_type
Ba1   O24   S    
C26   O14   D    
C45   H20   S    
C64   H62   S    
C53   C54   A    
O20   P3    S    
C84   H94   S    
C75   H80   S    
C10   C89   A    
C74   H68   S    
C72   H72   S    
C78   C82   S    
O12   P2    S    
C18   C19   A    
C72   H74   S    
C79   C80   S    
C39   H37   S    
C52   O17   S    
C85   H91   S    
C88   H98   S    
C75   C76   S    
C45   H21   S    
C69   H66   S    
C64   H84   S    
C80   H87   S    
C24   C25   A    
C78   C83   S    
C64   H73   S    
O23   P4    D    
O8    P8    D    
C77   H76   S    
C41   H38   S    
C17   C19   A    
O7    P7    S    
C32   C33   S    
C35   C38   A    
C14   H44   S    
C34   C75   S    
C59   H52   S    
C62   H46   S    
C36   C37   A    
C68   H10   S    
O5    P2    S    
C55   C57   A    
C92   H4    S    
C1    H9    S    
C54   C63   S    
C87   H101  S    
C44   C50   A    
C28   H58   S    
C56   H24   S    
C7    H30   S    
C70   H64   S    
C54   C55   A    
O15   P6    S    
Ba1   O19   S    
Ba1   Ba2   S    
C86   H104  S    
C53   C86   S    
C1    C72   S    
C40   H18   S    
C22   C27   A    
C40   C69   S    
C11   C38   A    
C73   C74   S    
O21   P3    D    
Ba2   O27   S    
C9    C13   A    
C25   C42   A    
Ba2   P4    S    
C6    C7    D    
C71   H60   S    
C50   P3    S    
C76   H79   S    
C21   C22   A    
Ba2   O4    S    
C49   H53   S    
C17   C35   A    
C7    C8    S    
C91   H5    S    
C2    N1    Am   
O26   P4    S    
C23   H15   S    
C37   C43   A    
C11   H31   S    
C42   H41   S    
C57   C58   A    
C75   H81   S    
C2    O13   D    
C81   H82   S    
C56   H22   S    
C12   O18   S    
C74   H67   S    
C15   C31   D    
C79   H88   S    
C16   H19   S    
C76   H78   S    
C51   C58   A    
C40   H29   S    
C48   C49   A    
C85   H92   S    
C4    O22   S    
C78   H27   S    
C51   C53   A    
C4    C16   S    
C44   C46   A    
C27   N2    Am   
C72   C73   S    
C55   H49   S    
C49   C50   A    
C28   O26   S    
O3    P5    S    
C17   C20   A    
C13   C39   A    
C70   C71   S    
C15   H45   S    
C68   H12   S    
C85   H90   S    
C3    C5    S    
C18   C37   A    
C81   H83   S    
C76   C77   S    
C33   N2    S    
C92   H3    S    
C83   H96   S    
C83   C84   S    
O25   P8    S    
O2    P5    D    
C67   H25   S    
C56   H23   S    
C70   H63   S    
Ba1   O20   S    
C86   H103  S    
C9    C36   A    
O22   P3    S    
C61   C65   A    
C1    C79   S    
C35   C36   A    
Ba2   O25   S    
C59   C63   A    
Ba1   P1    S    
C27   O11   D    
C29   C30   S    
C88   H100  S    
C5    P8    S    
C32   H42   S    
C47   H48   S    
C71   H61   S    
C34   H17   S    
C43   H43   S    
C31   C32   D    
O9    P8    S    
O28   P5    S    
C73   H71   S    
C91   C92   S    
C26   N2    Am   
C10   C11   A    
C23   O7    S    
Ba1   O4    S    
C91   H6    S    
C1    C12   S    
C90   H7    S    
C52   H51   S    
C67   O9    S    
C89   N1    Am   
C60   C65   A    
C66   C68   S    
C46   C47   A    
C57   H50   S    
C80   C81   S    
C41   C42   A    
C34   H16   S    
C45   O3    S    
C29   C33   D    
Ba2   O6    S    
C79   H89   S    
O27   P7    S    
Ba1   O1    S    
C12   H1    S    
C92   H105  S    
C18   C41   A    
C66   O12   S    
Ba2   O24   S    
C21   H33   S    
C30   P6    S    
C82   N3    T    
C12   H13   S    
C3    H36   S    
C39   C43   A    
C60   P5    S    
C65   H54   S    
O4    P1    S    
C84   C85   S    
C4    H39   S    
O18   P6    S    
C5    C14   S    
C22   C24   A    
O17   P1    S    
C89   O10   D    
C74   H69   S    
C68   H11   S    
C8    N1    S    
O6    P7    D    
C61   P7    S    
C77   H77   S    
C9    C10   A    
C52   C64   S    
C90   H8    S    
C83   H97   S    
C38   H35   S    
C69   H65   S    
C66   H2    S    
C67   H26   S    
O24   P4    S    
C81   H85   S    
C48   C58   S    
C62   C63   A    
C77   H75   S    
C2    C13   A    
C16   C90   S    
C3    C8    D    
C16   H56   S    
C45   C56   S    
O1    P1    D    
C87   H102  S    
Ba1   P2    S    
C28   H57   S    
C88   H99   S    
C66   H95   S    
C19   C24   A    
O19   P2    D    
C90   C91   S    
C51   H47   S    
C73   H70   S    
C59   C60   A    
Ba1   O5    S    
Ba2   O28   S    
C23   C34   S    
O16   P6    D    
C61   C62   A    
C46   P2    S    
Ba1   O27   S    
C84   H93   S    
C44   H55   S    
C69   C70   S    
C86   C87   S    
C23   H14   S    
C6    C14   D    
C47   C48   A    
C71   H59   S    
C20   H34   S    
C15   C30   S    
C4    H28   S    
C20   C21   A    
C28   C40   S    
C67   C78   S    
Ba1   O15   S    
Ba2   O5    S    
C80   H86   S    
C29   H32   S    
C87   C88   S    
C31   P1    S    
Ba2   O23   S    
C6    P4    S    
C25   C26   A    
C52   H40   S    
