data_mof_unit_14206.cif
_audit_creation_date              2012-10-26T19:57:14-0400
_audit_creation_method            fapswitch 2.2
_symmetry_space_group_name_H-M    P1
_symmetry_Int_Tables_number       1
_space_group_crystal_system       triclinic
_cell_length_a                    13.116733
_cell_length_b                    10.923106
_cell_length_c                    9.695094
_cell_angle_alpha                 89.043924
_cell_angle_beta                  96.27714
_cell_angle_gamma                 90.842972
_cell_volume                      1380.43285664

loop_
_atom_site_label
_atom_site_type_symbol
_atom_type_description
_atom_site_fract_x
_atom_site_fract_y
_atom_site_fract_z
_atom_type_partial_charge
C1    C     C_R   0.498067 0.265283 0.500548 0.555777
C2    C     C_2   0.491819 0.133067 0.502664 -0.122060
C3    C     C_2   0.448054 0.420389 0.918976 0.099150
C4    C     C_R   0.299694 0.502591 0.474548 0.534358
C5    C     C_2   0.432890 0.441786 0.068981 -0.012444
C6    C     C_R   0.501045 0.734632 0.499472 0.552548
C7    C     C_R   0.698569 0.502477 0.526019 0.556048
C8    C     C_R   0.809310 0.513306 0.541529 0.007820
C9    C     C_R   0.184948 0.505679 0.462436 -0.000804
C10   C     C_R   0.020276 0.450688 0.336352 -0.115660
C11   C     C_R   0.125984 0.466873 0.336888 -0.007647
C12   C     C_R   0.023631 0.541007 0.564362 0.054716
C13   C     C_R   0.132408 0.543370 0.578454 -0.003442
C14   C     C_3   0.406381 0.300830 0.854971 -0.230602
C15   C     C_3   0.344187 0.218033 0.944567 -0.505350
C16   C     C_3   0.174931 0.439931 0.204646 -0.263879
C17   C     C_3   0.102267 0.412597 0.073514 -0.472219
C18   C     C_3   0.189430 0.582884 0.718182 -0.249562
C19   C     C_3   0.235291 0.711816 0.709505 -0.404340
C20   C     C_R   0.969822 0.486451 0.446724 0.012516
C21   C     C_R   0.863779 0.471237 0.437082 -0.132079
C22   C     C_R   0.860028 0.574901 0.654191 -0.139894
C23   C     C_R   0.965561 0.591457 0.664054 -0.136456
C24   C     C_2   0.491948 0.934591 0.385252 -0.162454
C25   C     C_2   0.505896 0.866643 0.501594 -0.122103
C26   C     C_2   0.496475 0.068651 0.386837 -0.158972
Cu1   Cu    Cu3+1 0.500020 0.500020 0.638640 0.906417
Cu2   Cu    Cu3+1 0.499980 0.499980 0.361360 0.920012
H1    H     H_    0.480802 0.090391 0.601543 0.089759
H2    H     H_    0.823190 0.427227 0.347237 0.118348
H3    H     H_    0.390602 0.191925 0.043168 0.150244
H4    H     H_    0.272991 0.263642 0.966426 0.139021
H5    H     H_    0.321766 0.132739 0.887540 0.140265
H6    H     H_    0.356476 0.320359 0.757702 0.188602
H7    H     H_    0.473021 0.245346 0.834343 0.174707
H8    H     H_    0.062180 0.323239 0.084251 0.151142
H9    H     H_    0.045888 0.487202 0.051228 0.152532
H10   H     H_    0.146999 0.407434 0.983185 0.125286
H11   H     H_    0.219639 0.522230 0.177225 0.173889
H12   H     H_    0.521984 0.579317 0.894734 0.199456
H13   H     H_    0.226241 0.360248 0.225532 0.155297
H14   H     H_    0.286123 0.719971 0.625571 0.178512
H15   H     H_    0.172812 0.779377 0.688812 0.134241
H16   H     H_    0.280713 0.734112 0.809594 0.132930
H17   H     H_    0.141301 0.580489 0.804498 0.109027
H18   H     H_    0.246131 0.515135 0.761803 0.173065
H19   H     H_    0.502689 0.115126 0.288099 0.146832
H20   H     H_    0.369004 0.398763 0.112440 0.141568
H21   H     H_    0.564370 0.530490 0.114055 0.208800
H22   H     H_    0.817653 0.614060 0.732259 0.125279
H23   H     H_    0.974506 0.412172 0.247698 0.116214
H24   H     H_    0.998238 0.648269 0.747819 0.106865
H25   H     H_    0.478704 0.891268 0.284698 0.146999
H26   H     H_    0.522909 0.906636 0.602983 0.100485
N1    N     N_2   0.498860 0.498660 0.846770 -0.349224
N2    N     N_2   0.498840 0.498630 0.152900 -0.365163
O1    O     O_R   0.500020 0.321960 0.617050 -0.516833
O2    O     O_R   0.499980 0.321920 0.382890 -0.489409
O3    O     O_R   0.349010 0.500000 0.598060 -0.515264
O4    O     O_R   0.348980 0.499950 0.363910 -0.512924
O5    O     O_R   0.500020 0.678080 0.617110 -0.509221
O6    O     O_R   0.499980 0.678040 0.382950 -0.486472
O7    O     O_R   0.651020 0.500050 0.636090 -0.492082
O8    O     O_R   0.650990 0.500000 0.401940 -0.502169

loop_
_geom_bond_atom_site_label_1
_geom_bond_atom_site_label_2
_ccdc_geom_bond_type
C14   H6    S    
C8    C22   A    
C15   H3    S    
C17   H8    S    
Cu2   O2    S    
C24   H25   S    
H21   N2    S    
C4    O3    A    
C21   H2    S    
C5    N2    D    
C19   H14   S    
C6    O6    A    
C22   H22   S    
H12   N1    S    
C15   H4    S    
C4    O4    A    
C8    C21   A    
Cu2   N2    S    
C7    C8    S    
C2    C26   D    
Cu1   O3    S    
C1    O2    A    
C12   C13   A    
C9    C11   A    
C12   C23   A    
C7    O7    A    
C23   H24   S    
C3    C14   S    
Cu1   O7    S    
C12   C20   A    
C2    H1    S    
C10   H23   S    
C26   H19   S    
C6    O5    A    
C19   H15   S    
C1    C2    S    
C1    O1    A    
C17   H10   S    
Cu2   O4    S    
C19   H16   S    
Cu1   O1    S    
C5    H20   S    
Cu1   N1    S    
C7    O8    A    
C13   C18   S    
C6    C25   S    
C10   C11   A    
C16   H11   S    
C18   H17   S    
C18   H18   S    
Cu1   Cu2   S    
C24   C25   D    
Cu2   O8    S    
C20   C21   A    
C18   C19   S    
C11   C16   S    
C10   C20   A    
C14   H7    S    
C25   H26   S    
C9    C13   A    
C14   C15   S    
C17   H9    S    
Cu1   O5    S    
C4    C9    S    
C22   C23   A    
C3    N1    D    
C16   H13   S    
C15   H5    S    
C24   C26   S    
C16   C17   S    
C3    C5    S    
Cu2   O6    S    
