data_mof_unit_37704.cif
_audit_creation_date              2012-12-10T17:19:52-0500
_audit_creation_method            fapswitch 2.2
_symmetry_space_group_name_H-M    P1
_symmetry_Int_Tables_number       1
_space_group_crystal_system       triclinic
_cell_length_a                    9.616805
_cell_length_b                    10.768685
_cell_length_c                    15.480165
_cell_angle_alpha                 87.751137
_cell_angle_beta                  74.064338
_cell_angle_gamma                 89.708235
_cell_volume                      1540.30966091

loop_
_atom_site_label
_atom_site_type_symbol
_atom_type_description
_atom_site_fract_x
_atom_site_fract_y
_atom_site_fract_z
_atom_type_partial_charge
C1    C     C_R   0.000946 0.263039 0.498858 0.795430
C2    C     C_R   0.677631 0.524858 0.908835 0.075056
C3    C     C_R   0.777836 0.496268 0.958863 0.163050
C4    C     C_R   0.530211 0.547972 0.954592 0.064290
C5    C     C_R   0.482325 0.528258 0.049605 0.065651
C6    C     C_R   0.586500 0.502731 0.097067 -0.218507
C7    C     C_R   0.731402 0.487926 0.052315 -0.233392
C8    C     C_R   0.429646 0.591838 0.908818 -0.216936
C9    C     C_R   0.285175 0.608987 0.953969 -0.238050
C10   C     C_R   0.234747 0.580561 0.045737 0.163341
C11   C     C_R   0.332119 0.537464 0.094190 0.088098
C12   C     C_R   0.918052 0.499527 0.672101 0.844390
C13   C     C_R   0.087544 0.595329 0.089795 -0.221496
C14   C     C_R   0.035027 0.565945 0.181421 -0.209685
C15   C     C_R   0.275199 0.503394 0.185578 -0.260458
C16   C     C_R   0.120702 0.135796 0.332854 -0.160749
C17   C     C_R   0.174517 0.073579 0.253295 -0.133023
C18   C     C_R   0.168668 0.944410 0.254012 -0.138925
C19   C     C_R   0.109906 0.876809 0.334380 -0.192313
C20   C     C_R   0.056665 0.937853 0.416183 0.081736
C21   C     C_R   0.060861 0.068935 0.415004 0.104708
C22   C     C_R   0.003322 0.129588 0.495976 -0.113111
C23   C     C_R   0.998899 0.737080 0.501132 0.828321
C24   C     C_R   0.944106 0.063136 0.576480 -0.244835
C25   C     C_R   0.939661 0.934157 0.579370 -0.015416
C26   C     C_R   0.997635 0.871354 0.498867 -0.168912
C27   C     C_R   0.696921 0.662615 0.379684 -0.147463
C28   C     C_R   0.651191 0.741952 0.320297 -0.213827
C29   C     C_R   0.507810 0.742983 0.320534 -0.198799
C30   C     C_R   0.409429 0.664528 0.380046 -0.138664
C31   C     C_R   0.451262 0.580542 0.441004 0.206707
C32   C     C_R   0.600730 0.580088 0.440896 0.211625
C33   C     C_R   0.549352 0.423750 0.556279 -0.050913
C34   C     C_R   0.082061 0.503215 0.327974 0.744155
C35   C     C_R   0.401617 0.423744 0.556229 -0.059942
C36   C     C_R   0.872674 0.501388 0.770738 -0.039908
C37   C     C_R   0.129115 0.520523 0.229785 -0.044208
C38   C     C_R   0.923710 0.474953 0.914781 -0.207951
C39   C     C_R   0.971184 0.478759 0.821285 -0.197121
C40   C     C_R   0.727503 0.524297 0.814569 -0.206637
Cu1   Cu    Cu3+1 0.140660 0.499990 0.500010 0.939919
Cu2   Cu    Cu3+1 0.859340 0.500010 0.499990 0.958340
H1    H     H_    0.807218 0.467420 0.091308 0.151347
H2    H     H_    0.013394 0.631313 0.053529 0.143219
H3    H     H_    0.899596 0.113092 0.637413 0.169604
H4    H     H_    0.126055 0.236215 0.329417 0.126953
H5    H     H_    0.220067 0.125852 0.190791 0.140868
H6    H     H_    0.209357 0.896322 0.192042 0.144088
H7    H     H_    0.105501 0.776815 0.331536 0.106372
H8    H     H_    0.584224 0.361127 0.602474 0.137894
H9    H     H_    0.808784 0.670154 0.374610 0.192666
H10   H     H_    0.727790 0.803541 0.274048 0.158596
H11   H     H_    0.342269 0.461881 0.224110 0.155528
H12   H     H_    0.472038 0.805490 0.274517 0.162102
H13   H     H_    0.302272 0.674337 0.375162 0.197413
H14   H     H_    0.326471 0.361175 0.602376 0.138397
H15   H     H_    0.921922 0.581182 0.214554 0.154217
H16   H     H_    0.211995 0.643468 0.916427 0.155229
H17   H     H_    0.000765 0.453261 0.952650 0.145422
H18   H     H_    0.083969 0.460832 0.788710 0.155975
H19   H     H_    0.654254 0.537631 0.773558 0.165280
H20   H     H_    0.560368 0.497040 0.169403 0.152044
H21   H     H_    0.459950 0.617929 0.838212 0.158374
N1    N     N_R   0.648320 0.501210 0.499140 -0.196992
N2    N     N_R   0.352470 0.501290 0.499110 -0.198513
O1    O     O_R   0.118810 0.319640 0.500010 -0.574025
O2    O     O_R   0.881240 0.319660 0.500000 -0.574981
O3    O     O_R   0.055570 0.499980 0.629840 -0.586834
O4    O     O_R   0.818000 0.500010 0.629830 -0.564087
O5    O     O_R   0.118760 0.680340 0.500000 -0.597538
O6    O     O_R   0.881190 0.680360 0.499990 -0.563077
O7    O     O_R   0.182000 0.499990 0.370170 -0.605990
O8    O     O_R   0.944430 0.500020 0.370160 -0.601346
C41   C     C_2   0.873839 0.869455 0.667855 0.824954
O9    O     O_2   0.807600 0.771861 0.672438 -0.604310
O10   O     O_R   0.883505 0.923146 0.746847 -0.767459
H22   H     H_    0.833854 0.871217 0.802799 0.335037

loop_
_geom_bond_atom_site_label_1
_geom_bond_atom_site_label_2
_ccdc_geom_bond_type
C12   O4    A    
C16   C21   A    
Cu2   N1    S    
C34   C37   S    
Cu1   Cu2   S    
C19   C20   A    
C4    C8    A    
C12   O3    A    
C41   O10   S    
C24   H3    S    
C15   H11   S    
C28   C29   A    
C5    C11   A    
C3    C7    A    
C38   C39   A    
C16   C17   A    
C29   H12   S    
C35   N2    A    
C9    H16   S    
C23   C26   S    
C15   C37   A    
C1    O2    A    
C11   C15   A    
C3    C38   A    
C8    C9    A    
C7    H1    S    
C12   C36   S    
C9    C10   A    
C27   C32   A    
C1    C22   S    
C21   C22   A    
C23   O5    A    
C27   H9    S    
C17   C18   A    
Cu1   O3    S    
C25   C41   S    
C41   O9    D    
C23   O6    A    
C36   C40   A    
C24   C25   A    
C32   N1    A    
C16   H4    S    
C18   C19   A    
Cu1   N2    S    
C34   O8    A    
C33   H8    S    
Cu2   O4    S    
C40   H19   S    
C2    C4    A    
C29   C30   A    
C19   H7    S    
C31   C32   A    
C30   C31   A    
C1    O1    A    
O10   H22   S    
Cu1   O1    S    
Cu1   O7    S    
Cu2   O2    S    
C22   C24   A    
C34   O7    A    
C31   N2    A    
C14   H15   S    
Cu2   O8    S    
C35   H14   S    
C36   C39   A    
C17   H5    S    
C4    C5    A    
C10   C13   A    
C18   H6    S    
C6    C7    A    
C30   H13   S    
C6    H20   S    
C2    C3    A    
C25   C26   A    
C14   C37   A    
C28   H10   S    
C5    C6    A    
C20   C26   A    
C33   N1    A    
C39   H18   S    
Cu2   O6    S    
C33   C35   A    
C10   C11   A    
C8    H21   S    
C38   H17   S    
C2    C40   A    
C20   C21   A    
C27   C28   A    
C13   C14   A    
C13   H2    S    
Cu1   O5    S    
