data_mof_unit_20856.cif
_audit_creation_date              2012-12-10T18:42:28-0500
_audit_creation_method            fapswitch 2.2
_symmetry_space_group_name_H-M    P1
_symmetry_Int_Tables_number       1
_space_group_crystal_system       triclinic
_cell_length_a                    8.590176
_cell_length_b                    10.648307
_cell_length_c                    9.865607
_cell_angle_alpha                 90.232379
_cell_angle_beta                  98.564092
_cell_angle_gamma                 90.208091
_cell_volume                      892.337728311

loop_
_atom_site_label
_atom_site_type_symbol
_atom_type_description
_atom_site_fract_x
_atom_site_fract_y
_atom_site_fract_z
_atom_type_partial_charge
C1    C     C_R   0.504268 0.260321 0.500142 0.873768
C2    C     C_R   0.495733 0.739679 0.499858 0.873772
C3    C     C_R   0.201185 0.499968 0.464151 0.941281
C4    C     C_R   0.798815 0.500032 0.535848 0.941281
C5    C     C_2   0.036078 0.500209 0.444867 -0.356274
C6    C     C_2   0.963922 0.499791 0.555133 -0.356272
C7    C     C_R   0.398641 0.066823 0.402350 -0.204838
C8    C     C_R   0.601361 0.933177 0.597650 -0.204839
C9    C     C_R   0.386912 0.938188 0.403247 0.467904
C10   C     C_R   0.613091 0.061812 0.596753 0.467904
C11   C     C_R   0.491709 0.872096 0.500770 -0.228351
C12   C     C_R   0.508292 0.127904 0.499230 -0.228352
C13   C     C_R   0.598631 0.578478 0.085630 0.539740
C14   C     C_R   0.401369 0.421522 0.914370 0.539738
C15   C     C_R   0.597985 0.577975 0.940861 -0.286674
C16   C     C_R   0.402015 0.422024 0.059139 -0.286674
H1    H     H_    0.974351 0.500801 0.340229 0.201183
H2    H     H_    0.025649 0.499199 0.659771 0.201183
H3    H     H_    0.317629 0.119689 0.329269 0.182780
H4    H     H_    0.682373 0.880311 0.670730 0.182780
H5    H     H_    0.675773 0.639929 0.895415 0.158793
H6    H     H_    0.324227 0.360071 0.104585 0.158793
N1    N     N_R   0.499960 0.499970 0.857200 -0.102019
N2    N     N_R   0.500040 0.500030 0.142800 -0.102019
O1    O     O_R   0.499990 0.316750 0.614620 -0.553613
O2    O     O_R   0.500010 0.683250 0.385380 -0.553607
O3    O     O_R   0.499990 0.316780 0.385290 -0.627129
O4    O     O_R   0.500010 0.683220 0.614710 -0.627131
O5    O     O_R   0.271750 0.499990 0.587840 -0.568028
O6    O     O_R   0.728250 0.500010 0.412160 -0.568029
O7    O     O_R   0.271750 0.500010 0.358510 -0.635718
O8    O     O_R   0.728250 0.499990 0.641490 -0.635720
Zn1   Zn    Zn3+2 0.500000 0.499980 0.653120 1.011403
Zn2   Zn    Zn3+2 0.500000 0.500020 0.346880 1.011405
O9    O     O_3   0.270539 0.882120 0.310621 -0.741172
H7    H     H_    0.247795 0.797171 0.343123 0.332786
O10   O     O_3   0.729468 0.117879 0.689377 -0.741172
H8    H     H_    0.752200 0.202833 0.656881 0.332788
O11   O     O_3   0.697318 0.657030 0.170645 -0.724661
H9    H     H_    0.760937 0.707133 0.114290 0.318835
O12   O     O_3   0.302682 0.342970 0.829355 -0.724661
H10   H     H_    0.239063 0.292867 0.885710 0.318836

loop_
_geom_bond_atom_site_label_1
_geom_bond_atom_site_label_2
_ccdc_geom_bond_type
C14   N1    A    
C3    O7    A    
C7    C9    A    
O10   H8    S    
C2    O4    A    
O12   H10   S    
O9    H7    S    
C13   C15   A    
C1    O3    A    
O8    Zn1   S    
C15   N1    A    
O7    Zn2   S    
C16   N2    A    
C8    H4    S    
C1    O1    A    
C9    C11   A    
C4    O8    A    
C1    C12   S    
C10   C12   A    
C10   O10   S    
C2    C11   S    
C4    C6    S    
O4    Zn1   S    
C7    H3    S    
C8    C11   A    
O3    Zn2   S    
C5    C6    D    
C6    H2    S    
C14   O12   S    
C14   C16   A    
C7    C12   A    
C13   O11   S    
C5    H1    S    
O6    Zn2   S    
C9    O9    S    
O5    Zn1   S    
C15   H5    S    
C2    O2    A    
O11   H9    S    
C3    O5    A    
C16   H6    S    
C3    C5    S    
O2    Zn2   S    
C8    C10   A    
C4    O6    A    
C13   N2    A    
O1    Zn1   S    
N1    Zn1   S    
N2    Zn2   S    
