data_mof_unit_29393.cif
_audit_creation_date              2013-03-05T16:23:18-0500
_audit_creation_method            fapswitch 2.2
_symmetry_space_group_name_H-M    P1
_symmetry_Int_Tables_number       1
_space_group_crystal_system       triclinic
_cell_length_a                    27.650034
_cell_length_b                    10.712636
_cell_length_c                    9.868823
_cell_angle_alpha                 92.162535
_cell_angle_beta                  89.458491
_cell_angle_gamma                 93.283519
_cell_volume                      2916.23701889

loop_
_atom_site_label
_atom_site_type_symbol
_atom_site_description
_atom_site_fract_x
_atom_site_fract_y
_atom_site_fract_z
_atom_type_partial_charge
O1    O     O_R   0.500000 0.313960 0.616610 -0.507717
O2    O     O_R   0.500000 0.686040 0.383390 -0.507889
O3    O     O_R   0.500020 0.313950 0.383350 -0.606146
O4    O     O_R   0.499980 0.686050 0.616650 -0.605875
C1    C     C_R   0.500091 0.257741 0.497868 0.972061
C2    C     C_R   0.499883 0.742253 0.502133 0.972176
O5    O     O_R   0.428750 0.500030 0.616610 -0.579701
O6    O     O_R   0.571250 0.499970 0.383390 -0.581369
O7    O     O_R   0.428770 0.500020 0.383360 -0.627923
O8    O     O_R   0.571230 0.499980 0.616640 -0.620035
C3    C     C_R   0.406151 0.496920 0.500034 0.925724
C4    C     C_R   0.593785 0.503713 0.499567 0.925580
Zn1   Zn    Zn3+2 0.499990 0.500010 0.655740 1.087684
Zn2   Zn    Zn3+2 0.500010 0.499990 0.344260 1.084913
C5    C     C_R   0.171027 0.355817 0.487025 0.682595
C6    C     C_R   0.828407 0.655914 0.488838 0.689541
O9    O     O_2   0.190904 0.244691 0.465543 -0.428266
O10   O     O_2   0.808505 0.764353 0.462588 -0.423132
N1    N     N_R   0.200673 0.461717 0.496225 -0.337237
N2    N     N_R   0.798852 0.550920 0.502369 -0.337650
C7    C     C_R   0.183286 0.577741 0.511725 0.645693
C8    C     C_R   0.816342 0.437077 0.523250 0.641157
C9    C     C_R   0.277926 0.479884 0.372128 0.320621
C10   C     C_R   0.723038 0.517458 0.375879 0.315503
C11   C     C_R   0.328371 0.494821 0.376636 -0.240559
C12   C     C_R   0.672663 0.498983 0.378887 -0.148266
C13   C     C_R   0.327302 0.452849 0.615822 -0.188239
C14   C     C_R   0.670873 0.564979 0.616058 -0.251959
C15   C     C_R   0.276874 0.437337 0.615283 0.305004
C16   C     C_R   0.721200 0.584084 0.617197 0.323041
C17   C     C_R   0.252015 0.453141 0.492974 0.056373
C18   C     C_R   0.747505 0.557956 0.496577 0.050463
C19   C     C_R   0.101330 0.483867 0.507518 -0.102370
C20   C     C_R   0.898210 0.530663 0.512337 -0.102463
C21   C     C_R   0.120382 0.363714 0.496839 -0.131682
C22   C     C_R   0.879036 0.649460 0.498824 -0.132592
C23   C     C_R   0.088207 0.256478 0.492865 0.342935
C24   C     C_R   0.911066 0.756501 0.491963 0.341424
C25   C     C_R   0.133143 0.592192 0.516531 -0.124749
C26   C     C_R   0.866494 0.423266 0.526218 -0.124230
C27   C     C_R   0.353143 0.483317 0.498215 -0.149654
C28   C     C_R   0.646613 0.520710 0.498617 -0.139869
H1    H     H_    0.346309 0.443327 0.709322 0.250128
H2    H     H_    0.650657 0.582896 0.708338 0.206067
C29   C     C_R   0.968000 0.399596 0.520734 0.028136
C30   C     C_R   0.031599 0.616140 0.515558 0.027990
C31   C     C_R   0.980853 0.627389 0.506457 0.032006
C32   C     C_R   0.018657 0.387372 0.508552 0.031685
C33   C     C_R   0.949129 0.519230 0.513020 0.093547
C34   C     C_R   0.050424 0.495797 0.510338 0.093425
C35   C     C_R   0.935586 0.295843 0.542982 -0.223213
C36   C     C_R   0.064164 0.721661 0.532365 -0.223979
C37   C     C_R   0.885853 0.306403 0.545081 0.331769
C38   C     C_R   0.113900 0.710859 0.532660 0.330479
O11   O     O_2   0.784669 0.338361 0.541025 -0.453248
O12   O     O_2   0.215047 0.677982 0.522629 -0.450220
C39   C     C_R   0.038516 0.269473 0.494780 -0.236242
C40   C     C_R   0.960819 0.743983 0.491738 -0.236079
H3    H     H_    0.653729 0.466172 0.287651 0.226808
H4    H     H_    0.348340 0.516122 0.284612 0.231098
H5    H     H_    0.947695 0.204562 0.563157 0.187573
H6    H     H_    0.052206 0.814874 0.550150 0.189064
H7    H     H_    0.016182 0.183902 0.485308 0.187292
H8    H     H_    0.983018 0.828887 0.480230 0.187450
C41   C     C_3   0.506887 0.049651 0.623457 0.512135
C42   C     C_3   0.493035 0.950329 0.376545 0.511608
C43   C     C_3   0.543623 0.966918 0.548170 -0.459450
C44   C     C_3   0.456305 0.033070 0.451851 -0.460929
H9    H     H_    0.579206 0.939610 0.584596 0.199089
H10   H     H_    0.420698 0.060320 0.415559 0.198167
C45   C     C_3   0.499895 0.877455 0.505426 -0.255235
C46   C     C_3   0.500037 0.122528 0.494578 -0.254357
C47   C     C_3   0.464173 0.960418 0.580778 0.261721
C48   C     C_3   0.535755 0.039557 0.419218 0.263676
C49   C     C_3   0.490648 0.389277 0.043290 0.355649
C50   C     C_3   0.509383 0.610777 0.956937 0.356058
C51   C     C_3   0.532507 0.429216 0.948707 0.377771
C52   C     C_3   0.467537 0.570766 0.051443 0.379261
N3    N     N_3   0.499960 0.500030 0.863290 -0.204156
N4    N     N_3   0.500040 0.499970 0.136710 -0.204874
C53   C     C_3   0.458604 0.459599 0.951614 0.056548
C54   C     C_3   0.541472 0.540401 0.048704 0.046962
O13   O     O_3   0.511788 0.113003 0.750775 -0.521096
C55   C     C_3   0.529515 0.032307 0.844095 -0.172662
H11   H     H_    0.567994 0.014477 0.821712 0.146351
H12   H     H_    0.506405 0.944616 0.846545 0.193610
H13   H     H_    0.528256 0.078302 0.945713 0.197806
O14   O     O_3   0.488113 0.886979 0.249223 -0.521401
C56   C     C_3   0.470107 0.967452 0.156105 -0.173044
H14   H     H_    0.493107 0.055300 0.153388 0.193440
H15   H     H_    0.431634 0.985013 0.178943 0.145426
H16   H     H_    0.471261 0.921442 0.054474 0.198379
N5    N     N_R   0.425141 0.919076 0.671764 0.220268
O15   O     O_R   0.400863 0.001572 0.739271 -0.301864
O16   O     O_R   0.411619 0.801130 0.677235 -0.397429
N6    N     N_R   0.574777 0.080908 0.328197 0.221250
O17   O     O_R   0.598984 0.998417 0.260461 -0.301518
O18   O     O_R   0.588390 0.198819 0.323005 -0.406522
O19   O     O_3   0.566372 0.353036 0.883324 -0.548813
C57   C     C_3   0.592921 0.291641 0.979607 -0.072672
H17   H     H_    0.569739 0.248408 0.059426 0.185058
H18   H     H_    0.621182 0.355409 0.027228 0.214486
H19   H     H_    0.611895 0.215473 0.926297 0.187238
O20   O     O_3   0.433654 0.646837 0.116876 -0.556649
C58   C     C_3   0.406775 0.707138 0.020490 -0.081250
H20   H     H_    0.379006 0.642201 0.972281 0.216897
H21   H     H_    0.429845 0.751511 0.941136 0.188374
H22   H     H_    0.387218 0.782276 0.073779 0.187442
O21   O     O_3   0.480772 0.269975 0.095615 -0.622723
C59   C     C_3   0.432764 0.259100 0.146260 -0.122237
H23   H     H_    0.408903 0.210122 0.069048 0.223438
H24   H     H_    0.417670 0.349464 0.179130 0.184000
H25   H     H_    0.431822 0.201598 0.236853 0.132880
O22   O     O_3   0.519106 0.730237 0.904952 -0.622358
C60   C     C_3   0.567222 0.741621 0.855453 -0.126100
H26   H     H_    0.582377 0.651322 0.823305 0.176316
H27   H     H_    0.590834 0.790647 0.933234 0.225700
H28   H     H_    0.568358 0.798827 0.764610 0.133892
N7    N     N_R   0.413871 0.403055 0.893911 0.206148
O23   O     O_R   0.373015 0.418166 0.957001 -0.390121
O24   O     O_R   0.416508 0.310037 0.806096 -0.305059
N8    N     N_R   0.586190 0.596282 0.107885 0.214988
O25   O     O_R   0.627513 0.578416 0.048505 -0.380702
O26   O     O_R   0.583610 0.688967 0.196113 -0.292438
N9    N     N_R   0.251703 0.408260 0.739926 0.249480
O27   O     O_R   0.273168 0.349032 0.832889 -0.242478
O28   O     O_R   0.208915 0.447960 0.766356 -0.325797
N10   N     N_R   0.744695 0.626796 0.741999 0.252262
O29   O     O_R   0.720642 0.686792 0.835229 -0.286469
O30   O     O_R   0.788796 0.599504 0.768204 -0.320339
N11   N     N_R   0.104789 0.132606 0.496833 0.251667
O31   O     O_R   0.126754 0.100079 0.604867 -0.250726
O32   O     O_R   0.087281 0.046030 0.411992 -0.341148
N12   N     N_R   0.894220 0.880444 0.496555 0.251741
O33   O     O_R   0.871052 0.919073 0.604053 -0.248643
O34   O     O_R   0.912070 0.962131 0.412597 -0.338121
N13   N     N_R   0.748922 0.490246 0.251595 0.249780
O35   O     O_R   0.728762 0.417136 0.157314 -0.294223
O36   O     O_R   0.790981 0.545672 0.226642 -0.313904
N14   N     N_R   0.253547 0.496005 0.245847 0.246229
O37   O     O_R   0.275428 0.557353 0.149393 -0.295797
O38   O     O_R   0.211049 0.441713 0.221742 -0.315739
N15   N     N_R   0.855701 0.196267 0.567914 0.266652
O39   O     O_R   0.835561 0.133364 0.465971 -0.208515
O40   O     O_R   0.845484 0.164395 0.691247 -0.248238
N16   N     N_R   0.144177 0.822581 0.552423 0.267807
O41   O     O_R   0.163241 0.878556 0.448341 -0.214139
O42   O     O_R   0.156880 0.860320 0.674447 -0.242163

loop_
_geom_bond_atom_site_label_1
_geom_bond_atom_site_label_2
_geom_bond_distance
_ccdc_geom_bond_type
C42   C44   1.551947 S    
Zn1   N3    2.048258 S    
N5    O15   1.300202 A    
C15   N9    1.443056 S    
C13   C15   1.394767 A    
C58   H20   1.104790 S    
C35   H5    1.077695 S    
C55   H13   1.101689 S    
C47   N5    1.457438 S    
N1    C17   1.427798 S    
N10   O29   1.301805 A    
O22   C60   1.413195 S    
C32   C39   1.407209 A    
C31   C33   1.415738 A    
C9    C11   1.395759 A    
C5    N1    1.361725 A    
C58   H21   1.109083 S    
C19   C25   1.415995 A    
C20   C26   1.416160 A    
N1    C7    1.360906 A    
C55   H12   1.106353 S    
C1    C46   1.447543 S    
C42   O14   1.409341 S    
C52   N4    1.493823 S    
C41   O13   1.409258 S    
C25   C38   1.408936 A    
C29   C35   1.409766 A    
C60   H26   1.110304 S    
C42   C48   1.528383 S    
C30   C36   1.410027 A    
C41   C47   1.528307 S    
N15   O40   1.300629 A    
C14   C28   1.398198 A    
O4    Zn1   2.044228 S    
C59   H23   1.109459 S    
C4    C28   1.461604 S    
C24   C40   1.389770 A    
C42   C45   1.536108 S    
C60   H27   1.109532 S    
N6    O18   1.299953 A    
C50   O22   1.407389 S    
C50   N3    1.488595 S    
C51   O19   1.412629 S    
C11   H4    1.083249 S    
Zn2   N4    2.048258 S    
C56   H15   1.110430 S    
C12   H3    1.082722 S    
C43   C45   1.550713 S    
C6    N2    1.361880 A    
C38   N16   1.428987 S    
C51   N3    1.495571 S    
N5    O16   1.299941 A    
O2    C2    1.297223 A    
C5    C21   1.409908 A    
O20   C58   1.410392 S    
C36   C38   1.386679 A    
C39   H7    1.077114 S    
N16   O42   1.300757 A    
N7    O24   1.300492 A    
C40   H8    1.076786 S    
C2    C45   1.447490 S    
C58   H22   1.108802 S    
C16   N10   1.444606 S    
C49   O21   1.407761 S    
C52   O20   1.412475 S    
C48   N6    1.457475 S    
C9    N14   1.443196 S    
C55   H11   1.110347 S    
C46   C48   1.534697 S    
C50   C54   1.522867 S    
N3    C53   1.485891 S    
C49   C53   1.521221 S    
N12   O34   1.301313 A    
C41   C43   1.551933 S    
C19   C34   1.420542 A    
C14   H2    1.080804 S    
C57   H19   1.108716 S    
C23   N11   1.430604 S    
C44   C46   1.550712 S    
C43   H9    1.109225 S    
C9    C17   1.415560 A    
O5    C3    1.312807 A    
O7    Zn2   2.003658 S    
C10   C18   1.416806 A    
C49   C51   1.531965 S    
C13   C27   1.396548 A    
O13   C55   1.397456 S    
C7    C25   1.404026 A    
C29   C33   1.416063 A    
O6    C4    1.308258 A    
C60   H28   1.104088 S    
C8    C26   1.403682 A    
N6    O17   1.300192 A    
C57   H18   1.104394 S    
C43   C48   1.540048 S    
N14   O37   1.301853 A    
C56   H16   1.101729 S    
O7    C3    1.305734 A    
C59   H25   1.103956 S    
C8    O11   1.349470 S    
O3    Zn2   2.044230 S    
O8    C4    1.308601 A    
N4    C54   1.485606 S    
N2    C8    1.360915 A    
N9    O27   1.301492 A    
O1    C1    1.297223 A    
O4    C2    1.300511 A    
O1    Zn1   2.015812 S    
C11   C27   1.400110 A    
N11   O31   1.300580 A    
O3    C1    1.300527 A    
C12   C28   1.396967 A    
C45   C47   1.534678 S    
N16   O41   1.300974 A    
N2    C18   1.427844 S    
C29   C32   1.417787 A    
C5    O9    1.348295 S    
C30   C34   1.416665 A    
C30   C31   1.419124 A    
C20   C33   1.420297 A    
O6    Zn2   2.010879 S    
C21   C23   1.411689 A    
N13   O36   1.300794 A    
C10   C12   1.395776 A    
C50   C52   1.531433 S    
N11   O32   1.301232 A    
O8    Zn1   2.003662 S    
N10   O30   1.300695 A    
C7    O12   1.349434 S    
N7    O23   1.300005 A    
N8    O25   1.299774 A    
N12   O33   1.300567 A    
N14   O38   1.300840 A    
C10   N13   1.442894 S    
C41   C46   1.536073 S    
N13   O35   1.301791 A    
C53   N7    1.456888 S    
O19   C57   1.410662 S    
C22   C24   1.411457 A    
C44   C47   1.539908 S    
C14   C16   1.394943 A    
C15   C17   1.415106 A    
C36   H6    1.077373 S    
O21   C59   1.414046 S    
C6    C22   1.410121 A    
C31   C40   1.408010 A    
C16   C18   1.416394 A    
C52   C53   1.527150 S    
C51   C54   1.528434 S    
C32   C34   1.415208 A    
C57   H17   1.108982 S    
C19   C21   1.418381 A    
C3    C27   1.464782 S    
C20   C22   1.417700 A    
C24   N12   1.431035 S    
O2    Zn2   2.015809 S    
C59   H24   1.111998 S    
C35   C37   1.386091 A    
C13   H1    1.077230 S    
O5    Zn1   2.010874 S    
C49   N4    1.486711 S    
O14   C56   1.397542 S    
C6    O10   1.348342 S    
C26   C37   1.408789 A    
N9    O28   1.300767 A    
C44   H10   1.109185 S    
C37   N15   1.428887 S    
C56   H14   1.106245 S    
N8    O26   1.300297 A    
C54   N8    1.459729 S    
C23   C39   1.388796 A    
N15   O39   1.301069 A    
