data_mof_unit_60811.cif
_audit_creation_date              2012-12-10T17:09:33-0500
_audit_creation_method            fapswitch 2.2
_symmetry_space_group_name_H-M    P1
_symmetry_Int_Tables_number       1
_space_group_crystal_system       triclinic
_cell_length_a                    21.694463
_cell_length_b                    21.673596
_cell_length_c                    22.438233
_cell_angle_alpha                 119.666663
_cell_angle_beta                  119.901405
_cell_angle_gamma                 90.494371
_cell_volume                      7476.48201828

loop_
_atom_site_label
_atom_site_type_symbol
_atom_type_description
_atom_site_fract_x
_atom_site_fract_y
_atom_site_fract_z
_atom_type_partial_charge
C1    C     C_R   0.499370 0.118976 0.498257 0.862588
C2    C     C_3   0.205822 0.711871 0.917738 0.353956
C3    C     C_3   0.826338 0.225836 0.049131 -0.400273
C4    C     C_3   0.173707 0.774209 0.950872 -0.400266
C5    C     C_3   0.777959 0.177393 0.951767 -0.374231
C6    C     C_3   0.222085 0.822652 0.048237 -0.374236
C7    C     C_1   0.839283 0.333978 0.173734 -0.120400
C8    C     C_1   0.160717 0.666022 0.826266 -0.120401
C9    C     C_1   0.666598 0.161083 0.826265 -0.113373
C10   C     C_1   0.333402 0.838917 0.173734 -0.113373
C11   C     C_1   0.628103 0.124362 0.751142 -0.177191
C12   C     C_R   0.500630 0.881024 0.501743 0.862588
C13   C     C_1   0.371897 0.875638 0.248858 -0.177190
C14   C     C_R   0.366878 0.111615 0.361629 -0.223979
C15   C     C_R   0.633124 0.888383 0.638369 -0.223978
C16   C     C_R   0.581838 0.080894 0.662117 0.893341
C17   C     C_R   0.418162 0.919105 0.337883 0.893341
C18   C     C_R   0.300199 0.111546 0.302094 0.076765
C19   C     C_R   0.699803 0.888451 0.697902 0.076765
C20   C     C_R   0.295277 0.178581 0.309170 -0.182931
C21   C     C_R   0.704725 0.821416 0.690826 -0.182930
C22   C     C_R   0.357685 0.244792 0.373648 -0.200225
C23   C     C_1   0.875856 0.372311 0.248838 -0.184695
C24   C     C_R   0.642316 0.755206 0.626349 -0.200224
C25   C     C_R   0.426786 0.245486 0.432388 0.103580
C26   C     C_R   0.573214 0.754513 0.567611 0.103579
C27   C     C_R   0.429925 0.178980 0.428756 0.080652
C28   C     C_R   0.570075 0.821019 0.571243 0.080652
C29   C     C_R   0.496556 0.181608 0.492236 -0.084811
C30   C     C_R   0.503444 0.818392 0.507764 -0.084812
C31   C     C_R   0.560353 0.246404 0.554497 -0.213616
C32   C     C_R   0.439646 0.753597 0.445504 -0.213616
C33   C     C_R   0.558530 0.310606 0.556174 -0.200627
C34   C     C_1   0.124144 0.627688 0.751162 -0.184694
C35   C     C_R   0.441469 0.689395 0.443828 -0.200628
C36   C     C_R   0.492690 0.310827 0.495901 -0.112306
C37   C     C_R   0.507310 0.689173 0.504098 -0.112305
C38   C     C_R   0.749698 0.444495 0.437860 -0.219278
C39   C     C_R   0.250302 0.555506 0.562140 -0.219277
C40   C     C_R   0.769120 0.632739 0.648017 -0.185023
C41   C     C_R   0.230881 0.367260 0.351984 -0.185021
C42   C     C_R   0.818044 0.502636 0.506062 -0.086935
C43   C     C_R   0.181955 0.497364 0.493937 -0.086936
C44   C     C_R   0.880242 0.499638 0.499777 0.862276
C45   C     C_3   0.712458 0.206297 0.917744 0.343330
C46   C     C_R   0.119758 0.500362 0.500223 0.862274
C47   C     C_R   0.919148 0.418275 0.337840 0.891170
C48   C     C_R   0.080852 0.581725 0.662160 0.891169
C49   C     C_R   0.621646 0.504113 0.501773 0.878225
C50   C     C_R   0.378354 0.495887 0.498227 0.878225
C51   C     C_R   0.496462 0.378869 0.498825 0.878997
C52   C     C_R   0.503538 0.621131 0.501175 0.878997
C53   C     C_R   0.760852 0.568323 0.577351 0.108067
C54   C     C_R   0.239148 0.431676 0.422649 0.108067
C55   C     C_R   0.896504 0.621360 0.647937 -0.172855
C56   C     C_3   0.287542 0.793702 0.082255 0.343329
C57   C     C_R   0.103496 0.378640 0.352064 -0.172855
C58   C     C_R   0.902927 0.682984 0.716839 -0.132225
C59   C     C_R   0.097073 0.317015 0.283161 -0.132228
C60   C     C_R   0.839208 0.688982 0.716514 -0.149149
C61   C     C_R   0.160792 0.311016 0.283487 -0.149148
C62   C     C_R   0.686495 0.447226 0.437836 -0.196477
C63   C     C_R   0.313505 0.552774 0.562164 -0.196477
C64   C     C_R   0.690766 0.508077 0.506275 -0.125857
C65   C     C_R   0.309234 0.491922 0.493725 -0.125857
C66   C     C_R   0.825588 0.564262 0.577089 0.098016
C67   C     C_3   0.711454 0.250070 0.045161 -0.393927
C68   C     C_R   0.174412 0.435738 0.422911 0.098016
C69   C     C_3   0.663166 0.201719 0.947950 -0.390820
C70   C     C_3   0.336849 0.798221 0.052049 -0.390819
C71   C     C_3   0.746426 0.289887 0.954395 -0.395569
C72   C     C_3   0.253514 0.710126 0.045602 -0.395569
C73   C     C_3   0.794712 0.338246 0.051615 -0.388079
C74   C     C_3   0.205227 0.661768 0.948383 -0.388084
C75   C     C_1   0.236569 0.042591 0.234098 0.131225
C76   C     C_1   0.763434 0.957406 0.765897 0.131221
C77   C     C_3   0.288562 0.749870 0.954838 -0.393933
C78   C     C_3   0.794177 0.288129 0.082262 0.353965
H1    H     H_    0.844068 0.737361 0.769828 0.131006
H2    H     H_    0.290427 0.786279 0.933678 0.168771
H3    H     H_    0.885881 0.251872 0.075016 0.167465
H4    H     H_    0.114153 0.748217 0.924988 0.167461
H5    H     H_    0.611325 0.247566 0.602807 0.152104
H6    H     H_    0.388674 0.752435 0.397196 0.152105
H7    H     H_    0.369144 0.058621 0.354322 0.149404
H8    H     H_    0.630858 0.941378 0.645676 0.149405
H9    H     H_    0.243281 0.179700 0.264534 0.136845
H10   H     H_    0.756722 0.820297 0.735460 0.136846
H11   H     H_    0.350683 0.295206 0.377429 0.149424
H12   H     H_    0.155933 0.262638 0.230173 0.131006
H13   H     H_    0.649317 0.704792 0.622567 0.149422
H14   H     H_    0.723048 0.642093 0.652899 0.155365
H15   H     H_    0.276953 0.357907 0.347103 0.155364
H16   H     H_    0.609090 0.360242 0.604446 0.164346
H17   H     H_    0.390909 0.639759 0.395557 0.164345
H18   H     H_    0.633964 0.400794 0.384029 0.169190
H19   H     H_    0.366035 0.599206 0.615970 0.169190
H20   H     H_    0.745092 0.397367 0.383779 0.145668
H21   H     H_    0.254908 0.602634 0.616220 0.145669
H22   H     H_    0.947676 0.618770 0.651099 0.140760
H23   H     H_    0.814237 0.180123 0.930828 0.180623
H24   H     H_    0.052324 0.381229 0.348901 0.140760
H25   H     H_    0.957460 0.726308 0.770477 0.133645
H26   H     H_    0.042541 0.273691 0.229524 0.133647
H27   H     H_    0.687079 0.293768 0.068128 0.168386
H28   H     H_    0.312905 0.706138 0.931869 0.168392
H29   H     H_    0.615594 0.222190 0.924224 0.170707
H30   H     H_    0.384391 0.777716 0.075773 0.170707
H31   H     H_    0.782193 0.294605 0.933547 0.169793
H32   H     H_    0.217735 0.705450 0.066452 0.169799
H33   H     H_    0.700368 0.311957 0.930775 0.169376
H34   H     H_    0.185796 0.819964 0.069175 0.180645
H35   H     H_    0.299539 0.688023 0.069220 0.169375
H36   H     H_    0.771845 0.383544 0.074690 0.170030
H37   H     H_    0.228060 0.616437 0.925305 0.170034
H38   H     H_    0.853698 0.366228 0.077514 0.169821
H39   H     H_    0.146229 0.633829 0.922485 0.169822
H40   H     H_    0.754892 0.117298 0.926226 0.176656
H41   H     H_    0.245195 0.882739 0.073779 0.176637
H42   H     H_    0.826546 0.189023 0.070396 0.170215
H43   H     H_    0.173544 0.811014 0.929610 0.170219
H44   H     H_    0.638119 0.142049 0.922369 0.169428
H45   H     H_    0.361939 0.857880 0.077630 0.169429
H46   H     H_    0.709632 0.213650 0.066322 0.168771
N1    N     N_1   0.185494 0.987139 0.179461 -0.225217
N2    N     N_1   0.814510 0.012857 0.820533 -0.225213
O1    O     O_R   0.448260 0.091600 0.499990 -0.620130
O2    O     O_R   0.448270 0.908380 0.500020 -0.619583
O3    O     O_R   0.509690 0.061420 0.622860 -0.612718
O4    O     O_R   0.490310 0.938580 0.377140 -0.612717
O5    O     O_R   0.613170 0.061430 0.622850 -0.622471
O6    O     O_R   0.386830 0.938570 0.377150 -0.622470
O7    O     O_R   0.908550 0.551730 0.500000 -0.620141
O8    O     O_R   0.091450 0.448270 0.500000 -0.620139
O9    O     O_R   0.908530 0.448300 0.500020 -0.617738
O10   O     O_R   0.091470 0.551700 0.499980 -0.617739
O11   O     O_R   0.938770 0.490290 0.377130 -0.611734
O12   O     O_R   0.551740 0.908400 0.500010 -0.620131
O13   O     O_R   0.061230 0.509710 0.622870 -0.611733
O14   O     O_R   0.938740 0.386860 0.377150 -0.624327
O15   O     O_R   0.061260 0.613140 0.622850 -0.624327
O16   O     O_R   0.626330 0.534680 0.569330 -0.640899
O17   O     O_R   0.373670 0.465320 0.430670 -0.640899
O18   O     O_R   0.556960 0.465330 0.430620 -0.617183
O19   O     O_R   0.443040 0.534670 0.569380 -0.617184
O20   O     O_R   0.534700 0.443070 0.569370 -0.617312
O21   O     O_R   0.465300 0.556930 0.430630 -0.617311
O22   O     O_R   0.465330 0.373710 0.430660 -0.632049
O23   O     O_R   0.534670 0.626290 0.569340 -0.632049
O24   O     O_R   0.551730 0.091620 0.499980 -0.619582
Zn1   Zn    Zn3+2 0.430910 0.999990 0.500010 0.962445
Zn2   Zn    Zn3+2 0.569090 0.000010 0.499990 0.962445
Zn3   Zn    Zn3+2 0.000200 0.569060 0.499990 0.960391
Zn4   Zn    Zn3+2 0.999800 0.430940 0.500010 0.960390
Zn5   Zn    Zn3+2 0.546330 0.546310 0.592620 0.942290
Zn6   Zn    Zn3+2 0.453670 0.453690 0.407380 0.942290

loop_
_geom_bond_atom_site_label_1
_geom_bond_atom_site_label_2
_ccdc_geom_bond_type
C63   C65   A    
C60   H1    S    
C9    C45   S    
C18   C75   S    
C40   C60   A    
C62   H18   S    
C27   C29   A    
C76   N2    T    
C14   C18   A    
C41   C61   A    
C38   H20   S    
C33   H16   S    
C69   H29   S    
O17   Zn6   S    
C54   C65   A    
C50   O17   A    
C15   C19   A    
C57   H24   S    
C73   H38   S    
O7    Zn3   S    
C59   H26   S    
C51   O22   A    
C77   H28   S    
C35   C37   A    
C24   C26   A    
C38   C42   A    
C53   C64   A    
C57   C59   A    
C54   C68   A    
C58   C60   A    
C49   O18   A    
C33   C36   A    
C31   H5    S    
C16   O5    A    
C62   C64   A    
O1    Zn1   S    
O10   Zn3   S    
C70   H45   S    
C41   H15   S    
O20   Zn5   S    
C52   O23   A    
C56   C72   S    
C22   C25   A    
C71   H33   S    
C47   O14   A    
C3    H3    S    
C73   C78   S    
C31   C33   A    
C14   C27   A    
C10   C56   S    
C18   C20   A    
C2    C74   S    
C12   C30   S    
C44   O9    A    
C21   H10   S    
C49   C64   S    
C67   H46   S    
C17   O6    A    
O5    Zn2   S    
C67   C78   S    
C42   C44   S    
C4    H43   S    
C43   C46   S    
C72   H32   S    
C70   C77   S    
C32   H6    S    
C5    H23   S    
C59   C61   A    
C23   C47   S    
C45   C69   S    
C32   C35   A    
C4    C6    S    
C71   C73   S    
C37   C52   S    
C67   H27   S    
C39   C43   A    
C51   O20   A    
O12   Zn2   S    
C5    C45   S    
C72   H35   S    
C73   H36   S    
C67   C69   S    
O18   Zn6   S    
C2    C4    S    
C16   O3    A    
C46   O8    A    
C9    C11   T    
C11   C16   S    
O2    Zn1   S    
C39   H21   S    
C49   O16   A    
C47   O11   A    
C1    C29   S    
O11   Zn3   S    
C1    O24   A    
C8    C34   T    
C40   H14   S    
O21   Zn6   S    
O9    Zn4   S    
C36   C51   S    
C7    C78   S    
C50   O19   A    
C72   C74   S    
C20   C22   A    
C52   O21   A    
C56   C70   S    
C15   H8    S    
O4    Zn2   S    
O16   Zn5   S    
C12   O12   A    
C21   C24   A    
C34   C48   S    
C57   C68   A    
C24   H13   S    
C6    H41   S    
C55   C66   A    
C61   H12   S    
C77   H2    S    
C44   O7    A    
C74   H39   S    
C19   C76   S    
C48   O13   A    
C19   C21   A    
C17   O4    A    
C6    H34   S    
C2    C8    S    
C1    O1    A    
C14   H7    S    
C6    C56   S    
C3    C5    S    
C10   C13   T    
C26   C37   A    
O3    Zn1   S    
C12   O2    A    
C55   H22   S    
C35   H17   S    
C25   C27   A    
C39   C63   A    
C43   C68   A    
C26   C28   A    
O13   Zn4   S    
C13   C17   S    
C5    H40   S    
C28   C30   A    
C45   C71   S    
O23   Zn5   S    
C63   H19   S    
C2    C77   S    
C53   C66   A    
C30   C32   A    
C20   H9    S    
O15   Zn3   S    
C15   C28   A    
O8    Zn4   S    
C69   H44   S    
C7    C23   T    
C74   H37   S    
C71   H31   S    
C22   H11   S    
C48   O15   A    
O24   Zn2   S    
C50   C65   S    
C41   C54   A    
C3    H42   S    
C25   C36   A    
C46   O10   A    
O19   Zn5   S    
C4    H4    S    
C29   C31   A    
C40   C53   A    
C55   C58   A    
C42   C66   A    
O6    Zn1   S    
C70   H30   S    
C58   H25   S    
O22   Zn6   S    
C75   N1    T    
C3    C78   S    
O14   Zn4   S    
C38   C62   A    
