data_mof_unit_66880.cif
_audit_creation_date              2013-03-05T15:57:24-0500
_audit_creation_method            fapswitch 2.2
_symmetry_space_group_name_H-M    P1
_symmetry_Int_Tables_number       1
_space_group_crystal_system       triclinic
_cell_length_a                    17.838141
_cell_length_b                    19.13985
_cell_length_c                    8.591927
_cell_angle_alpha                 90.013456
_cell_angle_beta                  102.580482
_cell_angle_gamma                 89.961349
_cell_volume                      2863.02025431

loop_
_atom_site_label
_atom_site_type_symbol
_atom_site_description
_atom_site_fract_x
_atom_site_fract_y
_atom_site_fract_z
_atom_type_partial_charge
P1    P     P_3+3 0.834140 0.419320 0.003900 0.569741
P2    P     P_3+3 0.834140 0.580680 0.503900 0.568976
P3    P     P_3+3 0.334140 0.919320 0.003900 0.569087
P4    P     P_3+3 0.334140 0.080680 0.503900 0.568601
O1    O     O_2   0.841960 0.394640 0.833410 -0.369160
O2    O     O_2   0.841960 0.605360 0.333410 -0.376533
O3    O     O_2   0.341960 0.894640 0.833410 -0.376489
O4    O     O_2   0.341960 0.105360 0.333410 -0.369368
O5    O     O_3   0.907950 0.463080 0.102990 -0.291492
O6    O     O_3   0.907950 0.536920 0.602990 -0.288619
O7    O     O_3   0.407950 0.963080 0.102990 -0.288627
O8    O     O_3   0.407950 0.036920 0.602990 -0.292048
O9    O     O_3   0.972780 0.329600 0.629720 -0.286152
O10   O     O_3   0.972780 0.670400 0.129720 -0.270361
O11   O     O_3   0.472780 0.829600 0.629720 -0.270020
O12   O     O_3   0.472780 0.170400 0.129720 -0.284563
O13   O     O_2   0.835421 0.291295 0.672671 -0.325417
O14   O     O_2   0.837965 0.709758 0.180354 -0.351128
O15   O     O_2   0.337991 0.790238 0.680309 -0.351010
O16   O     O_2   0.335416 0.208734 0.172700 -0.317758
O17   O     O_3   0.756369 0.474557 0.948338 -0.585584
O18   O     O_3   0.756790 0.524916 0.445610 -0.594043
O19   O     O_3   0.256778 0.975143 0.945670 -0.593967
O20   O     O_3   0.256371 0.025513 0.448309 -0.585872
O21   O     O_3   0.929578 0.192129 0.665375 -0.508864
O22   O     O_3   0.930137 0.809959 0.173465 -0.554801
O23   O     O_3   0.430245 0.690017 0.673241 -0.554678
O24   O     O_3   0.429513 0.307889 0.165583 -0.482962
C1    C     C_3   0.994166 0.087561 0.627130 -0.841460
C2    C     C_3   0.985893 0.919569 0.133375 -0.953312
C3    C     C_3   0.485763 0.580290 0.632551 -0.939182
C4    C     C_3   0.494195 0.412388 0.127723 -0.804614
H1    H     H_    0.510766 0.574454 0.761527 0.274821
H2    H     H_    0.519308 0.419844 0.256238 0.297982
H3    H     H_    0.019188 0.080007 0.755655 0.286842
H4    H     H_    0.011060 0.925298 0.262317 0.274357
H5    H     H_    0.938243 0.061038 0.595582 0.217697
H6    H     H_    0.929182 0.944971 0.106295 0.225487
H7    H     H_    0.429053 0.554955 0.605144 0.227565
H8    H     H_    0.438271 0.438973 0.096397 0.214607
P5    P     P_3+3 0.165830 0.418670 0.685610 0.472198
P6    P     P_3+3 0.165830 0.581330 0.185610 0.476672
P7    P     P_3+3 0.665830 0.918670 0.685610 0.476658
P8    P     P_3+3 0.665830 0.081330 0.185610 0.469503
P9    P     P_3+3 0.108729 0.275282 0.125090 0.554440
P10   P     P_3+3 0.106221 0.728737 0.615620 0.599178
P11   P     P_3+3 0.606257 0.771227 0.115500 0.599378
P12   P     P_3+3 0.608720 0.224668 0.625148 0.558353
O25   O     O_2   0.157990 0.394030 0.856030 -0.365016
O26   O     O_2   0.157990 0.605970 0.356030 -0.374511
O27   O     O_2   0.657990 0.894030 0.856030 -0.374834
O28   O     O_2   0.657990 0.105970 0.356030 -0.368773
O29   O     O_3   0.027110 0.329490 0.059550 -0.310997
O30   O     O_3   0.027110 0.670510 0.559550 -0.276706
O31   O     O_3   0.527110 0.829490 0.059550 -0.276519
O32   O     O_3   0.527110 0.170510 0.559550 -0.308725
O33   O     O_2   0.166013 0.288316 0.017716 -0.298784
O34   O     O_2   0.163827 0.712588 0.510782 -0.322658
O35   O     O_2   0.663824 0.787371 0.010620 -0.322738
O36   O     O_2   0.666019 0.211619 0.517781 -0.304851
O37   O     O_3   0.242879 0.476899 0.729936 -0.584955
O38   O     O_3   0.242312 0.523571 0.227604 -0.579917
O39   O     O_3   0.742302 0.976355 0.727368 -0.580095
O40   O     O_3   0.742927 0.023067 0.229972 -0.586515
O41   O     O_3   0.079807 0.189681 0.078062 -0.535373
O42   O     O_3   0.069886 0.810831 0.543847 -0.503905
O43   O     O_3   0.569950 0.689169 0.043583 -0.503902
O44   O     O_3   0.579782 0.310298 0.578214 -0.531326
C5    C     C_3   0.018086 0.173166 0.149360 0.819540
C6    C     C_3   0.026979 0.839010 0.648360 0.750090
C7    C     C_3   0.526999 0.660994 0.147939 0.749386
C8    C     C_3   0.518116 0.326886 0.649681 0.860006
H9    H     H_    0.011336 0.209182 0.247448 -0.049783
H10   H     H_    0.066567 0.852425 0.762680 0.005439
H11   H     H_    0.566572 0.647410 0.262175 0.005327
H12   H     H_    0.511394 0.290871 0.747743 -0.130038
C9    C     C_3   0.030529 0.099139 0.219119 -0.714667
C10   C     C_3   0.986618 0.905753 0.580140 -0.693919
C11   C     C_3   0.486496 0.594400 0.079318 -0.691754
C12   C     C_3   0.530616 0.400887 0.719562 -0.733447
H13   H     H_    0.447339 0.605412 0.963354 0.249437
H14   H     H_    0.546279 0.436072 0.630665 0.227028
H15   H     H_    0.046168 0.063931 0.130171 0.218726
H16   H     H_    0.947445 0.894949 0.464100 0.249013
H17   H     H_    0.077599 0.098369 0.327032 0.216812
H18   H     H_    0.028470 0.944825 0.561634 0.172390
H19   H     H_    0.528225 0.555209 0.060516 0.172255
H20   H     H_    0.577688 0.401571 0.827472 0.215822
C13   C     C_3   0.216956 0.460074 0.276538 0.313817
C14   C     C_3   0.217784 0.542199 0.770724 0.406790
C15   C     C_3   0.717900 0.957808 0.270936 0.405814
C16   C     C_3   0.717124 0.039757 0.777347 0.314233
H21   H     H_    0.183668 0.467763 0.370273 0.104473
H22   H     H_    0.180987 0.536895 0.858868 0.087782
H23   H     H_    0.681104 0.963183 0.359082 0.088612
H24   H     H_    0.683917 0.031921 0.871143 0.105428
H25   H     H_    0.182125 0.431817 0.172553 0.124045
H26   H     H_    0.185620 0.569151 0.662115 0.112768
H27   H     H_    0.685762 0.930805 0.162396 0.112922
H28   H     H_    0.682294 0.068336 0.673843 0.122964
C17   C     C_3   0.287570 0.417775 0.344918 -0.835268
C18   C     C_3   0.288223 0.585316 0.844493 -0.983109
C19   C     C_3   0.788388 0.914699 0.344805 -0.983641
C20   C     C_3   0.787892 0.081692 0.846144 -0.838964
H29   H     H_    0.311182 0.433367 0.470510 0.256992
H30   H     H_    0.306573 0.572652 0.972896 0.259302
H31   H     H_    0.806817 0.927527 0.473119 0.259643
H32   H     H_    0.812026 0.065139 0.970808 0.257517
H33   H     H_    0.276464 0.361095 0.337507 0.228692
H34   H     H_    0.276367 0.641878 0.830276 0.239315
H35   H     H_    0.776547 0.858131 0.330991 0.239724
H36   H     H_    0.776841 0.138378 0.841350 0.228812
H37   H     H_    0.330378 0.428415 0.272776 0.309188
H38   H     H_    0.335981 0.573865 0.785173 0.284099
H39   H     H_    0.836083 0.926013 0.285252 0.283316
H40   H     H_    0.830268 0.071723 0.772618 0.308327
Ba1   Ba    Ba6+2 0.000000 0.447380 0.844850 1.775554
Ba2   Ba    Ba6+2 0.000000 0.552620 0.344850 1.782325
Ba3   Ba    Ba6+2 0.500000 0.947380 0.844850 1.781832
Ba4   Ba    Ba6+2 0.500000 0.052620 0.344850 1.774339
C21   C     C_3   0.754449 0.518430 0.076178 0.313906
C22   C     C_3   0.754393 0.480619 0.571948 0.275282
C23   C     C_3   0.254551 0.019644 0.071834 0.276093
C24   C     C_3   0.254422 0.981643 0.576089 0.314368
H41   H     H_    0.798424 0.559352 0.082959 0.160194
H42   H     H_    0.801411 0.442284 0.583888 0.169168
H43   H     H_    0.301481 0.058016 0.083171 0.169256
H44   H     H_    0.298465 0.940719 0.583006 0.160148
H45   H     H_    0.763736 0.489161 0.189142 0.137314
H46   H     H_    0.758292 0.510335 0.683283 0.148303
H47   H     H_    0.258703 0.990113 0.183489 0.148249
H48   H     H_    0.263619 0.010924 0.689057 0.137194
C25   C     C_3   0.676935 0.552829 0.045036 -0.109124
C26   C     C_3   0.679286 0.441900 0.535198 -0.090244
C27   C     C_3   0.179347 0.058273 0.035293 -0.089878
C28   C     C_3   0.176942 0.947229 0.544694 -0.109563
H49   H     H_    0.633013 0.511086 0.021776 0.135779
H50   H     H_    0.631427 0.480095 0.505387 0.135819
H51   H     H_    0.131598 0.019997 0.005817 0.136170
H52   H     H_    0.132938 0.988948 0.521071 0.134989
H53   H     H_    0.670310 0.583941 0.149930 0.088771
H54   H     H_    0.674440 0.411338 0.641794 0.110061
H55   H     H_    0.174510 0.088903 0.141830 0.110003
H56   H     H_    0.170263 0.916194 0.649634 0.089429
O45   O     O_3   0.092100 0.536880 0.086720 -0.379820
O46   O     O_3   0.092100 0.463120 0.586720 -0.384280
O47   O     O_3   0.592100 0.036880 0.086720 -0.383329
O48   O     O_3   0.592100 0.963120 0.586720 -0.379413
P13   P     P_3+3 0.896928 0.730432 0.082288 0.590827
P14   P     P_3+3 0.896289 0.271359 0.578466 0.596843
P15   P     P_3+3 0.396266 0.228683 0.078532 0.583147
P16   P     P_3+3 0.396981 0.769579 0.582215 0.591434
C29   C     C_3   0.983179 0.164301 0.585226 1.002483
C30   C     C_3   0.978530 0.843034 0.087100 0.857279
C31   C     C_3   0.478532 0.656870 0.586627 0.849761
C32   C     C_3   0.483143 0.335682 0.085546 0.610085
H57   H     H_    0.962210 0.168853 0.454881 -0.350259
H58   H     H_    0.953526 0.841935 0.957893 -0.054438
H59   H     H_    0.453487 0.658077 0.457447 -0.053510
H60   H     H_    0.462170 0.331217 0.955182 0.119852
H61   H     H_    0.522279 0.553088 0.562384 0.250156
H62   H     H_    0.533395 0.436392 0.059944 0.215723
H63   H     H_    0.033400 0.063553 0.559356 0.218993
H64   H     H_    0.022350 0.946750 0.063137 0.251107
C33   C     C_R   0.146438 0.674964 0.927394 -0.333199
C34   C     C_R   0.149829 0.327960 0.430748 -0.409816
C35   C     C_R   0.649873 0.172049 0.930803 -0.410891
C36   C     C_R   0.646452 0.825099 0.427259 -0.333427
C37   C     C_R   0.856744 0.325817 0.268072 0.078463
C38   C     C_R   0.850781 0.670767 0.774099 0.161158
C39   C     C_R   0.350790 0.829207 0.274025 0.161131
C40   C     C_R   0.356741 0.174149 0.768136 0.097810
C41   C     C_R   0.798958 0.213300 0.301967 -0.136459
C42   C     C_R   0.795064 0.784894 0.803215 -0.132902
C43   C     C_R   0.295076 0.715144 0.303231 -0.133430
C44   C     C_R   0.298965 0.286740 0.801934 -0.137633
C45   C     C_R   0.848607 0.268277 0.362588 0.038016
C46   C     C_R   0.843246 0.729333 0.867686 0.097087
C47   C     C_R   0.343280 0.770668 0.367629 0.097325
C48   C     C_R   0.348604 0.231730 0.862629 -0.025922
C49   C     C_R   0.814851 0.333198 0.110562 0.125161
C50   C     C_R   0.811623 0.664819 0.613315 0.121352
C51   C     C_R   0.311609 0.835174 0.113263 0.121859
C52   C     C_R   0.314859 0.166783 0.610620 0.124843
C53   C     C_R   0.761028 0.277029 0.048082 0.059414
C54   C     C_R   0.757714 0.720728 0.548835 0.063851
C55   C     C_R   0.257713 0.779269 0.048816 0.064200
C56   C     C_R   0.261034 0.222962 0.548101 0.056223
C57   C     C_R   0.247143 0.718998 0.146897 0.008665
C58   C     C_R   0.250560 0.282951 0.647128 0.018119
C59   C     C_R   0.750555 0.217071 0.147168 0.004235
C60   C     C_R   0.747130 0.781021 0.646868 0.008280
C61   C     C_R   0.188964 0.666097 0.083246 0.232938
C62   C     C_R   0.191423 0.335294 0.585673 0.259945
C63   C     C_R   0.691428 0.164733 0.085759 0.259540
C64   C     C_R   0.688949 0.833934 0.583155 0.233297
C65   C     C_R   0.159531 0.729388 0.829037 0.132010
C66   C     C_R   0.163027 0.274530 0.332689 0.127200
C67   C     C_R   0.663062 0.225433 0.832707 0.130664
C68   C     C_R   0.659548 0.770617 0.328952 0.132265
C69   C     C_R   0.214723 0.781008 0.889251 -0.117764
C70   C     C_R   0.217526 0.221957 0.389774 -0.069612
C71   C     C_R   0.717514 0.278007 0.889754 -0.070519
C72   C     C_R   0.714735 0.718965 0.389262 -0.117593
H65   H     H_    0.723736 0.320345 0.811097 0.155888
H66   H     H_    0.722056 0.676544 0.311638 0.152813
H67   H     H_    0.222028 0.823397 0.811578 0.152902
H68   H     H_    0.223777 0.179599 0.311148 0.156099
H69   H     H_    0.106037 0.635260 0.876184 0.169970
H70   H     H_    0.111223 0.368772 0.379450 0.174811
H71   H     H_    0.611362 0.131213 0.879475 0.174727
H72   H     H_    0.606083 0.864860 0.375998 0.169999
N1    N     N_R   0.056751 0.199193 0.631334 0.229613
O49   O     O_R   0.073815 0.236120 0.760641 -0.255106
O50   O     O_R   0.110408 0.182370 0.558707 -0.470387
N2    N     N_R   0.054781 0.811563 0.119847 0.254856
O51   O     O_R   0.075548 0.766613 0.234155 -0.260275
O52   O     O_R   0.105740 0.835376 0.046754 -0.450338
N3    N     N_R   0.554837 0.688161 0.619405 0.255291
O53   O     O_R   0.575624 0.733177 0.733570 -0.260135
O54   O     O_R   0.605771 0.664241 0.546264 -0.450628
N4    N     N_R   0.556694 0.300672 0.131533 0.241997
O55   O     O_R   0.573783 0.263776 0.260870 -0.233925
O56   O     O_R   0.610356 0.317474 0.058970 -0.474047
N5    N     N_R   0.668902 0.596933 0.905160 0.279908
O57   O     O_R   0.702455 0.657443 0.918793 -0.351274
O58   O     O_R   0.651772 0.567599 0.765877 -0.418237
N6    N     N_R   0.677297 0.395625 0.400739 0.282876
O59   O     O_R   0.710171 0.335009 0.424545 -0.333665
O60   O     O_R   0.662633 0.421532 0.257997 -0.430030
N7    N     N_R   0.177111 0.104422 0.900556 0.281587
O61   O     O_R   0.210158 0.164948 0.923899 -0.328429
O62   O     O_R   0.162322 0.078335 0.757967 -0.433595
N8    N     N_R   0.169105 0.903004 0.405004 0.279572
O63   O     O_R   0.202472 0.842366 0.419174 -0.350979
O64   O     O_R   0.152297 0.932223 0.265545 -0.418480
C73   C     C_1   0.442491 0.565820 0.189815 0.127622
N9    N     N_1   0.407854 0.543154 0.276999 -0.053191
C74   C     C_1   0.460126 0.429654 0.754742 0.101380
N10   N     N_1   0.404210 0.452524 0.780667 -0.071200
C75   C     C_1   0.960014 0.070490 0.254239 0.181638
N11   N     N_1   0.904084 0.047713 0.280146 -0.069385
C76   C     C_1   0.942691 0.934392 0.690797 0.130500
N12   N     N_1   0.908121 0.957123 0.778097 -0.053512
C77   C     C_1   0.300249 0.654415 0.402547 0.264062
N13   N     N_1   0.305562 0.606538 0.486184 -0.055750
C78   C     C_1   0.302456 0.346694 0.903331 0.258641
N14   N     N_1   0.306640 0.394094 0.988103 -0.048667
C79   C     C_1   0.802400 0.153398 0.403448 0.302679
N15   N     N_1   0.806545 0.106036 0.488281 -0.051106
C80   C     C_1   0.800312 0.845678 0.902439 0.263857
N16   N     N_1   0.805683 0.893596 0.986006 -0.056417
N17   N     N_R   0.908810 0.378817 0.336805 0.233777
O65   O     O_R   0.980537 0.373862 0.331556 -0.417146
O66   O     O_R   0.884166 0.433734 0.397765 -0.385924
N18   N     N_R   0.900549 0.616137 0.845561 0.232386
O67   O     O_R   0.972808 0.617207 0.841785 -0.347115
O68   O     O_R   0.871050 0.558880 0.883629 -0.413145
N19   N     N_R   0.400558 0.883800 0.345459 0.232369
O69   O     O_R   0.472806 0.882678 0.341604 -0.346969
O70   O     O_R   0.371064 0.941066 0.383722 -0.413034
N20   N     N_R   0.408977 0.121195 0.836714 0.233490
O71   O     O_R   0.480709 0.126360 0.831649 -0.420498
O72   O     O_R   0.384574 0.066252 0.897898 -0.384463
N21   N     N_R   0.948738 0.174561 0.025333 0.230208
O73   O     O_R   0.910870 0.232378 0.990407 -0.401080
O74   O     O_R   0.938213 0.124055 0.923032 -0.437806
N22   N     N_R   0.969076 0.789779 0.673870 0.193673
O75   O     O_R   0.985137 0.750780 0.799913 -0.510594
O76   O     O_R   0.914167 0.771958 0.554453 -0.412035
N23   N     N_R   0.469174 0.710319 0.173732 0.193678
O77   O     O_R   0.485289 0.749196 0.299976 -0.510211
O78   O     O_R   0.414281 0.728315 0.054415 -0.412216
N24   N     N_R   0.448729 0.325597 0.525759 0.230086
O79   O     O_R   0.410792 0.267851 0.490905 -0.402545
O80   O     O_R   0.438216 0.376096 0.423464 -0.427886

loop_
_geom_bond_atom_site_label_1
_geom_bond_atom_site_label_2
_geom_bond_distance
_ccdc_geom_bond_type
C3    H61   1.108727 S    
P1    O17   1.726259 S    
O23   P16   1.754960 S    
C6    C10   1.519563 S    
C17   H37   1.102372 S    
C36   H72   1.073758 S    
C5    C9    1.535605 S    
O13   P14   1.536804 D    
C28   N8    1.450207 S    
C2    H64   1.108750 S    
C25   H49   1.106650 S    
C8    H12   1.115259 S    
C33   H69   1.073741 S    
C11   H19   1.092903 S    
P2    Ba2   3.559238 S    
P7    O39   1.731236 S    
C80   N16   1.155722 T    
O31   Ba3   2.887894 S    
N1    O49   1.295797 A    
P8    O40   1.746415 S    
C27   H51   1.110450 S    
C71   H65   1.076445 S    
P9    O33   1.539032 D    
C79   N15   1.155526 T    
C38   C46   1.402705 A    
P1    O1    1.573831 D    
C60   C64   1.467575 A    
C12   C74   1.462930 S    
C19   H35   1.104665 S    
C5    H9    1.115249 S    
N2    O52   1.295315 A    
O9    P14   1.743075 S    
C75   N11   1.154261 T    
P3    O3    1.573831 D    
O12   Ba4   2.888534 S    
P2    C50   1.949730 S    
N17   O65   1.293461 A    
P4    O20   1.726437 S    
C53   C59   1.465159 A    
O29   Ba1   2.887894 S    
C42   C80   1.433167 S    
O44   C8    1.407685 S    
C26   H54   1.105997 S    
C40   C48   1.394819 A    
P8    Ba4   3.562277 S    
Ba3   O47   2.909808 S    
N23   O77   1.294962 A    
O38   C13   1.393613 S    
C16   H24   1.109481 S    
P8    O47   1.640082 S    
C24   H48   1.101635 S    
Ba1   O45   2.909808 S    
N24   O79   1.296847 A    
C50   C54   1.464093 A    
C37   C45   1.394780 A    
P4    O4    1.574095 D    
C1    H63   1.103185 S    
C14   C18   1.521779 S    
P7    O48   1.639368 S    
C20   H40   1.102116 S    
P3    O19   1.730245 S    
O25   Ba1   2.978699 S    
P5    O46   1.639368 S    
C74   N10   1.154224 T    
C56   C58   1.464803 A    
O11   Ba3   2.888368 S    
O10   Ba2   2.888534 S    
N18   O68   1.288712 A    
O39   C16   1.393467 S    
C6    H10   1.107859 S    
O27   Ba3   2.978699 S    
C3    H1    1.106382 S    
C65   C69   1.411480 A    
C31   H59   1.102726 S    
P5    O37   1.746425 S    
P4    O8    1.634138 S    
O14   P13   1.536080 D    
N21   O73   1.296842 A    
P6    O38   1.731279 S    
O43   C7    1.407753 S    
P12   O32   1.776442 S    
C28   H52   1.106677 S    
C24   H44   1.101414 S    
P12   O36   1.538948 D    
C21   H45   1.101540 S    
P8    O28   1.573133 D    
C27   H55   1.105938 S    
C9    H17   1.107121 S    
C43   C77   1.433080 S    
N6    O59   1.295645 A    
O20   C24   1.388769 S    
C70   H68   1.076345 S    
C73   N9    1.154646 T    
P10   O34   1.538014 D    
C67   C71   1.410668 A    
O5    Ba2   2.909845 S    
O32   Ba4   2.887726 S    
C39   C47   1.402741 A    
C36   C64   1.398253 A    
P2    O2    1.574095 D    
N8    O64   1.296910 A    
O7    Ba4   2.909845 S    
P5    O25   1.573396 D    
O11   P16   1.753844 S    
C8    C12   1.535579 S    
C14   H22   1.109678 S    
C44   C78   1.433744 S    
N1    O50   1.291843 A    
N22   O76   1.300350 A    
C17   H29   1.110355 S    
C21   C25   1.501538 S    
C23   H47   1.102055 S    
C24   C28   1.501864 S    
P12   C67   1.834964 S    
O21   C29   1.399316 S    
C54   C60   1.464702 A    
O3    Ba3   2.976451 S    
O24   P15   1.736891 S    
C32   H60   1.104215 S    
P1    O5    1.634843 S    
N2    O51   1.297478 A    
C30   N2    1.457505 S    
C43   C57   1.428428 A    
C44   C58   1.421147 A    
N3    O53   1.297531 A    
C20   H36   1.101774 S    
C77   N13   1.155690 T    
C49   C53   1.463680 A    
P6    Ba2   3.562277 S    
Ba2   O46   2.909078 S    
N20   O72   1.293165 A    
O21   P14   1.736657 S    
C41   C79   1.433720 S    
Ba3   O48   3.049078 S    
P11   O35   1.538069 D    
C41   C59   1.421044 A    
C13   H21   1.109509 S    
C22   C26   1.503602 S    
C7    C11   1.519716 S    
C52   C56   1.463140 A    
O1    Ba1   2.976451 S    
Ba1   O46   3.049078 S    
C56   C70   1.411844 A    
C4    H2    1.106714 S    
C22   H42   1.101845 S    
P6    C61   1.932813 S    
C19   H39   1.105664 S    
C2    H4    1.106470 S    
C34   C66   1.377223 A    
C21   H41   1.101421 S    
P5    C62   1.913480 S    
C18   H38   1.105615 S    
C15   C19   1.521766 S    
C37   N17   1.415071 S    
N3    O54   1.295392 A    
O8    Ba3   2.909114 S    
C42   C60   1.428563 A    
C40   C52   1.403289 A    
C23   H43   1.102258 S    
C40   N20   1.415087 S    
C4    C32   1.514801 S    
C4    H62   1.103237 S    
C68   C72   1.411274 A    
N18   O67   1.296593 A    
P10   O30   1.780814 S    
N5    O57   1.297539 A    
C69   H67   1.076496 S    
C54   C72   1.418014 A    
C6    N22   1.450108 S    
P11   O43   1.759137 S    
C7    N23   1.450011 S    
P1    Ba1   3.559938 S    
O22   P13   1.754986 S    
P4    C52   1.952148 S    
N4    O56   1.291839 A    
N21   O74   1.292381 A    
C37   C49   1.403303 A    
P3    Ba3   3.559938 S    
P6    O26   1.573133 D    
P14   C45   1.865482 S    
C66   C70   1.410455 A    
O28   Ba4   2.979986 S    
C12   H14   1.099280 S    
N7    O61   1.295779 A    
C72   H66   1.076390 S    
O17   C21   1.388766 S    
Ba4   O48   2.909078 S    
C2    C30   1.516043 S    
N7    O62   1.295727 A    
P9    O41   1.738903 S    
N6    O60   1.295669 A    
C8    N24   1.446429 S    
P11   C68   1.872898 S    
O22   C30   1.405916 S    
C15   H23   1.109685 S    
N8    O63   1.297570 A    
C11   C73   1.463622 S    
C1    H5    1.099601 S    
N19   O69   1.296560 A    
P2    O6    1.634138 S    
P7    Ba3   3.561562 S    
C20   H32   1.109984 S    
O37   C14   1.397368 S    
C16   H28   1.111376 S    
P11   O31   1.780569 S    
O10   P13   1.753568 S    
C39   C51   1.410259 A    
N23   O78   1.300330 A    
O4    Ba4   2.975176 S    
C42   C46   1.402879 A    
P8    C63   1.914427 S    
P1    C49   1.952987 S    
C36   C68   1.393063 A    
C23   C27   1.503383 S    
C13   C17   1.504577 S    
O26   Ba2   2.979986 S    
C35   C63   1.382631 A    
C5    N21   1.446466 S    
Ba2   O45   3.048757 S    
C35   C67   1.377248 A    
C34   C62   1.382700 A    
C25   N5    1.450090 S    
N19   O70   1.288651 A    
C2    H6    1.100339 S    
C33   C61   1.398138 A    
C26   H50   1.110337 S    
O19   C23   1.385772 S    
C3    C31   1.516098 S    
Ba3   Ba4   4.745174 S    
P10   O42   1.759033 S    
N20   O71   1.293584 A    
P15   C48   1.865561 S    
P4    Ba4   3.559238 S    
C38   N18   1.421287 S    
C22   H46   1.101906 S    
C1    H3    1.106723 S    
C43   C47   1.403060 A    
C11   H13   1.105336 S    
C10   C76   1.463592 S    
O16   P15   1.536843 D    
P12   O44   1.738880 S    
C19   H31   1.107195 S    
C15   H27   1.110280 S    
C53   C71   1.411871 A    
P16   C47   1.883601 S    
O30   Ba2   2.887726 S    
P9    C66   1.835005 S    
C1    C29   1.514761 S    
C35   H71   1.070464 S    
C28   H56   1.107751 S    
O6    Ba1   2.909114 S    
P2    O18   1.730460 S    
C34   H70   1.070454 S    
C7    H11   1.107832 S    
C58   C62   1.466794 A    
P7    O27   1.573396 D    
C55   C69   1.418010 A    
C29   N1    1.449090 S    
P3    C51   1.950492 S    
O2    Ba2   2.975176 S    
C18   H34   1.104608 S    
O41   C5    1.407723 S    
C32   N4    1.449027 S    
C39   N19   1.421343 S    
P13   C46   1.883616 S    
N5    O58   1.296664 A    
P10   C65   1.872751 S    
C3    H7    1.100337 S    
C18   H30   1.107122 S    
O12   P15   1.742802 S    
N24   O80   1.292362 A    
C4    H8    1.099513 S    
C29   H57   1.104190 S    
N4    O55   1.295763 A    
C9    C75   1.462974 S    
C59   C63   1.467322 A    
C10   H16   1.105302 S    
C55   C57   1.465050 A    
P3    O7    1.634843 S    
C16   C20   1.504420 S    
P9    O29   1.776062 S    
C31   N3    1.457653 S    
C57   C61   1.468075 A    
C44   C48   1.400871 A    
O42   C6    1.407717 S    
Ba4   O47   3.048757 S    
C12   H20   1.107122 S    
C10   H18   1.092886 S    
N17   O66   1.292979 A    
C13   H25   1.111375 S    
O9    Ba1   2.888368 S    
O24   C32   1.399469 S    
C30   H58   1.102761 S    
C9    H15   1.099258 S    
P7    C64   1.931811 S    
O18   C22   1.385509 S    
C27   N7    1.449921 S    
C25   H53   1.107635 S    
O40   C15   1.397393 S    
P5    Ba1   3.561562 S    
C41   C45   1.401051 A    
Ba1   Ba2   4.745174 S    
P6    O45   1.640082 S    
C17   H33   1.102263 S    
C14   H26   1.110260 S    
C33   C65   1.393025 A    
C38   C50   1.410297 A    
C51   C55   1.464593 A    
C76   N12   1.154624 T    
C78   N14   1.155533 T    
C26   N6    1.449845 S    
N22   O75   1.294977 A    
O23   C31   1.405888 S    
O15   P16   1.536091 D    
