data_mof_unit_42298.cif
_audit_creation_date              2013-03-05T15:44:12-0500
_audit_creation_method            fapswitch 2.2
_symmetry_space_group_name_H-M    P1
_symmetry_Int_Tables_number       1
_space_group_crystal_system       triclinic
_cell_length_a                    25.92735
_cell_length_b                    28.581958
_cell_length_c                    8.766216
_cell_angle_alpha                 89.771892
_cell_angle_beta                  97.282645
_cell_angle_gamma                 90.114445
_cell_volume                      6443.77888562

loop_
_atom_site_label
_atom_site_type_symbol
_atom_site_description
_atom_site_fract_x
_atom_site_fract_y
_atom_site_fract_z
_atom_type_partial_charge
P1    P     P_3+3 0.893960 0.447890 0.040050 0.549046
P2    P     P_3+3 0.893960 0.552110 0.540050 0.578093
P3    P     P_3+3 0.393960 0.947890 0.040050 0.550091
P4    P     P_3+3 0.393960 0.052110 0.540050 0.580772
O1    O     O_2   0.898940 0.431940 0.867860 -0.358977
O2    O     O_2   0.898940 0.568060 0.367860 -0.354712
O3    O     O_2   0.398940 0.931940 0.867860 -0.359577
O4    O     O_2   0.398940 0.068060 0.367860 -0.348898
O5    O     O_3   0.941140 0.476130 0.123050 -0.405026
O6    O     O_3   0.941140 0.523870 0.623050 -0.397998
O7    O     O_3   0.441140 0.976130 0.123050 -0.404483
O8    O     O_3   0.441140 0.023870 0.623050 -0.400765
O9    O     O_3   0.982430 0.389880 0.635700 -0.405843
O10   O     O_3   0.982430 0.610120 0.135700 -0.396571
O11   O     O_3   0.482430 0.889880 0.635700 -0.405506
O12   O     O_3   0.482430 0.110120 0.135700 -0.401201
O13   O     O_2   0.886193 0.365699 0.675948 -0.334000
O14   O     O_2   0.896651 0.651569 0.198247 -0.331435
O15   O     O_2   0.386158 0.865718 0.675477 -0.334659
O16   O     O_2   0.393390 0.146552 0.197531 -0.307867
O17   O     O_3   0.831859 0.474975 0.028272 -0.591889
O18   O     O_3   0.831266 0.526273 0.531696 -0.578941
O19   O     O_3   0.331711 0.974734 0.028385 -0.591252
O20   O     O_3   0.331280 0.026194 0.531243 -0.581755
O21   O     O_3   0.947727 0.295260 0.666683 -0.546447
O22   O     O_3   0.970186 0.707527 0.130659 -0.554949
O23   O     O_3   0.447746 0.795272 0.666731 -0.544609
O24   O     O_3   0.464082 0.206588 0.139863 -0.536747
H1    H     H_    0.023705 0.314370 0.741406 0.164529
H2    H     H_    0.044587 0.680215 0.136020 0.123673
H3    H     H_    0.524080 0.813978 0.738115 0.162089
H4    H     H_    0.541187 0.186794 0.189387 0.137965
C1    C     C_3   0.014818 0.238950 0.731503 -0.411837
C2    C     C_3   0.044161 0.754792 0.083611 -0.523266
C3    C     C_3   0.514610 0.738573 0.728863 -0.411337
C4    C     C_3   0.534689 0.256259 0.084296 -0.536906
H5    H     H_    0.993017 0.232931 0.830555 0.203650
H6    H     H_    0.014486 0.781126 0.039979 0.207274
H7    H     H_    0.492796 0.732506 0.827870 0.203532
H8    H     H_    0.503981 0.276460 0.012426 0.190388
P5    P     P_3+3 0.105800 0.447360 0.649510 0.411734
P6    P     P_3+3 0.105800 0.552640 0.149510 0.422874
P7    P     P_3+3 0.605800 0.947360 0.649510 0.410819
P8    P     P_3+3 0.605800 0.052640 0.149510 0.421070
P9    P     P_3+3 0.067466 0.346912 0.093858 0.416009
P10   P     P_3+3 0.065861 0.654615 0.591626 0.418083
P11   P     P_3+3 0.567508 0.846959 0.093700 0.417234
P12   P     P_3+3 0.567758 0.153234 0.590192 0.441237
O25   O     O_2   0.100770 0.431440 0.821660 -0.371211
O26   O     O_2   0.100770 0.568560 0.321660 -0.348816
O27   O     O_2   0.600770 0.931440 0.821660 -0.371037
O28   O     O_2   0.600770 0.068560 0.321660 -0.350278
O29   O     O_3   0.017130 0.389790 0.053700 -0.375499
O30   O     O_3   0.017130 0.610210 0.553700 -0.427454
O31   O     O_3   0.517130 0.889790 0.053700 -0.375488
O32   O     O_3   0.517130 0.110210 0.553700 -0.390901
O33   O     O_2   0.102535 0.352976 0.965445 -0.394666
O34   O     O_2   0.102846 0.648102 0.468426 -0.396221
O35   O     O_2   0.602618 0.853230 0.965535 -0.393637
O36   O     O_2   0.603912 0.146952 0.464699 -0.405030
O37   O     O_3   0.154864 0.489539 0.685620 -0.575073
O38   O     O_3   0.155691 0.511557 0.191480 -0.578608
O39   O     O_3   0.654905 0.989485 0.685623 -0.576122
O40   O     O_3   0.655772 0.011635 0.191537 -0.578183
O41   O     O_3   0.037415 0.292720 0.053205 -0.545170
O42   O     O_3   0.036074 0.708784 0.544708 -0.544538
O43   O     O_3   0.537598 0.792752 0.052127 -0.543378
O44   O     O_3   0.538188 0.207377 0.545504 -0.507623
C5    C     C_3   0.023970 0.272543 0.189530 0.295786
C6    C     C_3   0.982316 0.704679 0.553549 0.423304
C7    C     C_3   0.524583 0.772145 0.188284 0.291656
C8    C     C_3   0.507689 0.217730 0.662576 0.296737
H9    H     H_    0.993745 0.293934 0.235889 0.057198
H10   H     H_    0.964822 0.675985 0.478911 0.122448
H11   H     H_    0.493734 0.792822 0.234355 0.058390
H12   H     H_    0.480764 0.188366 0.679286 0.049257
H13   H     H_    0.058793 0.269300 0.276870 0.051582
H14   H     H_    0.975491 0.697720 0.674131 0.006796
H15   H     H_    0.559380 0.769548 0.275948 0.050850
H16   H     H_    0.533273 0.224566 0.771304 0.032235
C9    C     C_3   0.002821 0.223165 0.152659 -0.406604
C10   C     C_3   0.952799 0.749078 0.494470 -0.480707
C11   C     C_3   0.504857 0.722337 0.151379 -0.405898
C12   C     C_3   0.474094 0.260837 0.620338 -0.441631
H17   H     H_    0.965386 0.225341 0.075560 0.203172
H18   H     H_    0.912063 0.745782 0.518819 0.167328
H19   H     H_    0.467564 0.723712 0.073404 0.204898
H20   H     H_    0.443819 0.262391 0.699194 0.153260
H21   H     H_    0.031111 0.204520 0.089549 0.176608
H22   H     H_    0.950887 0.751075 0.367652 0.214435
H23   H     H_    0.533851 0.704341 0.089184 0.176488
H24   H     H_    0.454212 0.257159 0.500900 0.227511
C13   C     C_3   0.177987 0.501979 0.057633 0.184915
C14   C     C_3   0.190659 0.484727 0.579351 0.201121
C15   C     C_3   0.678226 0.002205 0.057820 0.184928
C16   C     C_3   0.690461 0.984873 0.578579 0.200963
H25   H     H_    0.147742 0.493441 0.963042 0.120036
H26   H     H_    0.170813 0.480438 0.460504 0.095619
H27   H     H_    0.648077 0.994047 0.962490 0.119311
H28   H     H_    0.670403 0.980611 0.459968 0.096180
H29   H     H_    0.200489 0.532485 0.023978 0.145487
H30   H     H_    0.216181 0.454146 0.609727 0.085305
H31   H     H_    0.701087 0.032647 0.025368 0.144902
H32   H     H_    0.716126 0.954325 0.608303 0.087042
C17   C     C_3   0.213173 0.459229 0.082930 0.082801
C18   C     C_3   0.224439 0.528500 0.583235 0.081548
C19   C     C_3   0.713013 0.959179 0.082520 0.081957
C20   C     C_3   0.724014 0.028789 0.582172 0.084244
H33   H     H_    0.190224 0.428395 0.112845 0.106959
H34   H     H_    0.199826 0.559624 0.550701 0.130644
H35   H     H_    0.689690 0.928405 0.110841 0.107714
H36   H     H_    0.699173 0.059879 0.551059 0.129501
H37   H     H_    0.230051 0.451631 0.975580 0.132069
H38   H     H_    0.253212 0.524623 0.500982 0.151966
H39   H     H_    0.730132 0.951773 0.975422 0.132478
H40   H     H_    0.752419 0.025229 0.498673 0.151849
Ba1   Ba    Ba6+2 0.999910 0.465960 0.844870 1.551756
Ba2   Ba    Ba6+2 0.999910 0.534040 0.344870 1.556588
Ba3   Ba    Ba6+2 0.499910 0.965960 0.844870 1.553575
Ba4   Ba    Ba6+2 0.499910 0.034040 0.344870 1.567796
C21   C     C_3   0.834848 0.523703 0.035232 0.710955
C22   C     C_3   0.831651 0.477286 0.532281 0.667412
C23   C     C_3   0.334222 0.023510 0.034208 0.708858
C24   C     C_3   0.331768 0.977200 0.531275 0.667479
H41   H     H_    0.863094 0.535408 0.132026 0.130335
H42   H     H_    0.856669 0.463337 0.633016 0.126202
H43   H     H_    0.362116 0.035617 0.131345 0.128337
H44   H     H_    0.356670 0.963181 0.632161 0.126010
C25   C     C_3   0.781074 0.547351 0.039828 0.188026
C26   C     C_3   0.775027 0.458069 0.524956 0.261321
C27   C     C_3   0.280058 0.046629 0.037104 0.191149
C28   C     C_3   0.275187 0.957842 0.522695 0.261105
H45   H     H_    0.755857 0.542296 0.929117 0.154151
H46   H     H_    0.750073 0.479853 0.442185 0.119308
H47   H     H_    0.254978 0.040661 0.926792 0.153968
H48   H     H_    0.250374 0.979612 0.439704 0.119709
O45   O     O_3   0.058810 0.523750 0.066650 -0.448837
O46   O     O_3   0.058810 0.476250 0.566650 -0.431082
O47   O     O_3   0.558810 0.023750 0.066650 -0.449358
O48   O     O_3   0.558810 0.976250 0.566650 -0.431892
P13   P     P_3+3 0.937323 0.654852 0.083436 0.471121
P14   P     P_3+3 0.930793 0.350114 0.586223 0.471607
P15   P     P_3+3 0.434666 0.152934 0.086012 0.498918
P16   P     P_3+3 0.430836 0.850103 0.586099 0.473027
C29   C     C_3   0.001408 0.288022 0.666773 0.390285
C30   C     C_3   0.018357 0.706238 0.071843 0.380084
C31   C     C_3   0.501263 0.787700 0.664475 0.392393
C32   C     C_3   0.515142 0.206051 0.100214 0.442570
H49   H     H_    0.012150 0.290550 0.548012 -0.009981
H50   H     H_    0.012738 0.696564 0.947994 -0.021884
H51   H     H_    0.511398 0.790066 0.545003 -0.012012
H52   H     H_    0.516988 0.188465 0.988264 -0.067122
H53   H     H_    0.001340 0.212028 0.645276 0.198220
H54   H     H_    0.075897 0.756119 0.009587 0.182344
H55   H     H_    0.501057 0.711731 0.642363 0.197032
H56   H     H_    0.569530 0.256064 0.022251 0.172034
C33   C     C_R   0.916583 0.382789 0.282088 -0.409629
C34   C     C_R   0.917153 0.617159 0.784217 -0.447622
C35   C     C_R   0.416751 0.882777 0.282014 -0.411081
C36   C     C_R   0.416958 0.116894 0.784525 -0.443101
C37   C     C_R   0.889528 0.389217 0.135577 0.413788
C38   C     C_R   0.890843 0.611027 0.636078 0.388100
C39   C     C_R   0.389704 0.889204 0.135504 0.414584
C40   C     C_R   0.390986 0.110995 0.635875 0.407227
C41   C     C_R   0.851846 0.355457 0.079364 -0.203207
C42   C     C_R   0.854666 0.645640 0.577021 -0.214432
C43   C     C_R   0.352062 0.855449 0.079262 -0.200922
C44   C     C_R   0.355045 0.145729 0.576279 -0.174730
C45   C     C_R   0.839829 0.317149 0.171661 0.108132
C46   C     C_R   0.843658 0.684861 0.667205 0.057648
C47   C     C_R   0.340078 0.817096 0.171496 0.107769
C48   C     C_R   0.343847 0.184845 0.666515 0.063315
C49   C     C_R   0.865985 0.313704 0.323155 -0.200079
C50   C     C_R   0.870198 0.688566 0.818502 -0.206696
C51   C     C_R   0.366351 0.813564 0.322841 -0.204831
C52   C     C_R   0.369430 0.187994 0.819124 -0.221397
C53   C     C_R   0.903965 0.346979 0.379119 0.241893
C54   C     C_R   0.906125 0.654154 0.878575 0.282470
C55   C     C_R   0.404209 0.846909 0.378916 0.243593
C56   C     C_R   0.405109 0.153398 0.879638 0.264858
C57   C     C_R   0.811973 0.235394 0.089102 -0.251063
C58   C     C_R   0.814739 0.769209 0.620617 -0.270389
C59   C     C_R   0.311587 0.734711 0.099186 -0.253112
C60   C     C_R   0.315355 0.269176 0.616244 -0.249615
C61   C     C_R   0.273474 0.700579 0.053493 -0.109601
C62   C     C_R   0.277627 0.303648 0.568938 -0.134637
C63   C     C_R   0.773989 0.201049 0.044471 -0.109227
C64   C     C_R   0.777240 0.803669 0.571844 -0.126940
C65   C     C_R   0.220533 0.712564 0.022323 0.102511
C66   C     C_R   0.225866 0.291209 0.515548 0.127698
C67   C     C_R   0.720704 0.212187 0.024600 0.101724
C68   C     C_R   0.725716 0.791247 0.515918 0.127571
C69   C     C_R   0.207767 0.760349 0.027296 -0.328927
C70   C     C_R   0.214900 0.243093 0.496442 -0.319089
C71   C     C_R   0.707044 0.259396 0.040337 -0.323220
C72   C     C_R   0.714900 0.743160 0.495076 -0.321369
C73   C     C_R   0.744935 0.293964 0.084904 0.528567
C74   C     C_R   0.752182 0.708427 0.542454 0.524101
C75   C     C_R   0.245683 0.794631 0.074497 0.525580
C76   C     C_R   0.252235 0.208392 0.543705 0.518079
C77   C     C_R   0.798266 0.282077 0.114056 0.011857
C78   C     C_R   0.803108 0.720955 0.607873 0.025170
C79   C     C_R   0.298480 0.782056 0.113823 0.017182
C80   C     C_R   0.303410 0.220946 0.606572 0.025818
C81   C     C_R   0.147651 0.681288 0.835227 -0.328954
C82   C     C_R   0.152548 0.323239 0.331301 -0.376925
C83   C     C_R   0.649210 0.180175 0.834582 -0.332801
C84   C     C_R   0.652569 0.823345 0.331334 -0.376758
C85   C     C_R   0.104640 0.652438 0.792637 0.237157
C86   C     C_R   0.107930 0.350300 0.291883 0.189533
C87   C     C_R   0.606406 0.151137 0.791265 0.202477
C88   C     C_R   0.607939 0.850368 0.291828 0.188914
C89   C     C_R   0.122625 0.608727 0.039542 0.189465
C90   C     C_R   0.123623 0.391474 0.541490 0.163195
C91   C     C_R   0.622921 0.108546 0.040073 0.187168
C92   C     C_R   0.623549 0.891492 0.541541 0.163908
C93   C     C_R   0.166783 0.638795 0.082097 0.027187
C94   C     C_R   0.168654 0.362158 0.584164 0.014079
C95   C     C_R   0.667080 0.138523 0.083168 0.035935
C96   C     C_R   0.668518 0.862166 0.584442 0.013847
C97   C     C_R   0.178268 0.676383 0.980172 0.044140
C98   C     C_R   0.182624 0.326960 0.477573 0.079779
C99   C     C_R   0.678947 0.175806 0.980970 0.046382
C100  C     C_R   0.682534 0.827004 0.477808 0.079789
C101  C     C_R   0.090946 0.619667 0.901133 -0.187436
C102  C     C_R   0.092504 0.380859 0.402564 -0.143920
C103  C     C_R   0.591793 0.119155 0.900643 -0.167856
C104  C     C_R   0.592478 0.880903 0.402519 -0.143930
H57   H     H_    0.285795 0.664989 0.040190 0.156731
H58   H     H_    0.289089 0.340033 0.575265 0.142777
H59   H     H_    0.786585 0.166023 0.022631 0.154871
H60   H     H_    0.788679 0.840039 0.579490 0.143427
H61   H     H_    0.852468 0.225752 0.100968 0.146463
H62   H     H_    0.853151 0.780507 0.669057 0.150963
H63   H     H_    0.351778 0.724303 0.120987 0.147592
H64   H     H_    0.354154 0.280395 0.661104 0.144403
H65   H     H_    0.830662 0.359388 0.966371 0.148478
H66   H     H_    0.834036 0.641216 0.462730 0.206431
H67   H     H_    0.330883 0.859463 0.966227 0.149983
H68   H     H_    0.334557 0.141406 0.461743 0.197931
H69   H     H_    0.167712 0.771041 0.997936 0.170049
H70   H     H_    0.176287 0.232168 0.448384 0.174246
H71   H     H_    0.666540 0.269400 0.018498 0.159586
H72   H     H_    0.676418 0.732263 0.445663 0.174234
H73   H     H_    0.157346 0.707890 0.755181 0.169099
H74   H     H_    0.163467 0.298422 0.248030 0.171317
H75   H     H_    0.659226 0.206630 0.754491 0.170226
H76   H     H_    0.663553 0.798577 0.248013 0.170789
H77   H     H_    0.855423 0.286289 0.399029 0.155574
H78   H     H_    0.861562 0.717267 0.891377 0.151136
H79   H     H_    0.355868 0.786104 0.398673 0.155081
H80   H     H_    0.360237 0.216392 0.892437 0.154927
H81   H     H_    0.941002 0.410797 0.330771 0.168338
H82   H     H_    0.940533 0.588768 0.835041 0.175684
H83   H     H_    0.441092 0.910819 0.330796 0.168445
H84   H     H_    0.440534 0.088566 0.835108 0.172671
Cl1   Cl    Cl    0.265328 0.468699 0.232266 -0.645689
Cl2   Cl    Cl    0.259482 0.537281 0.769230 -0.646570
Cl3   Cl    Cl    0.764869 0.967901 0.233328 -0.646049
Cl4   Cl    Cl    0.759636 0.037323 0.767592 -0.646523
Cl5   Cl    Cl    0.854260 0.540903 0.863829 -0.695152
Cl6   Cl    Cl    0.855657 0.460860 0.365601 -0.681680
Cl7   Cl    Cl    0.353862 0.040587 0.862944 -0.698087
Cl8   Cl    Cl    0.356057 0.961029 0.364997 -0.681793
Cl9   Cl    Cl    0.789927 0.609348 0.059214 -0.576920
Cl10  Cl    Cl    0.768158 0.399178 0.451697 -0.561135
Cl11  Cl    Cl    0.287590 0.108845 0.051908 -0.576304
Cl12  Cl    Cl    0.268500 0.898931 0.449275 -0.563847
C105  C     C_3   0.750788 0.530794 0.168864 -0.380653
C106  C     C_3   0.723532 0.483810 0.134888 -0.787293
H85   H     H_    0.702428 0.483373 0.016507 0.247730
H86   H     H_    0.751967 0.454792 0.150470 0.336344
H87   H     H_    0.694330 0.478040 0.215333 0.264915
H88   H     H_    0.777255 0.529837 0.277392 0.245002
H89   H     H_    0.719945 0.556779 0.183624 0.255879
C107  C     C_3   0.751357 0.462232 0.676362 -0.467836
C108  C     C_3   0.763562 0.420483 0.783380 -0.609733
H90   H     H_    0.740221 0.389458 0.741289 0.275454
H91   H     H_    0.805229 0.412009 0.789828 0.268294
H92   H     H_    0.753806 0.428540 0.899183 0.261573
H93   H     H_    0.765249 0.494779 0.734960 0.223810
H94   H     H_    0.708352 0.465067 0.650760 0.217686
C109  C     C_3   0.250054 0.030392 0.167133 -0.384620
C110  C     C_3   0.222933 0.983271 0.134566 -0.783662
H95   H     H_    0.201507 0.982596 0.016613 0.248719
H96   H     H_    0.251535 0.954383 0.149788 0.336669
H97   H     H_    0.193985 0.977515 0.215805 0.264553
H98   H     H_    0.276715 0.029777 0.275406 0.243214
H99   H     H_    0.219135 0.056326 0.181636 0.256741
C111  C     C_3   0.251146 0.962053 0.673271 -0.472378
C112  C     C_3   0.263689 0.920661 0.781422 -0.603055
H100  H     H_    0.240690 0.889377 0.740001 0.277995
H101  H     H_    0.305443 0.912452 0.788794 0.267369
H102  H     H_    0.253707 0.929067 0.896685 0.263752
H103  H     H_    0.264578 0.994847 0.731030 0.223792
H104  H     H_    0.208126 0.964449 0.646909 0.219873
C113  C     C_3   0.072852 0.231886 0.786885 -0.308183
C114  C     C_3   0.105298 0.226710 0.655362 -0.903176
H105  H     H_    0.094114 0.194505 0.589055 0.275082
H106  H     H_    0.100764 0.257792 0.578485 0.242426
H107  H     H_    0.146728 0.223423 0.704440 0.280676
H108  H     H_    0.088416 0.261358 0.860257 0.250105
H109  H     H_    0.077587 0.199569 0.858144 0.216697
C115  C     C_3   0.065317 0.768918 0.247934 -0.227470
C116  C     C_3   0.118379 0.747737 0.304255 -0.737793
H110  H     H_    0.120822 0.710871 0.267550 0.251468
H111  H     H_    0.149362 0.768301 0.259126 0.250826
H112  H     H_    0.125439 0.749204 0.431751 0.259910
H113  H     H_    0.068860 0.807655 0.254177 0.196178
H114  H     H_    0.037015 0.758467 0.324619 0.249700
C117  C     C_3   0.572628 0.731460 0.784623 -0.310340
C118  C     C_3   0.605345 0.726663 0.653579 -0.904497
H115  H     H_    0.594753 0.694297 0.587518 0.275310
H116  H     H_    0.600491 0.757678 0.576461 0.242467
H117  H     H_    0.646773 0.723858 0.703141 0.280217
H118  H     H_    0.588050 0.760780 0.858935 0.249914
H119  H     H_    0.577315 0.698979 0.855061 0.216256
C119  C     C_3   0.547705 0.280827 0.239829 -0.217355
C120  C     C_3   0.602390 0.268944 0.317089 -0.768920
H120  H     H_    0.608246 0.230588 0.326298 0.270001
H121  H     H_    0.631891 0.284191 0.250292 0.261932
H122  H     H_    0.608676 0.284052 0.434305 0.243204
H123  H     H_    0.545521 0.319306 0.221395 0.198913
H124  H     H_    0.518475 0.271405 0.316759 0.243171
C121  C     C_3   0.996028 0.194032 0.296361 -0.332339
C122  C     C_3   0.943703 0.202393 0.353424 -0.868198
H125  H     H_    0.938997 0.239888 0.380216 0.254832
H126  H     H_    0.911940 0.190776 0.265493 0.256549
H127  H     H_    0.940926 0.181217 0.458377 0.255805
H128  H     H_    0.998450 0.156307 0.267720 0.223787
H129  H     H_    0.027888 0.201506 0.389509 0.202800
C123  C     C_3   0.975757 0.795196 0.562103 -0.207473
C124  C     C_3   0.981838 0.795568 0.736659 -0.878843
H130  H     H_    0.945195 0.784830 0.780259 0.248524
H131  H     H_    0.013482 0.771168 0.779852 0.260238
H132  H     H_    0.992722 0.831219 0.779280 0.254127
H133  H     H_    0.014240 0.802056 0.523720 0.208578
H134  H     H_    0.949437 0.824229 0.518228 0.197144
C125  C     C_3   0.498454 0.693140 0.295284 -0.330184
C126  C     C_3   0.444676 0.698457 0.345831 -0.871617
H135  H     H_    0.436385 0.735760 0.366994 0.253922
H136  H     H_    0.415039 0.683921 0.256455 0.257776
H137  H     H_    0.442457 0.678120 0.452841 0.256160
H138  H     H_    0.504123 0.655580 0.269508 0.223298
H139  H     H_    0.528555 0.702742 0.390955 0.202455
C127  C     C_3   0.505875 0.306233 0.637404 -0.271068
C128  C     C_3   0.472307 0.348348 0.583277 -0.842288
H140  H     H_    0.457145 0.344781 0.459527 0.260688
H141  H     H_    0.439146 0.351389 0.651413 0.261574
H142  H     H_    0.496029 0.380769 0.598636 0.257969
H143  H     H_    0.521859 0.311284 0.759962 0.194456
H144  H     H_    0.538999 0.304368 0.569340 0.220886
C129  C     C_3   0.199076 0.633754 0.238095 -0.378370
C130  C     C_3   0.244377 0.599794 0.236068 -0.795715
H145  H     H_    0.232667 0.564674 0.271246 0.284960
H146  H     H_    0.257126 0.596962 0.120446 0.272853
H147  H     H_    0.277808 0.611241 0.319486 0.251762
H148  H     H_    0.214333 0.668342 0.279811 0.199677
H149  H     H_    0.174877 0.622054 0.325774 0.243898
C131  C     C_3   0.200453 0.367703 0.741375 -0.346241
C132  C     C_3   0.199835 0.323962 0.842673 -0.751045
H150  H     H_    0.162014 0.305661 0.820095 0.268065
H151  H     H_    0.231038 0.299215 0.822772 0.242702
H152  H     H_    0.206586 0.334018 0.965899 0.246444
H153  H     H_    0.241032 0.377525 0.729127 0.175058
H154  H     H_    0.185652 0.396804 0.805197 0.215417
C133  C     C_3   0.699567 0.133370 0.238758 -0.363080
C134  C     C_3   0.746057 0.100905 0.234070 -0.806667
H155  H     H_    0.735595 0.065107 0.266430 0.285212
H156  H     H_    0.758841 0.099454 0.118253 0.272593
H157  H     H_    0.779087 0.112705 0.318321 0.253779
H158  H     H_    0.713534 0.168172 0.282349 0.199234
H159  H     H_    0.676026 0.120102 0.325849 0.242647
C135  C     C_3   0.700128 0.867659 0.742026 -0.345104
C136  C     C_3   0.699392 0.823880 0.843136 -0.750899
H160  H     H_    0.661574 0.805589 0.820123 0.267944
H161  H     H_    0.730609 0.799118 0.823604 0.243135
H162  H     H_    0.706018 0.833898 0.966409 0.246509
H163  H     H_    0.740705 0.877623 0.730536 0.174826
H164  H     H_    0.685245 0.896710 0.805823 0.215920
Cl13  Cl    Cl    0.723643 0.351642 0.104826 -0.654290
Cl14  Cl    Cl    0.731449 0.649673 0.529379 -0.632194
Cl15  Cl    Cl    0.224681 0.852600 0.089719 -0.659300
Cl16  Cl    Cl    0.231480 0.149628 0.532967 -0.631157
C137  C     C_3   0.044502 0.592127 0.853527 -0.437864
C138  C     C_3   0.060951 0.552053 0.756911 -0.379317
H165  H     H_    0.088227 0.562630 0.675013 0.219073
H166  H     H_    0.081442 0.524594 0.826197 0.222178
H167  H     H_    0.026219 0.537995 0.691469 0.281367
H168  H     H_    0.022457 0.581528 0.943468 0.242239
H169  H     H_    0.015028 0.616170 0.799957 0.148396
C139  C     C_3   0.045422 0.407602 0.355076 -0.432950
C140  C     C_3   0.061340 0.448338 0.258971 -0.411723
H170  H     H_    0.083286 0.475231 0.328621 0.237724
H171  H     H_    0.087548 0.438329 0.173883 0.206015
H172  H     H_    0.026192 0.462581 0.196351 0.284507
H173  H     H_    0.016101 0.383308 0.301677 0.150233
H174  H     H_    0.023436 0.417748 0.445165 0.244005
C141  C     C_3   0.544919 0.092088 0.853423 -0.438781
C142  C     C_3   0.560813 0.051773 0.756891 -0.389446
H175  H     H_    0.588142 0.061917 0.674708 0.217410
H176  H     H_    0.581085 0.024215 0.826196 0.224902
H177  H     H_    0.525942 0.037983 0.691639 0.281013
H178  H     H_    0.522840 0.081772 0.943643 0.242261
H179  H     H_    0.515602 0.116325 0.800126 0.146544
C143  C     C_3   0.545402 0.907625 0.355012 -0.433527
C144  C     C_3   0.561314 0.948359 0.258894 -0.411860
H180  H     H_    0.583218 0.975272 0.328543 0.237471
H181  H     H_    0.587551 0.938364 0.173868 0.206095
H182  H     H_    0.526169 0.962578 0.196208 0.284429
H183  H     H_    0.516126 0.883291 0.301633 0.150366
H184  H     H_    0.523409 0.917773 0.445090 0.243941

loop_
_geom_bond_atom_site_label_1
_geom_bond_atom_site_label_2
_geom_bond_distance
_ccdc_geom_bond_type
C60   C80   1.412790 A    
C67   C99   1.514401 S    
C112  H100  1.110201 S    
P5    O37   1.751171 S    
C57   C63   1.409968 A    
P7    O39   1.750874 S    
O31   Ba3   2.838178 S    
C124  H130  1.110353 S    
P8    O40   1.752039 S    
C115  H114  1.096433 S    
P9    O33   1.543129 D    
C119  H123  1.111489 S    
C110  H95   1.110237 S    
C81   H73   1.083225 S    
C131  H153  1.106541 S    
C15   H27   1.094984 S    
P14   C53   1.862492 S    
C27   Cl11  1.791969 S    
C24   Cl8   1.724567 S    
C141  H179  1.088802 S    
C144  H182  1.081756 S    
C58   C64   1.411820 A    
C30   H50   1.112883 S    
C4    C32   1.532692 S    
C6    H10   1.110870 S    
C113  H108  1.106015 S    
C94   C98   1.452980 A    
C133  H158  1.110454 S    
P4    O8    1.565522 S    
P12   O36   1.544280 D    
C63   H59   1.078988 S    
C16   C20   1.523919 S    
C143  H184  1.072120 S    
P6    O45   1.571674 S    
C26   H46   1.100797 S    
P5    O25   1.595507 D    
C134  H155  1.103175 S    
O18   C22   1.400184 S    
C66   C70   1.410125 A    
C41   C45   1.416349 A    
C132  H152  1.111066 S    
P13   C54   1.873960 S    
O3    Ba3   2.821607 S    
C40   C44   1.415280 A    
C126  H135  1.109068 S    
C13   H29   1.107803 S    
O37   C14   1.403144 S    
C22   Cl6   1.726260 S    
C43   C47   1.416768 A    
C69   C75   1.412077 A    
O39   C16   1.403054 S    
O13   P14   1.545857 D    
C62   C66   1.409485 A    
C138  H166  1.087750 S    
O44   C8    1.405416 S    
C122  H127  1.109125 S    
C101  C137  1.454373 S    
O9    P14   1.767189 S    
P5    O46   1.571193 S    
C8    C12   1.527329 S    
C25   H45   1.109099 S    
P8    O47   1.571674 S    
C16   H32   1.108869 S    
C106  H86   1.107270 S    
C138  H167  1.082063 S    
C114  H105  1.108900 S    
C95   C133  1.516281 S    
C36   C40   1.399569 A    
C69   H69   1.082130 S    
C33   C53   1.392980 A    
C46   C50   1.418889 A    
C124  H132  1.110262 S    
C109  H98   1.101174 S    
C110  H97   1.109790 S    
C57   C77   1.406558 A    
C12   H20   1.110826 S    
C83   H75   1.083209 S    
C52   H80   1.082773 S    
C136  H160  1.106370 S    
C62   H58   1.080741 S    
C42   H66   1.082012 S    
C11   H23   1.111137 S    
C140  H170  1.096028 S    
C102  C139  1.456026 S    
C34   C54   1.397195 A    
P2    O18   1.777187 S    
C2    C30   1.537540 S    
C20   H40   1.107297 S    
O42   C6    1.410344 S    
C107  H94   1.112172 S    
C121  H129  1.106549 S    
C135  H163  1.106137 S    
C6    C10   1.537022 S    
C46   C78   1.517099 S    
P3    O7    1.565989 S    
C58   H62   1.081209 S    
P11   O35   1.542762 D    
C14   H30   1.108380 S    
O38   C13   1.400346 S    
P8    Ba4   3.454262 S    
Ba2   O46   2.841118 S    
C134  H157  1.110457 S    
C37   C41   1.416478 A    
C120  H121  1.108159 S    
C83   C99   1.416012 A    
C5    H13   1.111077 S    
O21   P14   1.750373 S    
C126  H137  1.109224 S    
C94   C131  1.522268 S    
P2    C38   1.892088 S    
C27   C109  1.529374 S    
C127  H143  1.111292 S    
C92   C104  1.406720 A    
C105  H88   1.100511 S    
C111  H104  1.112212 S    
Ba3   O48   3.050209 S    
C17   H37   1.109350 S    
C112  H101  1.101977 S    
C3    H55   1.105933 S    
O29   Ba1   2.838178 S    
C66   C98   1.522885 S    
C1    H53   1.105507 S    
C128  H141  1.111066 S    
C141  C142  1.520424 S    
C118  H115  1.108839 S    
C24   C28   1.559816 S    
C19   Cl3   1.779945 S    
O22   C30   1.410905 S    
C135  C136  1.532018 S    
C36   C56   1.396899 A    
C51   H79   1.082852 S    
O25   Ba1   2.828437 S    
C60   C62   1.413259 A    
C116  H111  1.106381 S    
C74   C78   1.417148 A    
O27   Ba3   2.828437 S    
Ba4   O48   2.841118 S    
C81   C85   1.398626 A    
P6    O38   1.751970 S    
C76   C80   1.416775 A    
P8    O28   1.599079 D    
C43   H67   1.076087 S    
C125  H138  1.111827 S    
P9    O29   1.793200 S    
C38   C42   1.415294 A    
C108  H90   1.110197 S    
P10   O34   1.544498 D    
C83   C87   1.398811 A    
O5    Ba2   2.847272 S    
C86   C102  1.403854 A    
O7    Ba4   2.847272 S    
C131  C132  1.531821 S    
C15   H31   1.108147 S    
C7    C11   1.533520 S    
C9    C121  1.535766 S    
C140  H172  1.081830 S    
C123  C124  1.518359 S    
C90   C94   1.447708 A    
C96   C135  1.522765 S    
O19   C23   1.396337 S    
C49   H77   1.082842 S    
C95   C99   1.446999 A    
C88   C104  1.403822 A    
C31   H51   1.113385 S    
C34   H82   1.074721 S    
C21   H41   1.100898 S    
C139  H173  1.090634 S    
O8    Ba3   2.841804 S    
C82   C86   1.398564 A    
C23   H43   1.101399 S    
C28   H48   1.099842 S    
C73   Cl13  1.755939 S    
P7    O48   1.571193 S    
P1    Ba1   3.452417 S    
C10   C123  1.535234 S    
C75   Cl15  1.755930 S    
C129  H149  1.102557 S    
P3    Ba3   3.452417 S    
P6    O26   1.599079 D    
C42   C46   1.424305 A    
P9    O41   1.749962 S    
C26   C107  1.536395 S    
C13   H25   1.094557 S    
C136  H162  1.111068 S    
C17   H33   1.111372 S    
C21   C25   1.555801 S    
O26   Ba2   2.824224 S    
C19   H35   1.111368 S    
O14   P13   1.549740 D    
C11   C125  1.536073 S    
C32   H52   1.110847 S    
C142  H175  1.110001 S    
C123  H133  1.109509 S    
C61   C65   1.407871 A    
C84   C100  1.418118 A    
C118  H117  1.109352 S    
C119  H124  1.108598 S    
C64   C68   1.408688 A    
C110  H96   1.107237 S    
H3    C31   1.111782 S    
C8    H16   1.107851 S    
O6    Ba1   2.841804 S    
Ba1   Ba2   4.788537 S    
C128  H142  1.110319 S    
C131  H154  1.100697 S    
C82   C98   1.418030 A    
C4    C119  1.534908 S    
C16   H28   1.109083 S    
O11   Ba3   2.848376 S    
C91   C103  1.408962 A    
C144  H181  1.109470 S    
C67   C71   1.407435 A    
C89   C101  1.410637 A    
C65   C69   1.408132 A    
C52   C56   1.410663 A    
C35   C55   1.392879 A    
C107  C108  1.523632 S    
C130  H145  1.102242 S    
C108  H92   1.102147 S    
C109  C110  1.529122 S    
C45   C49   1.415678 A    
C122  H126  1.105720 S    
C12   H24   1.112144 S    
P5    Ba1   3.458046 S    
C1    C113  1.534815 S    
C9    H17   1.111882 S    
C48   C52   1.418988 A    
P7    Ba3   3.458046 S    
C71   C73   1.412761 A    
C11   H19   1.111783 S    
O15   P16   1.545922 D    
Ba1   O46   3.050209 S    
C106  H87   1.109820 S    
C35   H83   1.075079 S    
C134  H156  1.108184 S    
C129  C130  1.527093 S    
P2    Ba2   3.456094 S    
C44   H68   1.082155 S    
C132  H151  1.106468 S    
C85   C101  1.408954 A    
P1    O1    1.599402 D    
C68   C72   1.410174 A    
C82   H74   1.083251 S    
C126  H136  1.107075 S    
P10   O42   1.755522 S    
P3    O3    1.599402 D    
H1    C29   1.111606 S    
P4    O20   1.777485 S    
C2    C115  1.530465 S    
C14   H26   1.109089 S    
P8    C91   1.939996 S    
P12   O32   1.796609 S    
C111  C112  1.522714 S    
C48   C80   1.516685 S    
C60   H64   1.081109 S    
C71   H71   1.082153 S    
C104  C143  1.455613 S    
C137  H169  1.088716 S    
C5    H9    1.112524 S    
O22   P13   1.753415 S    
C50   C54   1.409821 A    
P3    C39   1.880790 S    
C24   H44   1.101353 S    
C9    H21   1.111251 S    
C2    H54   1.111132 S    
P1    C37   1.881270 S    
C105  C106  1.528895 S    
C75   C79   1.415353 A    
O16   P15   1.548323 D    
C141  H178  1.073495 S    
C114  H106  1.110302 S    
C76   Cl16  1.761880 S    
C142  H177  1.081292 S    
C7    H15   1.110886 S    
C124  H131  1.106460 S    
C115  H113  1.111813 S    
C125  H139  1.105802 S    
O24   C32   1.410825 S    
C92   C96   1.446927 A    
O12   P15   1.756669 S    
P1    O5    1.565989 S    
C68   C100  1.522053 S    
C93   C97   1.449042 A    
C72   C74   1.411073 A    
C128  H140  1.111020 S    
P6    Ba2   3.454262 S    
C10   H18   1.107478 S    
C1    H5    1.107225 S    
C20   H36   1.111144 S    
C114  H107  1.109371 S    
C3    H7    1.107289 S    
C91   C95   1.441083 A    
C125  C126  1.523674 S    
P12   C87   1.914741 S    
P10   O30   1.791123 S    
O23   P16   1.750197 S    
C113  H109  1.111276 S    
C121  H128  1.111781 S    
O24   P15   1.751016 S    
C135  H164  1.100350 S    
P12   O44   1.749215 S    
C15   C19   1.524953 S    
C18   H38   1.107281 S    
C143  H183  1.090560 S    
C28   C111  1.534782 S    
C33   C37   1.394846 A    
C25   Cl9   1.792311 S    
C4    H56   1.111958 S    
C137  C138  1.520647 S    
C17   Cl1   1.779921 S    
C23   C27   1.556404 S    
C58   C78   1.413030 A    
C93   C129  1.516734 S    
C139  C140  1.521244 S    
O9    Ba1   2.848376 S    
Ba3   Ba4   4.788537 S    
C127  H144  1.107608 S    
H4    C32   1.110965 S    
P10   C85   1.915726 S    
C61   H57   1.078023 S    
C41   H65   1.075568 S    
C10   H22   1.107775 S    
Ba3   O47   2.846567 S    
C36   H84   1.075279 S    
O12   Ba4   2.838595 S    
C138  H165  1.110458 S    
P5    C90   1.946168 S    
P7    O27   1.595507 D    
C12   C127  1.533254 S    
O41   C5    1.407700 S    
C117  H119  1.111207 S    
C103  C141  1.455367 S    
C118  H116  1.110294 S    
O43   C7    1.407530 S    
C47   C79   1.511059 S    
C121  C122  1.523844 S    
C5    C9    1.533799 S    
C45   C77   1.510920 S    
C120  H120  1.108279 S    
C26   Cl10  1.804375 S    
C57   H61   1.078128 S    
C44   C48   1.423550 A    
C116  H110  1.107212 S    
P6    C89   1.944468 S    
C106  H85   1.110226 S    
C64   H60   1.080443 S    
C29   H49   1.113323 S    
C117  C118  1.518801 S    
P1    O17   1.778934 S    
C6    H14   1.110784 S    
C3    C117  1.535260 S    
C113  C114  1.518769 S    
P3    O19   1.779438 S    
C133  C134  1.527389 S    
P4    O4    1.595824 D    
C109  H99   1.112291 S    
P7    C92   1.944953 S    
C140  H171  1.109464 S    
C72   H72   1.081849 S    
C27   H47   1.108384 S    
C59   C61   1.409814 A    
C65   C97   1.517443 S    
C107  H93   1.102058 S    
O20   C24   1.400426 S    
C139  H174  1.072072 S    
C21   Cl5   1.713924 S    
C23   Cl7   1.714220 S    
O10   Ba2   2.838595 S    
C144  H180  1.095935 S    
P4    C40   1.890091 S    
C73   C77   1.415733 A    
Ba2   O45   3.052668 S    
C63   C67   1.407353 A    
C129  H148  1.110039 S    
C84   C88   1.398333 A    
C13   C17   1.524931 S    
C120  H122  1.108899 S    
C87   C103  1.407904 A    
C117  H118  1.106126 S    
O32   Ba4   2.847975 S    
P2    O2    1.595824 D    
P11   O43   1.750056 S    
H2    C30   1.110821 S    
C136  H161  1.106212 S    
C70   C76   1.411139 A    
C105  H89   1.112304 S    
C111  H103  1.101806 S    
C4    H8    1.111746 S    
C112  H102  1.101876 S    
C142  H176  1.087506 S    
C123  H134  1.111477 S    
C89   C93   1.441834 A    
C50   H78   1.082754 S    
C51   C55   1.411068 A    
C47   C51   1.415801 A    
C137  H168  1.073201 S    
C122  H125  1.108330 S    
O1    Ba1   2.821607 S    
C22   H42   1.101145 S    
C39   C43   1.415774 A    
C119  C120  1.530017 S    
C33   H81   1.075182 S    
C28   Cl12  1.805162 S    
P16   C55   1.861919 S    
C49   C53   1.411522 A    
C116  H112  1.110361 S    
C74   Cl14  1.761928 S    
C8    H12   1.111664 S    
Ba4   O47   3.052668 S    
C3    C31   1.534944 S    
P15   C56   1.873155 S    
C19   H39   1.109432 S    
C1    C29   1.534814 S    
C84   H76   1.083242 S    
O28   Ba4   2.824224 S    
C115  C116  1.527007 S    
C130  H146  1.108519 S    
C108  H91   1.102015 S    
C35   C39   1.394747 A    
C20   Cl4   1.782194 S    
P2    O6    1.565522 S    
O30   Ba2   2.847975 S    
C96   C100  1.452899 A    
O4    Ba4   2.825761 S    
P11   O31   1.792908 S    
C18   H34   1.110877 S    
C143  C144  1.521201 S    
C14   C18   1.523795 S    
C70   H70   1.081707 S    
C2    H6    1.109135 S    
Ba1   O45   2.846567 S    
O40   C15   1.400635 S    
C130  H147  1.110482 S    
C132  H150  1.106318 S    
P9    C86   1.913818 S    
C133  H159  1.101868 S    
C59   C79   1.406192 A    
C7    H11   1.112559 S    
C127  C128  1.525290 S    
C81   C97   1.416896 A    
C22   C26   1.560220 S    
O17   C21   1.395911 S    
C90   C102  1.406794 A    
O10   P13   1.754342 S    
C25   C105  1.529546 S    
C34   C38   1.399711 A    
O11   P16   1.766769 S    
O23   C31   1.407401 S    
C59   H63   1.077572 S    
C18   Cl2   1.781484 S    
P4    Ba4   3.456094 S    
O21   C29   1.407422 S    
P11   C88   1.914240 S    
O2    Ba2   2.825761 S    
