data_mof_unit_7828.cif
_audit_creation_date              2012-10-26T19:03:30-0400
_audit_creation_method            fapswitch 2.2
_symmetry_space_group_name_H-M    P1
_symmetry_Int_Tables_number       1
_space_group_crystal_system       triclinic
_cell_length_a                    10.843211
_cell_length_b                    13.097629
_cell_length_c                    11.710414
_cell_angle_alpha                 99.527775
_cell_angle_beta                  93.388437
_cell_angle_gamma                 91.490218
_cell_volume                      1636.22555854

loop_
_atom_site_label
_atom_site_type_symbol
_atom_type_description
_atom_site_fract_x
_atom_site_fract_y
_atom_site_fract_z
_atom_type_partial_charge
C1    C     C_R   0.496669 0.299016 0.479484 0.587427
C2    C     C_R   0.506657 0.124635 0.361550 -0.125289
C3    C     C_R   0.492565 0.138052 0.570386 0.097782
C4    C     C_R   0.263428 0.512832 0.502044 0.586143
C5    C     C_R   0.506611 0.029987 0.561760 0.017156
C6    C     C_R   0.509286 0.969422 0.448889 0.047414
C7    C     C_R   0.508551 0.861390 0.436898 -0.113575
C8    C     C_R   0.514898 0.871695 0.644918 -0.105786
C9    C     C_R   0.515189 0.978831 0.660517 -0.011388
C10   C     C_R   0.381548 0.398105 0.024164 0.045642
C11   C     C_R   0.394657 0.409125 0.146279 0.150981
C12   C     C_R   0.068039 0.530222 0.608470 -0.030722
C13   C     C_R   0.548304 0.542642 0.155591 0.065364
C14   C     C_R   0.539987 0.534011 0.033344 -0.019709
C15   C     C_R   0.454097 0.462727 0.965645 0.031819
C16   C     C_R   0.503697 0.700358 0.521078 0.555862
C17   C     C_R   0.444691 0.459618 0.842515 0.131529
C18   C     C_R   0.607881 0.586769 0.856873 0.121042
C19   C     C_R   0.616313 0.595684 0.978179 -0.160798
C20   C     C_R   0.737824 0.491261 0.498217 0.548001
C21   C     C_R   0.121742 0.572531 0.720737 0.007888
C22   C     C_R   0.072632 0.542712 0.819434 -0.011998
C23   C     C_R   0.129062 0.528237 0.504292 0.023601
C24   C     C_R   0.971222 0.473168 0.805799 -0.124309
C25   C     C_R   0.908445 0.444054 0.697072 0.017227
C26   C     C_R   0.947766 0.485582 0.600087 -0.009270
C27   C     C_1   0.530337 0.030180 0.779999 0.192404
C28   C     C_1   0.347205 0.398323 0.771935 0.336080
C29   C     C_1   0.689163 0.651799 0.804842 0.260793
C30   C     C_1   0.319248 0.343025 0.203323 0.256775
C31   C     C_1   0.213824 0.656766 0.736167 0.232951
C32   C     C_1   0.128923 0.578121 0.934662 0.197199
C33   C     C_1   0.820068 0.357931 0.683517 0.231777
C34   C     C_R   0.058661 0.519313 0.397708 0.064866
C35   C     C_1   0.866617 0.477605 0.278981 0.223220
C36   C     C_R   0.931893 0.496004 0.392710 -0.029505
C37   C     C_R   0.873725 0.483938 0.495272 -0.034870
C38   C     C_R   0.508386 0.812867 0.534139 -0.016283
C39   C     C_R   0.497478 0.185380 0.470370 0.035219
C40   C     C_R   0.510240 0.017106 0.349280 0.096680
Cu1   Cu    Cu3+1 0.509250 0.507730 0.615930 1.019105
Cu2   Cu    Cu3+1 0.490750 0.492270 0.384070 1.004357
H1    H     H_    0.510485 0.161007 0.285131 0.143297
H2    H     H_    0.539799 0.211117 0.736031 0.271928
H3    H     H_    0.323166 0.247229 0.979199 0.249449
H4    H     H_    0.208137 0.333770 0.988028 0.242332
H5    H     H_    0.503763 0.001973 0.171220 0.251363
H6    H     H_    0.605788 0.928446 0.230104 0.229970
H7    H     H_    0.683109 0.650382 0.029433 0.107988
H8    H     H_    0.612804 0.598543 0.207696 0.133405
H9    H     H_    0.940206 0.442416 0.880186 0.129170
H10   H     H_    0.506708 0.814247 0.351566 0.167677
H11   H     H_    0.519816 0.833848 0.720720 0.168699
H12   H     H_    0.103214 0.471986 0.231084 0.250105
H13   H     H_    0.072896 0.599722 0.264406 0.247968
H14   H     H_    0.387233 0.165835 0.710602 0.254504
N1    N     N_R   0.523180 0.519350 0.790130 -0.273213
N2    N     N_1   0.286765 0.724427 0.749163 -0.283390
N3    N     N_1   0.174176 0.606368 0.026868 -0.290296
N4    N     N_1   0.750550 0.288050 0.672803 -0.292960
N5    N     N_1   0.816178 0.462290 0.187569 -0.309409
N6    N     N_3   0.516363 0.956062 0.235753 -0.619163
N7    N     N_R   0.476820 0.480650 0.209890 -0.254705
N8    N     N_3   0.115913 0.538023 0.294891 -0.572673
N9    N     N_1   0.542545 0.070120 0.876070 -0.300544
N10   N     N_3   0.462570 0.199744 0.677265 -0.581446
N11   N     N_1   0.267566 0.349340 0.716755 -0.263416
N12   N     N_1   0.755017 0.704380 0.763779 -0.296065
N13   N     N_3   0.297180 0.319454 0.960953 -0.641453
N14   N     N_1   0.257977 0.289453 0.247685 -0.294229
O1    O     O_R   0.506570 0.354460 0.582000 -0.461068
O2    O     O_R   0.490940 0.341410 0.386200 -0.518544
O3    O     O_R   0.327470 0.506530 0.597920 -0.516603
O4    O     O_R   0.311840 0.493480 0.402120 -0.457101
O5    O     O_R   0.509060 0.658590 0.613800 -0.495812
O6    O     O_R   0.493430 0.645540 0.418000 -0.519423
O7    O     O_R   0.688160 0.506520 0.597880 -0.497574
O8    O     O_R   0.672530 0.493470 0.402080 -0.501575

loop_
_geom_bond_atom_site_label_1
_geom_bond_atom_site_label_2
_ccdc_geom_bond_type
C16   O5    A    
Cu1   Cu2   S    
H2    N10   S    
C35   C36   S    
H5    N6    S    
C21   C31   S    
C12   C23   A    
C1    O1    A    
C22   C32   S    
C20   O7    A    
C31   N2    T    
C36   C37   A    
C7    H10   S    
C11   N7    A    
C10   C15   A    
Cu1   O7    S    
C5    C6    A    
C40   N6    S    
C18   C19   A    
H4    N13   S    
C2    C39   A    
C11   C30   S    
C8    C9    A    
C34   C36   A    
Cu1   O1    S    
C24   H9    S    
C3    C39   A    
C13   C14   A    
C8    C38   A    
Cu2   O2    S    
C30   N14   T    
Cu2   O4    S    
C1    O2    A    
H3    N13   S    
C28   N11   T    
C24   C25   A    
C4    C23   S    
C25   C26   A    
C12   C21   A    
C12   C26   A    
C5    C9    A    
C27   N9    T    
Cu1   O5    S    
C29   N12   T    
C19   H7    S    
C18   N1    A    
H6    N6    S    
C13   N7    A    
C2    H1    S    
C23   C34   A    
H13   N8    S    
C34   N8    S    
C35   N5    T    
C18   C29   S    
C4    O3    A    
Cu2   O8    S    
C33   N4    T    
C6    C40   A    
C3    N10   S    
C9    C27   S    
C15   C17   A    
C16   O6    A    
C17   C28   S    
C4    O4    A    
C14   C19   A    
C3    C5    A    
C8    H11   S    
C26   C37   A    
C6    C7    A    
Cu2   O6    S    
C20   O8    A    
Cu1   N1    S    
C20   C37   S    
H12   N8    S    
H14   N10   S    
C7    C38   A    
C22   C24   A    
C25   C33   S    
C10   C11   A    
C1    C39   S    
Cu1   O3    S    
C13   H8    S    
C10   N13   S    
C2    C40   A    
C16   C38   S    
C14   C15   A    
C32   N3    T    
C21   C22   A    
Cu2   N7    S    
C17   N1    A    
