data_mof_unit_14009.cif
_audit_creation_date              2012-12-10T17:47:48-0500
_audit_creation_method            fapswitch 2.2
_symmetry_space_group_name_H-M    P1
_symmetry_Int_Tables_number       1
_space_group_crystal_system       triclinic
_cell_length_a                    10.747916
_cell_length_b                    10.69723
_cell_length_c                    9.993165
_cell_angle_alpha                 91.484616
_cell_angle_beta                  90.896571
_cell_angle_gamma                 95.87568
_cell_volume                      1142.33018783

loop_
_atom_site_label
_atom_site_type_symbol
_atom_type_description
_atom_site_fract_x
_atom_site_fract_y
_atom_site_fract_z
_atom_type_partial_charge
C1    C     C_R   0.512554 0.261602 0.498409 0.920762
C2    C     C_R   0.543060 0.067749 0.616459 0.011286
C3    C     C_R   0.526806 0.128253 0.494742 -0.188038
C4    C     C_R   0.258175 0.503158 0.499985 1.031947
C5    C     C_R   0.495977 0.058400 0.375240 -0.017094
C6    C     C_R   0.459189 0.929908 0.382050 0.409064
C7    C     C_R   0.468875 0.871379 0.505915 -0.186244
C8    C     C_R   0.309297 0.344896 0.129760 0.474498
C9    C     C_R   0.204168 0.292598 0.057529 -0.431698
C10   C     C_R   0.199201 0.296985 0.921537 0.291463
C11   C     C_R   0.305302 0.347093 0.854938 0.461810
C12   C     C_3   0.877479 0.499122 0.504457 -0.083218
C13   C     C_R   0.404609 0.426274 0.923830 0.001064
C14   C     C_R   0.405409 0.425936 0.068503 0.023525
C15   C     C_R   0.588341 0.570048 0.074553 -0.096267
C16   C     C_R   0.487060 0.738455 0.501825 0.903128
C17   C     C_R   0.588440 0.569841 0.932288 -0.049362
C18   C     C_R   0.741649 0.500479 0.501293 0.902004
C19   C     C_3   0.073518 0.512882 0.650939 0.137096
C20   C     C_3   0.930262 0.520169 0.653394 0.726528
C21   C     C_3   0.080908 0.617220 0.422623 0.192673
C22   C     C_3   0.057979 0.376953 0.432435 0.428234
C23   C     C_3   0.936590 0.606299 0.413818 -0.578426
C24   C     C_3   0.121043 0.503651 0.502005 -0.161816
C25   C     C_3   0.913346 0.367530 0.452477 -0.243750
C26   C     C_R   0.607438 0.128505 0.728637 -0.096018
C27   C     C_R   0.601770 0.073579 0.853452 -0.252902
C28   C     C_R   0.527888 0.960667 0.869142 -0.154168
C29   C     C_R   0.468224 0.897126 0.758124 0.514702
C30   C     C_R   0.491618 0.943406 0.626829 -0.119382
H1    H     H_    0.118671 0.614686 0.319433 0.164191
H2    H     H_    0.901233 0.697932 0.438955 0.196457
H3    H     H_    0.888366 0.298946 0.531984 0.177519
H4    H     H_    0.121361 0.690076 0.708198 0.397247
H5    H     H_    0.832874 0.383676 0.261628 0.218567
H6    H     H_    0.755540 0.275292 0.358104 0.199460
H7    H     H_    0.575320 0.067439 0.191906 0.175653
H8    H     H_    0.427983 0.112404 0.195851 0.188313
H9    H     H_    0.321711 0.787750 0.703878 0.361011
H10   H     H_    0.398039 0.911450 0.194662 0.324352
H11   H     H_    0.261872 0.231566 0.274844 0.336330
H12   H     H_    0.906811 0.586916 0.307745 0.177828
H13   H     H_    0.029717 0.210384 0.911197 0.350810
H14   H     H_    0.270646 0.221064 0.711247 0.351688
H15   H     H_    0.904246 0.443308 0.827718 0.365460
H16   H     H_    0.927134 0.705375 0.653645 0.331641
H17   H     H_    0.117792 0.798743 0.416673 0.349818
H18   H     H_    0.036869 0.433194 0.245537 0.333230
H19   H     H_    0.077837 0.187197 0.430071 0.209284
H20   H     H_    0.075704 0.248457 0.584783 0.189195
H21   H     H_    0.663110 0.218099 0.720094 0.185858
H22   H     H_    0.649458 0.121757 0.939201 0.162345
H23   H     H_    0.514274 0.923772 0.968305 0.156341
H24   H     H_    0.661050 0.627687 0.130227 0.138375
H25   H     H_    0.091887 0.424154 0.697715 0.200034
H26   H     H_    0.129517 0.236906 0.107019 0.210323
H27   H     H_    0.661180 0.627348 0.882160 0.170275
N1    N     N_R   0.498810 0.498800 0.142780 -0.081312
N2    N     N_R   0.498760 0.498720 0.857170 -0.073418
N3    N     N_3   0.844419 0.314905 0.331634 -0.422274
N4    N     N_3   0.513425 0.116282 0.247634 -0.423912
N5    N     N_3   0.109225 0.266718 0.489158 -0.435071
O1    O     O_R   0.500000 0.316780 0.614690 -0.576520
O2    O     O_3   0.378230 0.799801 0.783344 -0.720023
O3    O     O_3   0.415746 0.857993 0.270172 -0.744620
O4    O     O_3   0.319484 0.307941 0.257999 -0.664966
O5    O     O_3   0.097643 0.238427 0.849324 -0.795723
O6    O     O_3   0.314229 0.306861 0.725732 -0.708102
O7    O     O_3   0.877296 0.422324 0.733529 -0.796364
O8    O     O_3   0.898641 0.634819 0.711234 -0.753291
O9    O     O_3   0.129118 0.732678 0.482516 -0.805313
O10   O     O_3   0.085863 0.375649 0.295155 -0.745230
O11   O     O_R   0.499990 0.316750 0.385360 -0.540983
O12   O     O_R   0.314800 0.499990 0.614670 -0.531522
O13   O     O_R   0.314790 0.499970 0.385330 -0.548065
O14   O     O_R   0.500010 0.683250 0.614640 -0.609742
O15   O     O_R   0.500000 0.683220 0.385310 -0.558757
O16   O     O_R   0.685210 0.500030 0.614670 -0.567087
O17   O     O_R   0.685200 0.500010 0.385330 -0.666439
O18   O     O_3   0.141204 0.605936 0.733645 -0.698229
Zn1   Zn    Zn3+2 0.500010 0.500020 0.653130 1.051099
Zn2   Zn    Zn3+2 0.499990 0.499980 0.346870 1.022864

loop_
_geom_bond_atom_site_label_1
_geom_bond_atom_site_label_2
_ccdc_geom_bond_type
C8    O4    S    
C19   C20   S    
C10   O5    S    
C27   H22   S    
H9    O2    S    
C21   H1    S    
C12   C23   S    
C26   C27   A    
C23   H12   S    
O1    Zn1   S    
C28   C29   A    
N1    Zn2   S    
C5    C6    A    
C4    C24   S    
C16   O15   A    
C4    O13   A    
H4    O18   S    
C6    O3    S    
C18   O17   A    
C22   C25   S    
C25   N3    S    
C9    C10   A    
C4    O12   A    
H8    N4    S    
C29   O2    S    
C7    C30   A    
C13   C14   A    
C20   O8    S    
H18   O10   S    
C1    O1    A    
C22   O10   S    
C14   N1    A    
H15   O7    S    
C15   H24   S    
C8    C9    A    
H6    N3    S    
H5    N3    S    
C1    C3    S    
C29   C30   A    
C22   N5    S    
C18   O16   A    
C12   C20   S    
C5    N4    S    
C2    C26   A    
C9    H26   S    
H17   O9    S    
H11   O4    S    
C17   N2    A    
C7    C16   S    
C21   O9    S    
H10   O3    S    
C21   C23   S    
H20   N5    S    
C15   N1    A    
C22   C24   S    
C20   O7    S    
H14   O6    S    
O12   Zn1   S    
O11   Zn2   S    
C11   O6    S    
C19   H25   S    
C15   C17   A    
C8    C14   A    
H19   N5    S    
C16   O14   A    
N2    Zn1   S    
C3    C5    A    
O14   Zn1   S    
O17   Zn2   S    
H7    N4    S    
C28   H23   S    
O13   Zn2   S    
C6    C7    A    
C13   N2    A    
C12   C25   S    
C2    C30   A    
C1    O11   A    
C23   H2    S    
C2    C3    A    
C26   H21   S    
C11   C13   A    
O16   Zn1   S    
O15   Zn2   S    
C19   C24   S    
C19   O18   S    
H16   O8    S    
C25   H3    S    
C10   C11   A    
H13   O5    S    
C21   C24   S    
C12   C18   S    
C27   C28   A    
C17   H27   S    
