data_mof_unit_40654.cif
_audit_creation_date              2012-12-10T21:21:40-0500
_audit_creation_method            fapswitch 2.2
_symmetry_space_group_name_H-M    P1
_symmetry_Int_Tables_number       1
_space_group_crystal_system       triclinic
_cell_length_a                    17.630472
_cell_length_b                    16.698864
_cell_length_c                    23.441042
_cell_angle_alpha                 90.232405
_cell_angle_beta                  90.303239
_cell_angle_gamma                 90.291342
_cell_volume                      6901.00691334

loop_
_atom_site_label
_atom_site_type_symbol
_atom_type_description
_atom_site_fract_x
_atom_site_fract_y
_atom_site_fract_z
_atom_type_partial_charge
C1    C     C_R   0.353057 0.499668 0.502124 0.993481
C2    C     C_R   0.647127 0.500004 0.499341 0.974544
C3    C     C_R   0.540981 0.435307 0.240613 -0.132392
C4    C     C_R   0.487555 0.420203 0.759543 -0.148933
C5    C     C_R   0.540637 0.438848 0.299520 -0.298322
C6    C     C_R   0.490254 0.424514 0.700785 -0.298749
C7    C     C_R   0.499023 0.498159 0.327386 -0.177769
C8    C     C_R   0.499621 0.498637 0.673703 -0.189645
C9    C     C_R   0.456205 0.553838 0.295972 0.416812
C10   C     C_R   0.506560 0.569451 0.706874 0.433750
C11   C     C_R   0.460824 0.554085 0.236130 0.108328
C12   C     C_R   0.494457 0.565926 0.766108 0.119235
C13   C     C_R   0.501669 0.492337 0.208870 0.209629
C14   C     C_R   0.489565 0.490000 0.792296 0.229168
C15   C     C_R   0.851361 0.568932 0.494050 0.342553
C16   C     C_R   0.150831 0.427382 0.497865 0.329965
C17   C     C_R   0.152903 0.563888 0.534812 0.326128
C18   C     C_R   0.847281 0.427600 0.519260 0.329869
C19   C     C_R   0.771985 0.571334 0.493704 0.277802
C20   C     C_R   0.230073 0.425417 0.500469 0.298672
C21   C     C_R   0.231425 0.568507 0.525326 0.298088
C22   C     C_R   0.769143 0.426000 0.508679 0.310833
C23   C     C_R   0.730308 0.499229 0.500177 -0.381985
C24   C     C_R   0.270481 0.498162 0.508882 -0.378795
C25   C     C_R   0.887422 0.498338 0.510051 -0.229336
C26   C     C_R   0.113587 0.495419 0.517391 -0.221594
C27   C     C_R   0.499459 0.499696 0.389249 0.904301
C28   C     C_R   0.500596 0.500021 0.611135 0.892195
C29   C     C_1   0.966913 0.497477 0.514747 0.116023
C30   C     C_1   0.033888 0.496356 0.517040 0.120100
C31   C     C_R   0.512511 0.832528 0.449169 0.355312
C32   C     C_R   0.542915 0.168568 0.541261 0.369618
C33   C     C_R   0.490884 0.833274 0.551019 0.359772
C34   C     C_R   0.459499 0.166708 0.458741 0.367490
C35   C     C_R   0.509625 0.747899 0.450136 -0.151282
C36   C     C_R   0.539716 0.253103 0.541003 -0.144195
C37   C     C_R   0.491294 0.748576 0.549842 -0.173806
C38   C     C_R   0.460992 0.251368 0.459007 -0.143461
C39   C     C_R   0.502147 0.875917 0.500100 -0.079213
C40   C     C_R   0.501580 0.124671 0.500034 -0.087432
C41   C     C_1   0.502406 0.963765 0.500079 0.063092
C42   C     C_1   0.502217 0.036823 0.500084 0.073645
C43   C     C_R   0.560050 0.499219 0.879880 0.535035
C44   C     C_R   0.439179 0.455746 0.121351 0.529065
C45   C     C_R   0.430390 0.457369 0.881592 0.545497
C46   C     C_R   0.565509 0.508025 0.119480 0.555197
C47   C     C_R   0.431122 0.454820 0.941464 -0.173152
C48   C     C_R   0.566222 0.505756 0.059636 -0.175511
C49   C     C_R   0.498880 0.476291 0.970530 -0.137890
C50   C     C_R   0.500740 0.477295 0.030623 -0.141190
C51   C     C_R   0.564618 0.497403 0.939587 -0.165634
C52   C     C_R   0.436822 0.450692 0.061609 -0.169774
C53   C     C_R   0.366375 0.431882 0.972978 0.394762
C54   C     C_R   0.630206 0.530885 0.028115 0.396801
C55   C     C_R   0.371816 0.422298 0.032075 0.395915
C56   C     C_R   0.631933 0.518903 0.969109 0.391831
H1    H     H_    0.515626 0.715046 0.410645 0.189344
H2    H     H_    0.569255 0.287218 0.573632 0.171831
H3    H     H_    0.483619 0.716145 0.589029 0.210395
H4    H     H_    0.430979 0.284122 0.426267 0.174391
H5    H     H_    0.572230 0.388306 0.219302 0.158312
H6    H     H_    0.483761 0.362240 0.779938 0.165303
H7    H     H_    0.572729 0.395038 0.323433 0.181732
H8    H     H_    0.486059 0.369215 0.676619 0.193058
N1    N     N_R   0.493064 0.482567 0.852872 -0.337871
N2    N     N_R   0.502129 0.485316 0.148289 -0.347733
N3    N     N_R   0.500000 0.707230 0.500000 -0.130563
N4    N     N_R   0.500000 0.292770 0.500000 -0.147578
O1    O     O_R   0.389110 0.566570 0.500000 -0.572323
O2    O     O_R   0.610890 0.433430 0.500000 -0.582002
O3    O     O_R   0.610890 0.566570 0.500000 -0.589399
O4    O     O_R   0.389110 0.433430 0.500000 -0.589782
O5    O     O_R   0.499970 0.566560 0.416150 -0.595509
O6    O     O_R   0.500030 0.433440 0.583850 -0.641073
O7    O     O_R   0.500030 0.566560 0.583850 -0.598974
O8    O     O_R   0.499970 0.433440 0.416150 -0.639526
O9    O     O_2   0.621230 0.519184 0.848524 -0.570090
O10   O     O_2   0.378744 0.433506 0.152740 -0.552213
O11   O     O_2   0.367927 0.435360 0.851839 -0.542998
O12   O     O_2   0.627306 0.532290 0.149161 -0.539929
Zn1   Zn    Zn3+2 0.500000 0.588860 0.500000 0.974975
Zn2   Zn    Zn3+2 0.500000 0.411140 0.500000 0.936835
O13   O     O_3   0.297965 0.413772 0.946462 -0.602419
C57   C     C_3   0.256175 0.484982 0.937416 0.164395
H9    H     H_    0.222034 0.476160 0.897890 0.185812
H10   H     H_    0.292637 0.538793 0.929903 0.105395
C58   C     C_3   0.201968 0.500697 0.987048 -0.353619
H11   H     H_    0.168612 0.445544 0.996032 0.248731
H12   H     H_    0.235061 0.517123 0.025832 0.245757
C59   C     C_3   0.147605 0.568896 0.973414 -0.977255
H13   H     H_    0.179820 0.624844 0.964736 0.265982
H14   H     H_    0.109752 0.579407 0.010376 0.276590
H15   H     H_    0.112065 0.553433 0.935637 0.268249
O14   O     O_3   0.693782 0.563508 0.054501 -0.602875
C60   C     C_3   0.683053 0.646685 0.063587 0.162087
H16   H     H_    0.716376 0.663736 0.102162 0.183300
H17   H     H_    0.622931 0.662881 0.072781 0.111784
C61   C     C_3   0.712521 0.695319 0.012944 -0.355436
H18   H     H_    0.771192 0.676255 0.002576 0.249480
H19   H     H_    0.675707 0.684465 0.975086 0.242876
C62   C     C_3   0.712671 0.784861 0.026176 -0.980910
H20   H     H_    0.654348 0.805296 0.036176 0.266193
H21   H     H_    0.733470 0.818431 0.988526 0.275934
H22   H     H_    0.750663 0.798162 0.063001 0.267838
O15   O     O_3   0.310004 0.390778 0.060661 -0.605181
C63   C     C_3   0.322260 0.308520 0.071914 0.161366
H23   H     H_    0.382999 0.293822 0.080461 0.115845
H24   H     H_    0.290931 0.293636 0.111514 0.182434
C64   C     C_3   0.291071 0.256241 0.023205 -0.356057
H25   H     H_    0.231474 0.273385 0.013792 0.248570
H26   H     H_    0.325496 0.265707 0.984250 0.244183
C65   C     C_3   0.293514 0.167587 0.038571 -0.974905
H27   H     H_    0.352779 0.149013 0.047593 0.266860
H28   H     H_    0.271260 0.131344 0.002301 0.275751
H29   H     H_    0.257937 0.155707 0.076611 0.267342
O16   O     O_3   0.698576 0.536034 0.940501 -0.605567
C66   C     C_3   0.738870 0.464282 0.930055 0.163395
H30   H     H_    0.701245 0.411082 0.922994 0.114593
H31   H     H_    0.771002 0.472678 0.889853 0.182931
C67   C     C_3   0.795470 0.447802 0.978377 -0.355957
H32   H     H_    0.830385 0.502299 0.986595 0.248378
H33   H     H_    0.764233 0.432566 0.017922 0.245727
C68   C     C_3   0.847679 0.378290 0.963438 -0.973896
H34   H     H_    0.813924 0.322949 0.955563 0.266526
H35   H     H_    0.887412 0.367368 0.999452 0.276860
H36   H     H_    0.881311 0.392575 0.924817 0.267268
O17   O     O_3   0.407352 0.606018 0.323195 -0.642074
C69   C     C_3   0.338026 0.565353 0.333287 0.076441
H37   H     H_    0.343913 0.526519 0.371501 0.139242
H38   H     H_    0.319930 0.527508 0.296157 0.138122
C70   C     C_3   0.275716 0.626583 0.344100 -0.307132
H39   H     H_    0.292790 0.665811 0.380171 0.232898
H40   H     H_    0.268342 0.664521 0.305637 0.222619
C71   C     C_3   0.200344 0.585809 0.357999 -1.007311
H41   H     H_    0.181033 0.548088 0.321541 0.277257
H42   H     H_    0.156639 0.631919 0.366489 0.269627
H43   H     H_    0.206305 0.547750 0.396464 0.256049
O18   O     O_3   0.522815 0.642556 0.681954 -0.658277
C72   C     C_3   0.601192 0.646899 0.668784 0.087771
H44   H     H_    0.607600 0.691238 0.634139 0.166408
H45   H     H_    0.624350 0.589410 0.652054 0.116587
C73   C     C_3   0.648401 0.675835 0.720038 -0.379013
H46   H     H_    0.627494 0.735211 0.734414 0.229601
H47   H     H_    0.642816 0.632765 0.755746 0.252563
C74   C     C_3   0.732183 0.683092 0.704726 -0.941109
H48   H     H_    0.754512 0.624186 0.690629 0.259748
H49   H     H_    0.764989 0.703385 0.742721 0.276843
H50   H     H_    0.740171 0.727407 0.670099 0.259409
C75   C     C_3   0.422083 0.619879 0.202498 -0.353668
C76   C     C_3   0.463794 0.699582 0.210123 -0.839645
H51   H     H_    0.463692 0.718794 0.255524 0.291591
H52   H     H_    0.523346 0.694025 0.195382 0.256842
H53   H     H_    0.435207 0.746356 0.184380 0.241093
H54   H     H_    0.419927 0.606484 0.156186 0.199823
H55   H     H_    0.362343 0.626145 0.216564 0.219754
C77   C     C_3   0.486246 0.642521 0.800835 -0.392506
C78   C     C_3   0.404109 0.655182 0.818908 -0.866889
H56   H     H_    0.366362 0.656243 0.780817 0.269072
H57   H     H_    0.385058 0.607108 0.848030 0.263811
H58   H     H_    0.399199 0.713333 0.841696 0.244539
H59   H     H_    0.523532 0.641832 0.839031 0.216041
H60   H     H_    0.503507 0.695949 0.776059 0.240853
O19   O     O_3   0.893896 0.637622 0.484382 -0.625582
C79   C     C_3   0.896124 0.654372 0.425223 0.147505
H61   H     H_    0.906533 0.719686 0.420592 0.160783
H62   H     H_    0.841476 0.641382 0.402750 0.150856
C80   C     C_3   0.961131 0.609007 0.396554 -0.396284
H63   H     H_    0.014821 0.620105 0.420464 0.244665
H64   H     H_    0.948547 0.543803 0.397109 0.213612
C81   C     C_3   0.971566 0.634923 0.334776 -0.958376
H65   H     H_    0.918724 0.623780 0.309911 0.270601
H66   H     H_    0.018247 0.599997 0.315259 0.274560
H67   H     H_    0.986408 0.699574 0.332829 0.266120
O20   O     O_3   0.109191 0.360754 0.480592 -0.627817
C82   C     C_3   0.114923 0.350523 0.420730 0.136223
H68   H     H_    0.100763 0.287046 0.410871 0.161176
H69   H     H_    0.173421 0.360875 0.404399 0.151617
C83   C     C_3   0.058370 0.404351 0.389265 -0.396945
H70   H     H_    0.000236 0.393084 0.405631 0.242671
H71   H     H_    0.073228 0.468167 0.397056 0.219402
C84   C     C_3   0.059388 0.388938 0.325113 -0.951191
H72   H     H_    0.116861 0.400877 0.307800 0.265779
H73   H     H_    0.018392 0.429353 0.303719 0.273700
H74   H     H_    0.042952 0.325943 0.315687 0.267031
O21   O     O_3   0.113188 0.628435 0.556632 -0.638899
C85   C     C_3   0.123221 0.632318 0.616569 0.116718
H75   H     H_    0.114328 0.695520 0.629799 0.159448
H76   H     H_    0.181806 0.616471 0.630662 0.147569
C86   C     C_3   0.064574 0.579528 0.646879 -0.371304
H77   H     H_    0.006660 0.595239 0.631796 0.239444
H78   H     H_    0.075042 0.515545 0.636607 0.213200
C87   C     C_3   0.068747 0.590334 0.711464 -0.953324
H79   H     H_    0.125951 0.573899 0.727544 0.267463
H80   H     H_    0.026016 0.550945 0.732001 0.268630
H81   H     H_    0.056603 0.653439 0.723299 0.265711
O22   O     O_3   0.885783 0.358107 0.533270 -0.627530
C88   C     C_3   0.873870 0.339420 0.591432 0.134571
H82   H     H_    0.881588 0.273796 0.596221 0.159375
H83   H     H_    0.815150 0.352586 0.606182 0.142460
C89   C     C_3   0.932195 0.382692 0.629510 -0.381136
H84   H     H_    0.990356 0.369819 0.613961 0.243885
H85   H     H_    0.922856 0.448363 0.627541 0.210686
C90   C     C_3   0.925817 0.356232 0.691504 -0.957675
H86   H     H_    0.868365 0.369627 0.708154 0.265172
H87   H     H_    0.968411 0.389041 0.717838 0.270491
H88   H     H_    0.936696 0.290987 0.695152 0.266736
O23   O     O_3   0.735996 0.642851 0.481778 -0.614512
C91   C     C_3   0.736759 0.691603 0.531227 0.147253
H89   H     H_    0.794142 0.695820 0.551234 0.160361
H90   H     H_    0.696610 0.666822 0.563029 0.127567
C92   C     C_3   0.712219 0.775983 0.514848 -0.349405
H91   H     H_    0.753373 0.801237 0.483911 0.227531
H92   H     H_    0.655710 0.773291 0.494013 0.227401
C93   C     C_3   0.708174 0.831044 0.566774 -0.954484
H93   H     H_    0.664621 0.809299 0.597047 0.274550
H94   H     H_    0.692148 0.891962 0.552917 0.271371
H95   H     H_    0.764140 0.834444 0.588646 0.264768
O24   O     O_3   0.267794 0.354218 0.489601 -0.626442
C94   C     C_3   0.257526 0.300009 0.535473 0.115131
H96   H     H_    0.265112 0.238601 0.518394 0.151027
H97   H     H_    0.199485 0.301469 0.554005 0.163331
C95   C     C_3   0.316830 0.313984 0.582612 -0.353727
H98   H     H_    0.374527 0.309054 0.564427 0.259791
H99   H     H_    0.310113 0.374980 0.600977 0.217144
C96   C     C_3   0.309032 0.252454 0.630164 -0.957400
H100  H     H_    0.252067 0.256497 0.649956 0.270492
H101  H     H_    0.352726 0.264252 0.663492 0.275819
H102  H     H_    0.317386 0.191004 0.613019 0.262838
O25   O     O_3   0.271450 0.638723 0.536830 -0.617822
C97   C     C_3   0.242818 0.703421 0.504320 0.149722
H103  H     H_    0.203327 0.738924 0.531048 0.175866
H104  H     H_    0.212395 0.683845 0.464739 0.138778
C98   C     C_3   0.308573 0.757721 0.487222 -0.359253
H105  H     H_    0.337425 0.779923 0.526255 0.222708
H106  H     H_    0.349898 0.722856 0.461830 0.250246
C99   C     C_3   0.281707 0.829162 0.452334 -0.982516
H107  H     H_    0.251769 0.808566 0.413092 0.270255
H108  H     H_    0.331501 0.865815 0.439677 0.282173
H109  H     H_    0.242994 0.866985 0.478052 0.273197
O26   O     O_3   0.730221 0.353737 0.511742 -0.627217
C100  C     C_3   0.747048 0.305099 0.463708 0.123379
H110  H     H_    0.747929 0.242047 0.478233 0.157972
H111  H     H_    0.803768 0.317055 0.444525 0.152738
C101  C     C_3   0.685449 0.313363 0.417867 -0.348897
H112  H     H_    0.629220 0.299894 0.436647 0.255101
H113  H     H_    0.685049 0.375785 0.401611 0.214624
C102  C     C_3   0.698729 0.255931 0.368181 -0.977611
H114  H     H_    0.754218 0.268786 0.347855 0.270163
H115  H     H_    0.653134 0.263329 0.335803 0.270936
H116  H     H_    0.697842 0.192964 0.383329 0.267325
O27   O     O_3   0.519995 0.872867 0.398008 -0.623385
C103  C     C_3   0.595436 0.866778 0.378066 0.100120
H117  H     H_    0.593828 0.874571 0.331033 0.173612
H118  H     H_    0.621286 0.806934 0.385835 0.119145
C104  C     C_3   0.645321 0.933226 0.403986 -0.363907
H119  H     H_    0.618742 0.992415 0.396097 0.243100
H120  H     H_    0.650249 0.924534 0.450764 0.211166
C105  C     C_3   0.724705 0.932876 0.378452 -0.960737
H121  H     H_    0.752756 0.874577 0.386555 0.260934
H122  H     H_    0.759349 0.981263 0.398355 0.266806
H123  H     H_    0.721743 0.943440 0.331744 0.268426
O28   O     O_3   0.580950 0.128451 0.584267 -0.627699
C106  C     C_3   0.660326 0.138140 0.578171 0.094202
H124  H     H_    0.686839 0.119883 0.619172 0.177423
H125  H     H_    0.677545 0.201609 0.571231 0.134488
C107  C     C_3   0.690890 0.084380 0.530304 -0.378633
H126  H     H_    0.664573 0.024157 0.533496 0.237306
H127  H     H_    0.675329 0.109923 0.488152 0.203307
C108  C     C_3   0.776919 0.075904 0.533960 -0.956103
H128  H     H_    0.804902 0.135574 0.532673 0.261297
H129  H     H_    0.797211 0.039521 0.497413 0.269327
H130  H     H_    0.793169 0.045230 0.574134 0.270026
O29   O     O_3   0.485856 0.874453 0.602294 -0.622792
C109  C     C_3   0.411426 0.868547 0.624311 0.113188
H131  H     H_    0.414965 0.879924 0.670974 0.173761
H132  H     H_    0.386167 0.807589 0.619422 0.126002
C110  C     C_3   0.359727 0.932176 0.597747 -0.376732
H133  H     H_    0.383549 0.992743 0.606641 0.239780
H134  H     H_    0.356730 0.923806 0.550804 0.219807
C111  C     C_3   0.279523 0.926983 0.621531 -0.959411
H135  H     H_    0.253873 0.867692 0.611290 0.263832
H136  H     H_    0.243954 0.974357 0.602050 0.267550
H137  H     H_    0.280374 0.935828 0.668518 0.268526
O30   O     O_3   0.423063 0.124861 0.415347 -0.626185
C112  C     C_3   0.343425 0.130391 0.421426 0.097062
H138  H     H_    0.317647 0.113780 0.379654 0.176994
H139  H     H_    0.324135 0.192432 0.430836 0.128601
C113  C     C_3   0.314441 0.071731 0.466748 -0.376961
H140  H     H_    0.338950 0.011607 0.458822 0.242786
H141  H     H_    0.332851 0.092328 0.509814 0.204702
C114  C     C_3   0.228120 0.064892 0.465545 -0.958126
H142  H     H_    0.201868 0.124384 0.472591 0.261555
H143  H     H_    0.209156 0.023758 0.499775 0.266897
H144  H     H_    0.208594 0.040383 0.423834 0.270479

loop_
_geom_bond_atom_site_label_1
_geom_bond_atom_site_label_2
_ccdc_geom_bond_type
C106  C107  S    
C90   H86   S    
C104  H120  S    
C78   H56   S    
C34   O30   S    
C88   C89   S    
C109  C110  S    
C11   C13   A    
C41   C42   T    
C53   C55   A    
C19   C23   A    
C114  H142  S    
C57   C58   S    
C58   H11   S    
C70   C71   S    
C28   O6    A    
C69   H37   S    
C73   H47   S    
C71   H43   S    
C65   H28   S    
C83   H70   S    
O21   C85   S    
C60   C61   S    
C68   H34   S    
C39   C41   S    
C84   H72   S    
C101  H112  S    
C15   C19   A    
C90   H87   S    
C62   H20   S    
C81   H66   S    
C55   O15   S    
O13   C57   S    
C34   C40   A    
C17   C26   A    
C32   C36   A    
C15   O19   S    
O30   C112  S    
C114  H143  S    
C52   C55   A    
C111  H136  S    
C46   N2    A    
C112  C113  S    
C36   H2    S    
C66   H31   S    
C72   C73   S    
C93   H94   S    
C83   H71   S    
C68   H35   S    
C63   H23   S    
C17   C21   A    
C4    H6    S    
C104  H119  S    
C100  H110  S    
C96   H102  S    
C7    C27   S    
O16   C66   S    
C5    H7    S    
C97   C98   S    
C70   H39   S    
C109  H131  S    
C6    H8    S    
C88   H83   S    
O20   C82   S    
C9    O17   S    
C64   H26   S    
C44   N2    A    
C11   C75   S    
O19   C79   S    
C99   H108  S    
C89   H84   S    
C49   C51   A    
C76   H53   S    
C50   C52   A    
C111  H137  S    
C32   O28   S    
C82   C83   S    
C29   C30   T    
C98   H105  S    
C22   O26   S    
C3    C13   A    
C67   C68   S    
C16   C20   A    
C47   C53   A    
C44   C52   A    
C45   C47   A    
C104  C105  S    
C77   H60   S    
C89   C90   S    
C62   H21   S    
C59   H13   S    
C34   C38   A    
C108  H128  S    
C66   C67   S    
C19   O23   S    
C73   C74   S    
O14   C60   S    
C18   C25   A    
C12   C77   S    
C79   C80   S    
O5    Zn1   S    
C65   H27   S    
C74   H49   S    
C67   H33   S    
C74   H48   S    
C80   C81   S    
C46   C48   A    
C13   N2    S    
C3    H5    S    
C16   C26   A    
C90   H88   S    
C54   C56   A    
C1    O4    A    
C54   O14   S    
C18   O22   S    
O23   C91   S    
C87   H81   S    
C20   C24   A    
C106  H124  S    
C114  H144  S    
O1    Zn1   S    
C57   H9    S    
C89   H85   S    
C65   H29   S    
C80   H64   S    
C99   H107  S    
C107  H126  S    
C84   H73   S    
C17   O21   S    
C80   H63   S    
C5    C7    A    
C108  H129  S    
C93   H93   S    
O7    Zn1   S    
C68   H36   S    
C6    C8    A    
C56   O16   S    
C95   C96   S    
C3    C5    A    
C107  H127  S    
C44   O10   S    
C107  C108  S    
C1    O1    A    
C110  C111  S    
C100  H111  S    
C113  H141  S    
C48   C54   A    
C86   C87   S    
C105  H122  S    
C75   H54   S    
C113  C114  S    
C71   H42   S    
O25   C97   S    
C97   H104  S    
C94   H97   S    
C9    C11   A    
C59   H14   S    
C92   H91   S    
C35   N3    A    
C43   N1    A    
C21   O25   S    
C2    C23   S    
C60   H17   S    
C96   H100  S    
O27   C103  S    
C102  H115  S    
C31   O27   S    
C45   O11   S    
C33   C39   A    
C2    O3    A    
C111  H135  S    
C95   H99   S    
C48   C50   A    
C98   H106  S    
C91   H89   S    
C37   H3    S    
C10   C12   A    
C103  C104  S    
C38   H4    S    
C110  H133  S    
C4    C6    A    
C92   H92   S    
C81   H67   S    
C38   N4    A    
C77   H59   S    
N3    Zn1   S    
C82   H69   S    
C61   H19   S    
C110  H134  S    
C45   N1    A    
C8    C28   S    
C49   C50   A    
C76   H52   S    
C64   C65   S    
C105  H123  S    
C43   O9    S    
C21   C24   A    
O8    Zn2   S    
O17   C69   S    
C69   C70   S    
C94   H96   S    
C74   H50   S    
C67   H32   S    
C72   H44   S    
C59   H15   S    
C103  H118  S    
O6    Zn2   S    
C102  H116  S    
C16   O20   S    
C86   H77   S    
C106  H125  S    
C101  H113  S    
C79   H61   S    
C84   H74   S    
C18   C22   A    
C20   O24   S    
C8    C10   A    
C51   C56   A    
C57   H10   S    
O22   C88   S    
C70   H40   S    
C93   H95   S    
C69   H38   S    
C112  H138  S    
C78   H57   S    
C102  H114  S    
C36   N4    A    
C26   C30   S    
O28   C106  S    
C78   H58   S    
C47   C49   A    
C61   C62   S    
O15   C63   S    
C71   H41   S    
C66   H30   S    
C76   H51   S    
C101  C102  S    
C35   H1    S    
C53   O13   S    
C100  C101  S    
N4    Zn2   S    
C87   H79   S    
C33   O29   S    
C85   C86   S    
C79   H62   S    
C105  H121  S    
C75   H55   S    
C97   H103  S    
C112  H139  S    
C82   H68   S    
C2    O2    A    
C75   C76   S    
C113  H140  S    
C94   C95   S    
C46   O12   S    
C72   H45   S    
C25   C29   S    
O24   C94   S    
C63   H24   S    
C43   C51   A    
C91   C92   S    
C37   N3    A    
C40   C42   S    
O26   C100  S    
C96   H101  S    
C14   N1    S    
C31   C39   A    
C31   C35   A    
C32   C40   A    
C4    C14   A    
C88   H82   S    
O2    Zn2   S    
C98   C99   S    
C33   C37   A    
C108  H130  S    
C83   C84   S    
C15   C25   A    
O18   C72   S    
C7    C9    A    
C12   C14   A    
C92   C93   S    
C77   C78   S    
C1    C24   S    
C91   H90   S    
C61   H18   S    
C81   H65   S    
C58   C59   S    
C64   H25   S    
C60   H16   S    
C73   H46   S    
C58   H12   S    
C22   C23   A    
C62   H22   S    
C10   O18   S    
C86   H78   S    
C85   H75   S    
C27   O5    A    
C28   O7    A    
C85   H76   S    
C95   H98   S    
C63   C64   S    
C99   H109  S    
O4    Zn2   S    
C27   O8    A    
C87   H80   S    
C103  H117  S    
O3    Zn1   S    
C109  H132  S    
O29   C109  S    
