data_mof_unit_65994.cif
_audit_creation_date              2013-03-05T15:42:48-0500
_audit_creation_method            fapswitch 2.2
_symmetry_space_group_name_H-M    P1
_symmetry_Int_Tables_number       1
_space_group_crystal_system       triclinic
_cell_length_a                    21.718701
_cell_length_b                    21.731853
_cell_length_c                    55.710912
_cell_angle_alpha                 89.999565
_cell_angle_beta                  89.999588
_cell_angle_gamma                 90.140882
_cell_volume                      26294.7811324

loop_
_atom_site_label
_atom_site_type_symbol
_atom_site_description
_atom_site_fract_x
_atom_site_fract_y
_atom_site_fract_z
_atom_type_partial_charge
O1    O     O_R   0.499960 0.590510 0.020150 -0.580930
O2    O     O_R   0.409490 0.499960 0.020150 -0.581345
O3    O     O_R   0.500040 0.409490 0.020150 -0.580932
O4    O     O_R   0.590510 0.500040 0.020150 -0.581342
O5    O     O_R   0.999960 0.090510 0.520150 -0.580929
O6    O     O_R   0.909490 0.999960 0.520150 -0.581374
O7    O     O_R   0.000040 0.909490 0.520150 -0.580931
O8    O     O_R   0.090510 0.000040 0.520150 -0.581373
O9    O     O_R   0.499990 0.590510 0.979930 -0.625371
O10   O     O_R   0.409490 0.499990 0.979930 -0.625625
O11   O     O_R   0.500010 0.409490 0.979930 -0.625371
O12   O     O_R   0.590510 0.500010 0.979930 -0.625625
O13   O     O_R   0.999990 0.090510 0.479930 -0.625368
O14   O     O_R   0.909490 0.999990 0.479930 -0.625610
O15   O     O_R   0.000010 0.909490 0.479930 -0.625368
O16   O     O_R   0.090510 0.000010 0.479930 -0.625610
C1    C     C_R   0.503429 0.619295 0.000215 0.875200
C2    C     C_R   0.380706 0.503381 0.000220 0.874410
C3    C     C_R   0.496571 0.380705 0.000215 0.875203
C4    C     C_R   0.619294 0.496618 0.000220 0.874407
C5    C     C_R   0.003428 0.119295 0.500215 0.875198
C6    C     C_R   0.880706 0.003377 0.500220 0.874427
C7    C     C_R   0.996572 0.880705 0.500215 0.875200
C8    C     C_R   0.119294 0.996623 0.500220 0.874424
C9    C     C_R   0.499996 1.000000 0.123819 0.259722
C10   C     C_R   1.000000 0.499998 0.123487 0.269407
C11   C     C_R   0.999996 0.499999 0.623819 0.259722
C12   C     C_R   0.500000 0.999998 0.623486 0.270093
Zn1   Zn    Zn3+2 0.500000 0.500000 0.026890 1.105375
Zn2   Zn    Zn3+2 1.000000 0.000000 0.526890 1.105378
Zn3   Zn    Zn3+2 0.500000 0.500000 0.973180 0.964670
Zn4   Zn    Zn3+2 0.000000 0.000000 0.473180 0.964710
C13   C     C_2   0.783104 0.459461 0.981730 0.217419
C14   C     C_2   0.539636 0.783335 0.981612 0.227343
C15   C     C_2   0.216897 0.540540 0.981730 0.217422
C16   C     C_2   0.460363 0.216666 0.981613 0.227344
C17   C     C_2   0.283104 0.959449 0.481734 0.217471
C18   C     C_2   0.039639 0.283334 0.481613 0.227222
C19   C     C_2   0.716897 0.040553 0.481734 0.217473
C20   C     C_2   0.960359 0.716667 0.481614 0.227223
C21   C     C_2   0.815800 0.502650 0.993498 -0.290001
C22   C     C_2   0.496971 0.815750 0.993710 -0.292315
C23   C     C_2   0.184200 0.497350 0.993498 -0.289999
C24   C     C_2   0.503029 0.184250 0.993710 -0.292314
C25   C     C_2   0.315802 0.002652 0.493494 -0.290143
C26   C     C_2   0.996971 0.315750 0.493709 -0.292381
C27   C     C_2   0.684198 0.997349 0.493494 -0.290141
C28   C     C_2   0.003029 0.684250 0.493709 -0.292381
H1    H     H_    0.792856 0.543979 0.999903 0.136357
H2    H     H_    0.455918 0.792615 0.000399 0.140153
H3    H     H_    0.207143 0.456021 0.999902 0.136355
H4    H     H_    0.544083 0.207385 0.000398 0.140152
H5    H     H_    0.292861 0.043992 0.499889 0.136455
H6    H     H_    0.955915 0.292616 0.500396 0.140152
H7    H     H_    0.707139 0.956008 0.499888 0.136453
H8    H     H_    0.044086 0.707384 0.500395 0.140152
C29   C     C_2   0.715838 0.466470 0.981506 -0.242642
C30   C     C_2   0.532656 0.716073 0.981379 -0.241646
C31   C     C_2   0.284163 0.533532 0.981507 -0.242643
C32   C     C_2   0.467343 0.283927 0.981380 -0.241647
C33   C     C_2   0.215838 0.966459 0.481511 -0.242631
C34   C     C_2   0.032659 0.216073 0.481380 -0.241638
C35   C     C_2   0.784163 0.033543 0.481511 -0.242634
C36   C     C_2   0.967340 0.783928 0.481381 -0.241638
C37   C     C_2   0.684817 0.482347 0.001531 -0.238901
C38   C     C_2   0.517817 0.684844 0.001490 -0.240198
C39   C     C_2   0.315182 0.517652 0.001532 -0.238900
C40   C     C_2   0.482184 0.315156 0.001490 -0.240198
C41   C     C_2   0.184820 0.982365 0.501533 -0.238985
C42   C     C_2   0.017813 0.184844 0.501490 -0.240200
C43   C     C_2   0.815180 0.017634 0.501533 -0.238985
C44   C     C_2   0.982188 0.815156 0.501491 -0.240198
H9    H     H_    0.692123 0.461179 0.964455 0.178694
H10   H     H_    0.537060 0.692533 0.964261 0.179663
H11   H     H_    0.307878 0.538826 0.964456 0.178694
H12   H     H_    0.462936 0.307469 0.964262 0.179663
H13   H     H_    0.192119 0.961135 0.464462 0.178690
H14   H     H_    0.037069 0.192532 0.464262 0.179687
H15   H     H_    0.807883 0.038869 0.464462 0.178690
H16   H     H_    0.962927 0.807470 0.464263 0.179687
O17   O     O_R   0.999980 0.448970 0.964420 -0.634341
O18   O     O_R   0.551030 0.999980 0.964420 -0.638810
O19   O     O_R   0.000020 0.551030 0.964420 -0.634342
O20   O     O_R   0.448970 0.000020 0.964420 -0.638809
O21   O     O_R   0.499980 0.948970 0.464420 -0.634318
O22   O     O_R   0.051030 0.499980 0.464420 -0.638838
O23   O     O_R   0.500020 0.051030 0.464420 -0.634319
O24   O     O_R   0.948970 0.500020 0.464420 -0.638837
C45   C     C_R   1.000000 0.500000 0.953019 0.824878
C46   C     C_R   0.500000 1.000000 0.952894 0.837195
C47   C     C_R   0.500000 0.000000 0.453019 0.824950
C48   C     C_R   0.000000 0.500000 0.452894 0.837160
O25   O     O_R   0.909490 0.448990 0.000040 -0.602151
O26   O     O_R   0.551010 0.909490 0.000040 -0.609540
O27   O     O_R   0.090510 0.551010 0.000040 -0.602152
O28   O     O_R   0.448990 0.090510 0.000040 -0.609541
O29   O     O_R   0.409490 0.948990 0.500040 -0.602387
O30   O     O_R   0.051010 0.409490 0.500040 -0.609509
O31   O     O_R   0.590510 0.051010 0.500040 -0.602387
O32   O     O_R   0.948990 0.590510 0.500040 -0.609510
O33   O     O_R   0.909510 0.551130 0.000040 -0.616134
O34   O     O_R   0.448870 0.909510 0.000040 -0.604139
O35   O     O_R   0.090490 0.448870 0.000040 -0.616134
O36   O     O_R   0.551130 0.090490 0.000040 -0.604138
O37   O     O_R   0.409510 0.051130 0.500040 -0.615853
O38   O     O_R   0.948870 0.409510 0.500040 -0.604189
O39   O     O_R   0.590490 0.948870 0.500040 -0.615853
O40   O     O_R   0.051130 0.590490 0.500040 -0.604189
C49   C     C_R   0.881247 0.500238 0.997747 1.004070
C50   C     C_R   0.499628 0.881181 0.997915 0.987061
C51   C     C_R   0.118753 0.499762 0.997747 1.004072
C52   C     C_R   0.500371 0.118819 0.997915 0.987061
C53   C     C_R   0.381247 0.000238 0.497748 1.003767
C54   C     C_R   0.999628 0.381181 0.497915 0.987067
C55   C     C_R   0.618753 0.999762 0.497748 1.003767
C56   C     C_R   0.000371 0.618819 0.497915 0.987067
Zn5   Zn    Zn3+2 0.999950 0.431840 0.000040 1.011646
Zn6   Zn    Zn3+2 0.568160 0.999950 0.000040 1.010467
Zn7   Zn    Zn3+2 0.000050 0.568160 0.000040 1.011645
Zn8   Zn    Zn3+2 0.431840 0.000050 0.000040 1.010466
Zn9   Zn    Zn3+2 0.499950 0.931840 0.500040 1.011646
Zn10  Zn    Zn3+2 0.068160 0.499950 0.500040 1.010412
Zn11  Zn    Zn3+2 0.500050 0.068160 0.500040 1.011645
Zn12  Zn    Zn3+2 0.931840 0.500050 0.500040 1.010410
O41   O     O_R   0.999930 0.448970 0.035660 -0.596176
O42   O     O_R   0.551030 0.999930 0.035660 -0.597649
O43   O     O_R   0.000070 0.551030 0.035660 -0.596176
O44   O     O_R   0.448970 0.000070 0.035660 -0.597651
O45   O     O_R   0.499930 0.948970 0.535660 -0.596217
O46   O     O_R   0.051030 0.499930 0.535660 -0.597644
O47   O     O_R   0.500070 0.051030 0.535660 -0.596217
O48   O     O_R   0.948970 0.500070 0.535660 -0.597646
C57   C     C_R   1.000000 0.500000 0.047044 1.025008
C58   C     C_R   0.500000 1.000000 0.047111 0.993552
C59   C     C_R   0.500000 1.000000 0.547045 1.024423
C60   C     C_R   1.000000 0.500000 0.547111 0.993572
C61   C     C_R   0.005371 0.556285 0.763048 0.053996
C62   C     C_R   0.516268 0.054231 0.762739 0.054032
C63   C     C_R   0.994611 0.443716 0.763049 0.053996
C64   C     C_R   0.483736 0.945766 0.762740 0.054032
C65   C     C_R   0.505373 0.056285 0.263048 0.053991
C66   C     C_R   0.015038 0.554581 0.262746 0.054029
C67   C     C_R   0.494609 0.943717 0.263049 0.053992
C68   C     C_R   0.984966 0.445415 0.262747 0.054030
C69   C     C_R   0.999991 0.500001 0.775650 0.081257
C70   C     C_R   0.500002 0.999998 0.775347 0.080646
C71   C     C_R   0.499991 0.000001 0.275650 0.081255
C72   C     C_R   0.000002 0.499998 0.275354 0.080659
C73   C     C_R   0.017546 0.610542 0.776257 -0.219924
C74   C     C_R   0.537630 0.105494 0.776057 -0.218148
C75   C     C_R   0.982435 0.389460 0.776258 -0.219924
C76   C     C_R   0.462375 0.894502 0.776058 -0.218149
C77   C     C_R   0.517549 0.110542 0.276257 -0.219915
C78   C     C_R   0.035238 0.606311 0.276064 -0.218139
C79   C     C_R   0.482433 0.889460 0.276258 -0.219916
C80   C     C_R   0.964766 0.393685 0.276065 -0.218139
C81   C     C_R   0.020559 0.609668 0.801164 -0.133642
C82   C     C_R   0.538889 0.104611 0.800975 -0.134393
C83   C     C_R   0.979423 0.390335 0.801166 -0.133642
C84   C     C_R   0.461116 0.895385 0.800976 -0.134393
C85   C     C_R   0.520562 0.109667 0.301165 -0.133639
C86   C     C_R   0.036528 0.605454 0.300982 -0.134407
C87   C     C_R   0.479421 0.890335 0.301166 -0.133639
C88   C     C_R   0.963477 0.394543 0.300983 -0.134407
C89   C     C_R   0.010707 0.554918 0.813775 -0.019897
C90   C     C_R   0.519324 0.052545 0.813550 -0.022113
C91   C     C_R   0.989277 0.445084 0.813775 -0.019898
C92   C     C_R   0.480682 0.947452 0.813550 -0.022113
C93   C     C_R   0.510709 0.054918 0.313775 -0.019898
C94   C     C_R   0.018144 0.552962 0.313557 -0.022161
C95   C     C_R   0.489275 0.945085 0.313775 -0.019898
C96   C     C_R   0.981861 0.447034 0.313557 -0.022161
C97   C     C_R   0.999992 0.500001 0.801065 -0.057273
C98   C     C_R   0.500002 0.999998 0.800805 -0.055833
C99   C     C_R   0.499992 0.000001 0.301065 -0.057274
C100  C     C_R   0.000002 0.499998 0.300812 -0.055822
C101  C     C_R   0.012071 0.553607 0.838910 0.503900
C102  C     C_R   0.519063 0.051533 0.838704 0.505174
C103  C     C_R   0.987914 0.446396 0.838911 0.503900
C104  C     C_R   0.480942 0.948464 0.838704 0.505174
C105  C     C_R   0.512073 0.053607 0.338910 0.503903
C106  C     C_R   0.017920 0.551939 0.338711 0.505232
C107  C     C_R   0.487913 0.946396 0.338911 0.503902
C108  C     C_R   0.982085 0.448058 0.338711 0.505232
N1    N     N_R   0.999994 0.500001 0.850992 -0.352513
N2    N     N_R   0.500003 0.999999 0.850684 -0.355903
N3    N     N_R   0.499994 0.000001 0.350992 -0.352511
N4    N     N_R   0.000002 0.499999 0.350689 -0.355988
H17   H     H_    0.027151 0.654110 0.767749 0.146699
H18   H     H_    0.555566 0.146547 0.767715 0.145785
H19   H     H_    0.972830 0.345892 0.767750 0.146698
H20   H     H_    0.444438 0.853449 0.767717 0.145785
H21   H     H_    0.527155 0.154109 0.267749 0.146710
H22   H     H_    0.052238 0.647757 0.267721 0.145788
H23   H     H_    0.472826 0.845892 0.267750 0.146710
H24   H     H_    0.947766 0.352239 0.267723 0.145787
H25   H     H_    0.030163 0.652353 0.810503 0.191199
H26   H     H_    0.555389 0.145099 0.810351 0.190634
H27   H     H_    0.969820 0.347650 0.810505 0.191199
H28   H     H_    0.444617 0.854897 0.810352 0.190634
H29   H     H_    0.530167 0.152352 0.310503 0.191198
H30   H     H_    0.052112 0.646301 0.310358 0.190605
H31   H     H_    0.469816 0.847650 0.310505 0.191198
H32   H     H_    0.947893 0.353695 0.310359 0.190604
O49   O     O_2   0.025896 0.605397 0.851175 -0.564257
O50   O     O_2   0.537187 0.101745 0.851120 -0.559574
O51   O     O_2   0.974091 0.394606 0.851176 -0.564257
O52   O     O_2   0.462818 0.898252 0.851121 -0.559575
O53   O     O_2   0.525899 0.105396 0.351175 -0.564270
O54   O     O_2   0.034952 0.602524 0.351130 -0.559485
O55   O     O_2   0.474088 0.894606 0.351176 -0.564269
O56   O     O_2   0.965053 0.397473 0.351131 -0.559485
C109  C     C_R   0.498935 0.056370 0.237720 0.010761
C110  C     C_R   0.009991 0.555559 0.237335 0.010665
C111  C     C_R   0.501047 0.943631 0.237720 0.010761
C112  C     C_R   0.990012 0.444437 0.237335 0.010665
C113  C     C_R   0.998934 0.556370 0.737720 0.010760
C114  C     C_R   0.511247 0.055322 0.737327 0.010666
C115  C     C_R   0.001048 0.443631 0.737720 0.010759
C116  C     C_R   0.488756 0.944674 0.737328 0.010666
C117  C     C_R   0.499991 0.000000 0.225008 0.071839
C118  C     C_R   0.000001 0.499998 0.224603 0.071879
C119  C     C_R   0.999991 0.500000 0.725008 0.071840
C120  C     C_R   0.500001 0.999998 0.724595 0.071890
C121  C     C_R   0.509688 0.888777 0.224859 -0.205535
C122  C     C_R   0.986725 0.389072 0.224384 -0.204178
C123  C     C_R   0.490294 0.111224 0.224858 -0.205535
C124  C     C_R   0.013277 0.610925 0.224383 -0.204177
C125  C     C_R   0.009690 0.388777 0.724859 -0.205539
C126  C     C_R   0.484209 0.889395 0.724377 -0.204153
C127  C     C_R   0.990291 0.611223 0.724858 -0.205541
C128  C     C_R   0.515793 0.110602 0.724376 -0.204154
C129  C     C_R   0.513980 0.887837 0.199877 0.191180
C130  C     C_R   0.988285 0.387492 0.199374 0.192193
C131  C     C_R   0.486003 0.112163 0.199876 0.191180
C132  C     C_R   0.011715 0.612504 0.199373 0.192193
C133  C     C_R   0.013983 0.387837 0.699877 0.191181
C134  C     C_R   0.485741 0.887778 0.699366 0.192170
C135  C     C_R   0.986001 0.612163 0.699876 0.191181
C136  C     C_R   0.514260 0.112218 0.699366 0.192171
C137  C     C_R   0.508408 0.943871 0.186816 -0.030670
C138  C     C_R   0.993464 0.443537 0.186313 -0.034283
C139  C     C_R   0.491577 0.056129 0.186816 -0.030669
C140  C     C_R   0.006536 0.556459 0.186313 -0.034284
C141  C     C_R   0.008409 0.443871 0.686816 -0.030669
C142  C     C_R   0.492211 0.943691 0.686306 -0.034338
C143  C     C_R   0.991576 0.556129 0.686816 -0.030669
C144  C     C_R   0.507790 0.056305 0.686305 -0.034337
C145  C     C_R   0.499992 0.000000 0.199522 -0.124082
C146  C     C_R   0.000001 0.499998 0.199059 -0.123308
C147  C     C_R   0.999992 0.500000 0.699523 -0.124082
C148  C     C_R   0.500001 0.999998 0.699051 -0.123293
C149  C     C_R   0.488456 0.053638 0.161513 0.520625
C150  C     C_R   0.007035 0.554454 0.160958 0.522768
C151  C     C_R   0.511532 0.946361 0.161514 0.520625
C152  C     C_R   0.992964 0.445543 0.160958 0.522770
C153  C     C_R   0.988455 0.553638 0.661513 0.520628
C154  C     C_R   0.508195 0.054294 0.660950 0.522860
C155  C     C_R   0.011533 0.446361 0.661513 0.520626
C156  C     C_R   0.491805 0.945702 0.660950 0.522859
N5    N     N_R   0.499995 1.000000 0.149623 -0.344439
N6    N     N_R   1.000000 0.499998 0.149187 -0.349945
N7    N     N_R   0.999995 0.500000 0.649623 -0.344441
N8    N     N_R   0.500000 0.999998 0.649182 -0.350040
H33   H     H_    0.515943 0.845734 0.234165 0.145702
H34   H     H_    0.985103 0.345472 0.233568 0.144949
H35   H     H_    0.484038 0.154266 0.234163 0.145702
H36   H     H_    0.014899 0.654525 0.233567 0.144949
H37   H     H_    0.015946 0.345735 0.734165 0.145704
H38   H     H_    0.481588 0.845841 0.733560 0.144953
H39   H     H_    0.984035 0.654266 0.734163 0.145704
H40   H     H_    0.518415 0.154156 0.733559 0.144954
O57   O     O_2   0.473346 0.103855 0.148618 -0.560713
O58   O     O_2   0.015031 0.605969 0.147841 -0.552225
O59   O     O_2   0.526644 0.896145 0.148619 -0.560713
O60   O     O_2   0.984969 0.394027 0.147842 -0.552226
O61   O     O_2   0.973344 0.603854 0.648618 -0.560712
O62   O     O_2   0.517217 0.105636 0.647829 -0.552189
O63   O     O_2   0.026645 0.396145 0.648619 -0.560711
O64   O     O_2   0.482783 0.894361 0.647830 -0.552188
C157  C     C_R   0.038184 0.459322 0.889416 -0.093423
C158  C     C_R   0.555829 0.999645 0.888881 -0.102772
C159  C     C_R   0.961809 0.540680 0.889417 -0.093423
C160  C     C_R   0.444175 0.000353 0.888881 -0.102774
C161  C     C_R   0.538182 0.959321 0.389416 -0.093422
C162  C     C_R   0.055830 0.500373 0.388880 -0.103014
C163  C     C_R   0.461811 0.040681 0.389417 -0.093423
C164  C     C_R   0.944173 0.499625 0.388880 -0.103016
H41   H     H_    0.068401 0.428203 0.879880 0.155362
H42   H     H_    0.599088 0.999221 0.879218 0.143751
H43   H     H_    0.931590 0.571799 0.879881 0.155363
H44   H     H_    0.400916 0.000776 0.879218 0.143751
H45   H     H_    0.568399 0.928201 0.379880 0.155370
H46   H     H_    0.099089 0.500526 0.379215 0.143435
H47   H     H_    0.431593 0.071801 0.379881 0.155370
H48   H     H_    0.900914 0.499472 0.379215 0.143435
C165  C     C_R   0.037420 0.458620 0.914389 -0.222409
C166  C     C_R   0.555899 0.999604 0.913869 -0.216199
C167  C     C_R   0.962576 0.541381 0.914390 -0.222409
C168  C     C_R   0.444104 0.000395 0.913869 -0.216198
C169  C     C_R   0.537419 0.958619 0.414389 -0.222406
C170  C     C_R   0.055901 0.500318 0.413868 -0.216028
C171  C     C_R   0.462577 0.041383 0.414390 -0.222406
C172  C     C_R   0.944101 0.499681 0.413868 -0.216027
H49   H     H_    0.066870 0.426750 0.923936 0.153984
H50   H     H_    0.599612 0.999235 0.923218 0.167123
H51   H     H_    0.933127 0.573252 0.923937 0.153984
H52   H     H_    0.400389 0.000764 0.923217 0.167123
H53   H     H_    0.566868 0.926748 0.423936 0.153994
H54   H     H_    0.099618 0.500523 0.423217 0.167144
H55   H     H_    0.433129 0.073254 0.423937 0.153994
H56   H     H_    0.900384 0.499476 0.423216 0.167143
C173  C     C_R   0.999999 0.500001 0.926916 -0.017321
C174  C     C_R   0.500001 1.000000 0.926561 -0.036029
C175  C     C_R   0.499999 0.000001 0.426916 -0.017358
C176  C     C_R   0.000001 0.500000 0.426560 -0.036137
C177  C     C_R   0.999996 0.500001 0.876767 0.294493
C178  C     C_R   0.500002 0.999999 0.876352 0.315406
C179  C     C_R   0.499996 0.000001 0.376766 0.294486
C180  C     C_R   0.000002 0.499999 0.376354 0.315962
C181  C     C_R   0.459887 0.961314 0.111280 -0.119953
C182  C     C_R   0.051250 0.478341 0.111069 -0.119186
C183  C     C_R   0.540107 0.038685 0.111280 -0.119954
C184  C     C_R   0.948749 0.521656 0.111070 -0.119184
C185  C     C_R   0.959888 0.461313 0.611280 -0.119951
C186  C     C_R   0.551055 0.977886 0.611072 -0.119518
C187  C     C_R   0.040106 0.538686 0.611280 -0.119951
C188  C     C_R   0.448945 0.022111 0.611072 -0.119517
H57   H     H_    0.429374 0.931262 0.121293 0.187036
H58   H     H_    0.090710 0.462556 0.121235 0.180906
H59   H     H_    0.570619 0.068737 0.121294 0.187036
H60   H     H_    0.909289 0.537441 0.121235 0.180906
H61   H     H_    0.929375 0.431261 0.621293 0.187034
H62   H     H_    0.590371 0.961752 0.621238 0.180568
H63   H     H_    0.070618 0.568738 0.621294 0.187034
H64   H     H_    0.409628 0.038245 0.621238 0.180567
C189  C     C_R   0.460875 0.958959 0.086233 -0.084416
C190  C     C_R   0.052576 0.478699 0.085982 -0.086616
C191  C     C_R   0.539122 0.041040 0.086233 -0.084417
C192  C     C_R   0.947424 0.521298 0.085982 -0.086618
C193  C     C_R   0.960875 0.458959 0.586233 -0.084417
C194  C     C_R   0.552391 0.978255 0.585985 -0.086457
C195  C     C_R   0.039121 0.541040 0.586233 -0.084417
C196  C     C_R   0.447608 0.021742 0.585985 -0.086459
C197  C     C_R   0.499999 0.999999 0.073447 -0.212071
C198  C     C_R   1.000000 0.499999 0.073273 -0.203832
C199  C     C_R   0.999999 0.499999 0.573447 -0.212077
C200  C     C_R   0.500000 0.999999 0.573275 -0.203900
C201  C     C_3   0.812005 0.406577 0.968396 -0.783951
H65   H     H_    0.776664 0.380528 0.958144 0.228218
H66   H     H_    0.846974 0.424072 0.955527 0.217063
H67   H     H_    0.833862 0.374285 0.981235 0.266230
C202  C     C_3   0.591883 0.812566 0.967904 -0.790172
H68   H     H_    0.617457 0.777434 0.957436 0.226399
H69   H     H_    0.573747 0.847483 0.955191 0.217625
H70   H     H_    0.624809 0.834528 0.980515 0.264470
C203  C     C_3   0.187997 0.593428 0.968397 -0.783953
H71   H     H_    0.223339 0.619477 0.958146 0.228217
H72   H     H_    0.153028 0.575934 0.955528 0.217064
H73   H     H_    0.166139 0.625718 0.981237 0.266231
C204  C     C_3   0.408113 0.187436 0.967907 -0.790169
H74   H     H_    0.382538 0.222569 0.957439 0.226397
H75   H     H_    0.426247 0.152519 0.955193 0.217624
H76   H     H_    0.375188 0.165474 0.980518 0.264471
C205  C     C_3   0.312000 0.906542 0.468412 -0.783930
H77   H     H_    0.276657 0.880484 0.458165 0.228172
H78   H     H_    0.346974 0.924015 0.455540 0.217104
H79   H     H_    0.333851 0.874265 0.481259 0.266217
C206  C     C_3   0.091894 0.312564 0.467909 -0.789847
H80   H     H_    0.117471 0.277431 0.457442 0.226415
H81   H     H_    0.073765 0.347482 0.455195 0.217739
H82   H     H_    0.124816 0.334523 0.480522 0.264435
C207  C     C_3   0.688001 0.093462 0.468414 -0.783932
H83   H     H_    0.723345 0.119521 0.458167 0.228172
H84   H     H_    0.653029 0.075991 0.455541 0.217105
H85   H     H_    0.666151 0.125738 0.481261 0.266218
C208  C     C_3   0.908103 0.687438 0.467911 -0.789848
H86   H     H_    0.882524 0.722572 0.457445 0.226414
H87   H     H_    0.926230 0.652520 0.455197 0.217740
H88   H     H_    0.875182 0.665478 0.480525 0.264436
C209  C     C_2   0.422500 0.911036 0.074362 0.949020
O65   O     O_2   0.440758 0.885083 0.056241 -0.618548
O66   O     O_R   0.366293 0.893653 0.084602 -0.792014
H89   H     H_    0.344714 0.860086 0.075138 0.358573
C210  C     C_2   0.110265 0.458101 0.073946 0.922979
O67   O     O_2   0.124048 0.477166 0.054015 -0.639618
O68   O     O_R   0.150140 0.417957 0.085885 -0.782262
H90   H     H_    0.188103 0.407798 0.076072 0.369416
C211  C     C_2   0.577498 0.088963 0.074362 0.949019
O69   O     O_2   0.559241 0.114916 0.056241 -0.618548
O70   O     O_R   0.633704 0.106346 0.084602 -0.792012
H91   H     H_    0.655284 0.139913 0.075139 0.358573
C212  C     C_2   0.889734 0.541897 0.073947 0.922981
O71   O     O_2   0.875951 0.522833 0.054015 -0.639616
O72   O     O_R   0.849860 0.582041 0.085885 -0.782263
H92   H     H_    0.811896 0.592200 0.076073 0.369415
C213  C     C_2   0.922502 0.411035 0.574362 0.949016
O73   O     O_2   0.940760 0.385083 0.556241 -0.618548
O74   O     O_R   0.866295 0.393650 0.584602 -0.792007
H93   H     H_    0.844716 0.360083 0.575138 0.358577
C214  C     C_2   0.609920 0.957222 0.573950 0.923530
O75   O     O_2   0.623942 0.976335 0.554050 -0.639291
O76   O     O_R   0.649382 0.916614 0.585857 -0.782389
H94   H     H_    0.687280 0.906186 0.576050 0.369108
C215  C     C_2   0.077496 0.588964 0.574362 0.949015
O77   O     O_2   0.059240 0.614916 0.556241 -0.618547
O78   O     O_R   0.133702 0.606349 0.584603 -0.792007
H95   H     H_    0.155282 0.639915 0.575139 0.358578
C216  C     C_2   0.390080 0.042775 0.573951 0.923532
O79   O     O_2   0.376057 0.023663 0.554051 -0.639290
O80   O     O_R   0.350617 0.083383 0.585858 -0.782389
H96   H     H_    0.312719 0.093812 0.576051 0.369107
C217  C     C_2   0.713360 0.478252 0.025964 0.968381
O81   O     O_2   0.701986 0.517370 0.041106 -0.598839
O82   O     O_R   0.752484 0.429283 0.031606 -0.764501
H97   H     H_    0.768986 0.431823 0.048601 0.363503
C218  C     C_2   0.523121 0.713255 0.025908 0.963834
O83   O     O_2   0.484768 0.701583 0.041340 -0.585148
O84   O     O_R   0.572348 0.752633 0.031198 -0.772474
H98   H     H_    0.570605 0.769100 0.048210 0.359037
C219  C     C_2   0.286639 0.521744 0.025965 0.968379
O85   O     O_2   0.298013 0.482623 0.041106 -0.598843
O86   O     O_R   0.247514 0.570711 0.031607 -0.764500
H99   H     H_    0.231012 0.568169 0.048602 0.363503
C220  C     C_2   0.476884 0.286743 0.025909 0.963834
O87   O     O_2   0.515239 0.298416 0.041339 -0.585148
O88   O     O_R   0.427658 0.247365 0.031200 -0.772472
H100  H     H_    0.429404 0.230896 0.048212 0.359038
C221  C     C_2   0.213368 0.978319 0.525966 0.968417
O89   O     O_2   0.201987 0.017461 0.541097 -0.598406
O90   O     O_R   0.252507 0.929371 0.531620 -0.764673
H101  H     H_    0.269022 0.931953 0.548612 0.363415
C222  C     C_2   0.023109 0.213256 0.525908 0.963859
O91   O     O_2   0.984750 0.201584 0.541338 -0.585152
O92   O     O_R   0.072334 0.252634 0.531201 -0.772472
H102  H     H_    0.070585 0.269102 0.548213 0.359035
C223  C     C_2   0.786631 0.021677 0.525967 0.968416
O93   O     O_2   0.798012 0.982533 0.541097 -0.598408
O94   O     O_R   0.747491 0.070623 0.531621 -0.764672
H103  H     H_    0.730975 0.068039 0.548613 0.363418
C224  C     C_2   0.976896 0.786742 0.525909 0.963861
O95   O     O_2   0.015256 0.798415 0.541338 -0.585154
O96   O     O_R   0.927672 0.747363 0.531203 -0.772471
H104  H     H_    0.929424 0.730895 0.548215 0.359037
C225  C     C_3   0.522916 0.825631 0.188158 -0.752977
H105  H     H_    0.523611 0.787434 0.201406 0.203830
H106  H     H_    0.484331 0.815867 0.175641 0.264908
H107  H     H_    0.567725 0.824379 0.178590 0.272015
C226  C     C_3   0.984948 0.324679 0.187660 -0.755320
H108  H     H_    0.983536 0.286660 0.200978 0.203235
H109  H     H_    0.942304 0.320700 0.176782 0.270273
H110  H     H_    0.026370 0.316959 0.176385 0.266962
C227  C     C_3   0.477067 0.174369 0.188157 -0.752977
H111  H     H_    0.476370 0.212565 0.201404 0.203831
H112  H     H_    0.515654 0.184133 0.175640 0.264908
H113  H     H_    0.432259 0.175619 0.178588 0.272015
C228  C     C_3   0.015052 0.675318 0.187658 -0.755319
H114  H     H_    0.016464 0.713337 0.200976 0.203234
H115  H     H_    0.057696 0.679297 0.176780 0.270273
H116  H     H_    0.973630 0.683037 0.176385 0.266962
C229  C     C_3   0.022920 0.325631 0.688158 -0.752979
H117  H     H_    0.023615 0.287435 0.701407 0.203828
H118  H     H_    0.984335 0.315867 0.675642 0.264896
H119  H     H_    0.067729 0.324381 0.678590 0.272030
C230  C     C_3   0.480934 0.825056 0.687653 -0.755342
H120  H     H_    0.478571 0.787083 0.700971 0.203243
H121  H     H_    0.438242 0.822097 0.676756 0.270210
H122  H     H_    0.522190 0.816344 0.676398 0.267028
C231  C     C_3   0.977063 0.674368 0.688157 -0.752977
H123  H     H_    0.976365 0.712565 0.701404 0.203827
H124  H     H_    0.015649 0.684133 0.675640 0.264896
H125  H     H_    0.932255 0.675618 0.678588 0.272029
C232  C     C_3   0.519066 0.174941 0.687652 -0.755342
H126  H     H_    0.521430 0.212914 0.700970 0.203243
H127  H     H_    0.561759 0.177899 0.676755 0.270210
H128  H     H_    0.477810 0.183652 0.676397 0.267027

loop_
_geom_bond_atom_site_label_1
_geom_bond_atom_site_label_2
_geom_bond_distance
_ccdc_geom_bond_type
C136  C232  1.514610 S    
C48   C176  1.467058 S    
C203  H71   1.110697 S    
O23   C47   1.277978 A    
C58   C197  1.467242 S    
C228  H114  1.110844 S    
C14   C22   1.346245 D    
C156  N8    1.361165 A    
C61   C73   1.414280 A    
C202  H70   1.109540 S    
C150  O58   1.347794 S    
O15   Zn4   2.002573 S    
C94   C100  1.407831 A    
C223  O93   1.223236 D    
C232  H128  1.110265 S    
C87   H31   1.083388 S    
O20   C46   1.280895 A    
O2    Zn1   2.001302 S    
C95   C107  1.400909 A    
C130  C226  1.514613 S    
C155  N7    1.364478 A    
C19   C35   1.469274 S    
C213  O74   1.398610 S    
C76   C84   1.388624 A    
O30   C54   1.278456 A    
O17   Zn5   2.019030 S    
C230  H122  1.110261 S    
C181  H57   1.083873 S    
C34   C42   1.348555 D    
C172  H56   1.082925 S    
C220  O87   1.223218 D    
O19   Zn7   2.019035 S    
C208  H88   1.109538 S    
C88   H32   1.083469 S    
C16   C204  1.506915 S    
C125  H37   1.078340 S    
C64   C116  1.420115 A    
C196  C200  1.422005 A    
C168  C174  1.404957 A    
C226  H109  1.110017 S    
C13   C201  1.506723 S    
C70   C98   1.418277 A    
O3    C3    1.276789 A    
C132  C228  1.514613 S    
C105  O53   1.349869 S    
C64   C76   1.415739 A    
N4    C180  1.429798 S    
C206  H82   1.109538 S    
Zn11  O47   2.019041 S    
C221  O90   1.399191 S    
C217  O82   1.399189 S    
C140  C150  1.413265 A    
O35   Zn5   2.000043 S    
C67   C111  1.417968 A    
C111  C117  1.415234 A    
C21   H1    1.088350 S    
C188  C196  1.397944 A    
C172  C176  1.404979 A    
C105  N3    1.370198 A    
C204  H76   1.109536 S    
C103  O51   1.349870 S    
C90   C98   1.407810 A    
C184  C192  1.397966 A    
C137  C145  1.422504 A    
C207  H85   1.109549 S    
O14   Zn4   2.001403 S    
C193  C213  1.487419 S    
C126  H38   1.077306 S    
O27   Zn7   2.000610 S    
C231  H123  1.110877 S    
C19   C27   1.346030 D    
C32   H12   1.086551 S    
C112  C122  1.404606 A    
C77   C85   1.389311 A    
O32   Zn12  1.999937 S    
O88   H100  1.013839 S    
C227  H113  1.110014 S    
C74   H18   1.077918 S    
O12   C4    1.293915 A    
O1    Zn1   2.002467 S    
C133  C141  1.423954 A    
C3    C40   1.459348 S    
C157  C177  1.403434 A    
C131  C139  1.423955 A    
C24   C52   1.442123 S    
O6    Zn2   2.001303 S    
C35   C43   1.348583 D    
C203  H73   1.109548 S    
C211  O69   1.222950 D    
C228  H116  1.110282 S    
C16   C24   1.346250 D    
O18   Zn6   2.018994 S    
C17   C25   1.346029 D    
O66   H89   1.013939 S    
C171  H55   1.083448 S    
C231  H125  1.110014 S    
C149  N5    1.364479 A    
C20   C28   1.346247 D    
C153  N7    1.364477 A    
C7    C44   1.459344 S    
C154  N8    1.361164 A    
O18   C46   1.280894 A    
C212  O71   1.222164 D    
C73   H17   1.078724 S    
C139  C149  1.412298 A    
C196  C216  1.490744 S    
C232  H126  1.110836 S    
O8    Zn2   2.001295 S    
C76   H20   1.077918 S    
C215  O77   1.222949 D    
C123  H35   1.078338 S    
O10   C2    1.293916 A    
C102  O50   1.349838 S    
C82   H26   1.083463 S    
C83   C91   1.397757 A    
C164  H48   1.082894 S    
C225  H105  1.110875 S    
C191  C211  1.487419 S    
C65   C71   1.414909 A    
C102  N2    1.367059 A    
C159  C167  1.391468 A    
C9    C181  1.396427 A    
C160  H44   1.082895 S    
C37   C217  1.498436 S    
C195  C215  1.487417 S    
C61   C113  1.417970 A    
C14   C30   1.469243 S    
C18   C206  1.506915 S    
C152  O60   1.347790 S    
C216  O79   1.222187 D    
C19   C207  1.506722 S    
C45   C173  1.454267 S    
C144  C148  1.424469 A    
C18   C34   1.469239 S    
O6    C6    1.276456 A    
C113  C119  1.415231 A    
C153  O61   1.347742 S    
C201  H65   1.110697 S    
C195  C199  1.421661 A    
C186  H62   1.083667 S    
C89   C101  1.400910 A    
O13   Zn4   2.002577 S    
N3    C179  1.435932 S    
O84   H98   1.013835 S    
O24   Zn12  2.018989 S    
C167  H51   1.083448 S    
C214  O75   1.222185 D    
C193  C199  1.421664 A    
C101  N1    1.370199 A    
C221  O89   1.223236 D    
C92   C98   1.407810 A    
O37   Zn11  2.000043 S    
C72   C100  1.418266 A    
C86   H30   1.083468 S    
C59   C200  1.461275 S    
O37   C53   1.270013 A    
O74   H93   1.013941 S    
C129  C225  1.514164 S    
C106  O54   1.349835 S    
Zn12  O48   2.019005 S    
O26   C50   1.278455 A    
C29   H9    1.086565 S    
C131  C227  1.514164 S    
C96   C108  1.401515 A    
O29   Zn9   2.000610 S    
C159  C177  1.403431 A    
C31   C39   1.348584 D    
O45   C59   1.277542 A    
C158  H42   1.082898 S    
C151  N5    1.364478 A    
C33   H13   1.086571 S    
C110  C118  1.416631 A    
C28   C56   1.442127 S    
C85   C93   1.397757 A    
C24   H4    1.088308 S    
C84   C92   1.396155 A    
C25   H5    1.088350 S    
C21   C49   1.442075 S    
C94   C106  1.401515 A    
O25   Zn5   2.000610 S    
C122  H34   1.077316 S    
C165  H49   1.083446 S    
C218  O84   1.399189 S    
O19   C45   1.277978 A    
C79   H23   1.078722 S    
C205  H79   1.109544 S    
C81   C89   1.397756 A    
C68   C112  1.420112 A    
C79   C87   1.389315 A    
C161  C169  1.391473 A    
C75   C83   1.389309 A    
C68   C80   1.415736 A    
C225  H107  1.110017 S    
C154  O62   1.347789 S    
O44   C58   1.278788 A    
C182  C190  1.397965 A    
C67   C79   1.414280 A    
O90   H101  1.013849 S    
C9    C183  1.396428 A    
O48   C60   1.278788 A    
O5    C5    1.276784 A    
C106  N4    1.366995 A    
C66   C78   1.415737 A    
O21   Zn9   2.019030 S    
C20   C208  1.506914 S    
C114  C128  1.404609 A    
C220  O88   1.399189 S    
C104  N2    1.367060 A    
C130  C138  1.422964 A    
C90   C102  1.401514 A    
C118  C146  1.423080 A    
C22   H2    1.088306 S    
C201  H67   1.109548 S    
O12   Zn3   2.001406 S    
C144  C154  1.413265 A    
C88   C96   1.396153 A    
O38   Zn12  2.002960 S    
C186  C194  1.397949 A    
C30   H10   1.086552 S    
C211  O70   1.398611 S    
O5    Zn2   2.002468 S    
C229  H119  1.110014 S    
C129  C137  1.423953 A    
C23   C51   1.442075 S    
O30   Zn10  1.999937 S    
Zn9   O45   2.019047 S    
C170  C176  1.404977 A    
C78   C86   1.388630 A    
O35   C51   1.270015 A    
C143  C147  1.422503 A    
C232  H127  1.110014 S    
O1    C1    1.276790 A    
C122  C130  1.394189 A    
C109  C117  1.415232 A    
O14   C6    1.293919 A    
C158  C178  1.399092 A    
C10   C184  1.393410 A    
C194  C200  1.422004 A    
C213  O73   1.222950 D    
O23   Zn11  2.019035 S    
O26   Zn6   1.999937 S    
C65   C77   1.414282 A    
C41   C221  1.498445 S    
C62   C70   1.416031 A    
O7    C7    1.276783 A    
C83   H27   1.083391 S    
C230  H121  1.110013 S    
C208  H87   1.110864 S    
C120  C148  1.423085 A    
C171  C175  1.399944 A    
C12   C188  1.393328 A    
C63   C115  1.417968 A    
C77   H21   1.078723 S    
C150  N6    1.361246 A    
C226  H108  1.110843 S    
C210  O68   1.398983 S    
C143  C153  1.412303 A    
Zn5   O41   2.019047 S    
C96   C100  1.407831 A    
O25   C49   1.279186 A    
C206  H81   1.110864 S    
Zn7   O43   2.019041 S    
C91   C103  1.400909 A    
C217  O81   1.223236 D    
C139  C145  1.422502 A    
C36   H16   1.086554 S    
C40   C220  1.498241 S    
O32   C56   1.278454 A    
C166  C174  1.404956 A    
C187  H63   1.083872 S    
C202  H68   1.110698 S    
C185  C193  1.396490 A    
C27   C55   1.442077 S    
C204  H75   1.110866 S    
O11   C3    1.293739 A    
C1    C38   1.459350 S    
C219  O85   1.223235 D    
C61   C69   1.414910 A    
C80   H24   1.077929 S    
C207  H84   1.110838 S    
O31   C55   1.279181 A    
C71   C99   1.415882 A    
C224  O96   1.399191 S    
C219  O86   1.399190 S    
O33   C49   1.270015 A    
C182  H58   1.083665 S    
C11   C187  1.396428 A    
C135  C143  1.423953 A    
C227  H112  1.110278 S    
C46   C174  1.467041 S    
C202  H69   1.110862 S    
C155  O63   1.347746 S    
O10   Zn3   2.001403 S    
C222  O92   1.399187 S    
N2    C178  1.429954 S    
C137  C151  1.412299 A    
C87   C95   1.397756 A    
O4    Zn1   2.001294 S    
C91   C97   1.406588 A    
O17   C45   1.277979 A    
C231  H124  1.110272 S    
C141  C147  1.422504 A    
C27   H7    1.088352 S    
C203  H72   1.110834 S    
O7    Zn2   2.002476 S    
C228  H115  1.110016 S    
C115  C125  1.403849 A    
C34   H14   1.086555 S    
C167  C173  1.399941 A    
O36   Zn6   2.002960 S    
C223  O94   1.399192 S    
C191  C197  1.421658 A    
C209  O66   1.398611 S    
C134  C230  1.514611 S    
C124  H36   1.077316 S    
C138  C146  1.424432 A    
C163  C179  1.403432 A    
C4    C37   1.459066 S    
C164  C180  1.399015 A    
C64   C70   1.416029 A    
C142  C148  1.424468 A    
C159  H43   1.082817 S    
C229  H117  1.110876 S    
C107  O55   1.349872 S    
C160  C168  1.392100 A    
C135  C231  1.514166 S    
C151  O59   1.347746 S    
C111  C121  1.403849 A    
O94   H103  1.013845 S    
C109  C123  1.403847 A    
C107  N3    1.370200 A    
C212  O72   1.398982 S    
C57   C198  1.461208 S    
C86   C94   1.396154 A    
O20   Zn8   2.018989 S    
C226  H110  1.110283 S    
C11   N7    1.437587 S    
C134  C142  1.422958 A    
C93   C99   1.406590 A    
C190  C210  1.490827 S    
C66   C110  1.420110 A    
C117  C145  1.419820 A    
C121  H33   1.078339 S    
O34   C50   1.269515 A    
O16   Zn4   2.001406 S    
O39   Zn9   2.000043 S    
C157  C165  1.391467 A    
C194  C214  1.490743 S    
C14   C202  1.506920 S    
O34   Zn8   2.002960 S    
C82   C90   1.396157 A    
C210  O67   1.222163 D    
C119  C147  1.419820 A    
C169  C175  1.399941 A    
C74   C82   1.388624 A    
C189  C209  1.487421 S    
C162  C170  1.392117 A    
O43   C57   1.277526 A    
C29   C37   1.348583 D    
C190  C198  1.422003 A    
C205  H77   1.110697 S    
O72   H92   1.014053 S    
Zn8   O44   2.019005 S    
C114  C120  1.416636 A    
C103  N1    1.370197 A    
C17   C205  1.506722 S    
C11   C185  1.396428 A    
C116  C126  1.404610 A    
C121  C129  1.395030 A    
O40   C56   1.269517 A    
C215  O78   1.398611 S    
C188  H64   1.083671 S    
C60   C199  1.467236 S    
C149  O57   1.347747 S    
C80   C88   1.388629 A    
C23   H3    1.088352 S    
C101  O49   1.349869 S    
C81   H25   1.083391 S    
C22   C50   1.442124 S    
O22   Zn10  2.018994 S    
C141  C155  1.412299 A    
C142  C156  1.413265 A    
C115  C119  1.415234 A    
C10   C182  1.393408 A    
C25   C53   1.442078 S    
C32   C40   1.348563 D    
O80   H96   1.014051 S    
C136  C144  1.422960 A    
O27   C51   1.279186 A    
C73   C81   1.389311 A    
C38   C218  1.498242 S    
C161  C179  1.403430 A    
C183  C191  1.396495 A    
C162  C180  1.399018 A    
O2    C2    1.276468 A    
C138  C152  1.413265 A    
C185  H61   1.083873 S    
O76   H94   1.014052 S    
C68   C72   1.416031 A    
C218  O83   1.223214 D    
O21   C47   1.277979 A    
O70   H91   1.013940 S    
C84   H28   1.083465 S    
C35   H15   1.086568 S    
C62   C74   1.415739 A    
C67   C71   1.414908 A    
O28   C52   1.278453 A    
C162  H46   1.082894 S    
C140  C146  1.424429 A    
O38   C54   1.269516 A    
C127  C135  1.395029 A    
O47   C59   1.277543 A    
C205  H78   1.110840 S    
C156  O64   1.347792 S    
C89   C97   1.406590 A    
C9    N5    1.437587 S    
O3    Zn1   2.002475 S    
C63   C75   1.414281 A    
C225  H106  1.110274 S    
O8    C8    1.276455 A    
O36   C52   1.269516 A    
C30   C38   1.348561 D    
C12   C186  1.393327 A    
O24   C48   1.280898 A    
C127  H39   1.078339 S    
O78   H95   1.013941 S    
C128  H40   1.077304 S    
C42   C222  1.498241 S    
C216  O80   1.398975 S    
C110  C124  1.404609 A    
O41   C57   1.277525 A    
C189  C197  1.421659 A    
C168  H52   1.082924 S    
C75   H19   1.078726 S    
O11   Zn3   2.002573 S    
C201  H66   1.110836 S    
C163  C171  1.391463 A    
N1    C177  1.435932 S    
C85   H29   1.083391 S    
C133  C229  1.514162 S    
C164  C172  1.392117 A    
C26   H6    1.088307 S    
C192  C198  1.422004 A    
O42   C58   1.278789 A    
C214  O76   1.398975 S    
C8    C41   1.459053 S    
C108  O56   1.349836 S    
C163  H47   1.082818 S    
C229  H118  1.110276 S    
C15   C31   1.469273 S    
C44   C224  1.498239 S    
C18   C26   1.346246 D    
C26   C54   1.442126 S    
O13   C5    1.293738 A    
O33   Zn7   2.000043 S    
C66   C72   1.416032 A    
C13   C21   1.346026 D    
C65   C109  1.417970 A    
O86   H99   1.013846 S    
C47   C175  1.454267 S    
C2    C39   1.459067 S    
C12   N8    1.431587 S    
C95   C99   1.406589 A    
C108  N4    1.366994 A    
C152  N6    1.361242 A    
C92   C104  1.401514 A    
C43   C223  1.498442 S    
C181  C189  1.396496 A    
O82   H97   1.013846 S    
C93   C105  1.400910 A    
C170  H54   1.082924 S    
C230  H120  1.110838 S    
O39   C55   1.270014 A    
C208  H86   1.110698 S    
C166  H50   1.082926 S    
C187  C195  1.396495 A    
O9    C1    1.293739 A    
C69   C97   1.415882 A    
C192  C212  1.490828 S    
C126  C134  1.394189 A    
C183  H59   1.083871 S    
O29   C53   1.279181 A    
C31   H11   1.086563 S    
C6    C43   1.459051 S    
C116  C120  1.416639 A    
C15   C23   1.346027 D    
C158  C166  1.392100 A    
O31   Zn11  2.000610 S    
C206  H80   1.110702 S    
C33   C41   1.348584 D    
C28   H8    1.088307 S    
C63   C69   1.414910 A    
C13   C29   1.469275 S    
O28   Zn8   1.999937 S    
O46   C60   1.278789 A    
O40   Zn10  2.002960 S    
C16   C32   1.469241 S    
C17   C33   1.469274 S    
C10   N6    1.431782 S    
O4    C4    1.276473 A    
C184  H60   1.083663 S    
C123  C131  1.395029 A    
C204  H74   1.110699 S    
C20   C36   1.469239 S    
C5    C42   1.459346 S    
C132  C140  1.422960 A    
C15   C203  1.506723 S    
C165  C173  1.399942 A    
O96   H104  1.013837 S    
O22   C48   1.280896 A    
C207  H83   1.110696 S    
C113  C127  1.403847 A    
C224  O95   1.223215 D    
C209  O65   1.222950 D    
O15   C7    1.293738 A    
C36   C44   1.348555 D    
C227  H111  1.110871 S    
C112  C118  1.416631 A    
C124  C132  1.394190 A    
O9    Zn3   2.002577 S    
C169  H53   1.083447 S    
O92   H102  1.013839 S    
C78   H22   1.077927 S    
C39   C219  1.498437 S    
C62   C114  1.420118 A    
O16   C8    1.293921 A    
C222  O91   1.223220 D    
C161  H45   1.082815 S    
C128  C136  1.394184 A    
Zn6   O42   2.019000 S    
C104  O52   1.349837 S    
C125  C133  1.395030 A    
Zn10  O46   2.019000 S    
O68   H90   1.014053 S    
C157  H41   1.082816 S    
C160  C178  1.399094 A    
