data_mof_unit_47552.cif
_audit_creation_date              2012-12-11T17:23:14-0500
_audit_creation_method            fapswitch 2.2
_symmetry_space_group_name_H-M    P1
_symmetry_Int_Tables_number       1
_space_group_crystal_system       triclinic
_cell_length_a                    22.370741
_cell_length_b                    7.084131
_cell_length_c                    19.68102
_cell_angle_alpha                 90.000119
_cell_angle_beta                  98.837816
_cell_angle_gamma                 89.99986
_cell_volume                      3081.96290609

loop_
_atom_site_label
_atom_site_type_symbol
_atom_type_description
_atom_site_fract_x
_atom_site_fract_y
_atom_site_fract_z
_atom_type_partial_charge
O1    O     O_R   0.443980 0.494320 0.557430 -0.526269
O2    O     O_R   0.556020 0.994320 0.442570 -0.526269
O3    O     O_R   0.441210 0.822520 0.414610 -0.540414
O4    O     O_R   0.558790 0.322520 0.585390 -0.540414
C1    C     C_R   0.426191 0.654807 0.390122 0.692766
C2    C     C_R   0.573809 0.154807 0.609878 0.692766
O5    O     O_R   0.436920 0.823940 0.555180 -0.536412
O6    O     O_R   0.563080 0.323940 0.444820 -0.536411
O7    O     O_R   0.551700 0.995760 0.584140 -0.538405
O8    O     O_R   0.448300 0.495760 0.415860 -0.538405
C3    C     C_R   0.421490 0.655361 0.574700 0.707014
C4    C     C_R   0.578510 0.155360 0.425300 0.707014
O9    O     O_3   0.537660 0.661290 0.509340 -0.370939
O10   O     O_3   0.462340 0.161290 0.490660 -0.370939
V1    V     V_3+5 0.493010 0.935560 0.498270 1.475689
V2    V     V_3+5 0.506990 0.435560 0.501730 1.475689
C5    C     C_R   0.758043 0.945612 0.213805 -0.150209
C6    C     C_R   0.241958 0.445612 0.786196 -0.150209
H1    H     H_    0.763884 0.818976 0.184675 0.177827
H2    H     H_    0.236117 0.318975 0.815325 0.177831
C7    C     C_R   0.794854 0.102168 0.206220 0.033248
C8    C     C_R   0.205147 0.602168 0.793780 0.033248
C9    C     C_R   0.787110 0.269253 0.243336 0.009286
C10   C     C_R   0.212890 0.769253 0.756665 0.009286
C11   C     C_R   0.744520 0.271942 0.289283 -0.189163
C12   C     C_R   0.255480 0.771942 0.710718 -0.189162
H3    H     H_    0.738606 0.399625 0.317914 0.171723
H4    H     H_    0.261394 0.899625 0.682088 0.171722
C13   C     C_R   0.707792 0.115252 0.297101 0.021548
C14   C     C_R   0.292208 0.615252 0.702900 0.021548
C15   C     C_R   0.714357 0.949125 0.258515 0.004904
C16   C     C_R   0.285644 0.449125 0.741486 0.004901
C17   C     C_1   0.841130 0.085119 0.161602 0.041116
C18   C     C_1   0.158871 0.585118 0.838398 0.041100
C19   C     C_1   0.662429 0.132585 0.342840 0.036591
C20   C     C_1   0.337571 0.632586 0.657160 0.036591
C21   C     C_1   0.624390 0.145169 0.380628 -0.125637
C22   C     C_1   0.375610 0.645170 0.619372 -0.125637
C23   C     C_1   0.879383 0.072062 0.124088 -0.091476
C24   C     C_1   0.120617 0.572061 0.875912 -0.091515
C25   C     C_R   0.626066 0.122843 0.798995 -0.139787
C26   C     C_R   0.373934 0.622844 0.201005 -0.139786
H5    H     H_    0.540485 0.143584 0.734024 0.121697
H6    H     H_    0.459515 0.643586 0.265976 0.121697
H7    H     H_    0.605146 0.119923 0.845157 0.124984
H8    H     H_    0.394854 0.619923 0.154843 0.124984
C27   C     C_R   0.614517 0.143941 0.675698 -0.036413
C28   C     C_R   0.385483 0.643942 0.324302 -0.036413
C29   C     C_R   0.909945 0.069497 0.762387 -0.019734
C30   C     C_R   0.090054 0.569505 0.237613 -0.019733
C31   C     C_R   0.873889 0.086488 0.698290 -0.129361
C32   C     C_R   0.126110 0.586503 0.301710 -0.129361
C33   C     C_R   0.811571 0.102100 0.692004 -0.163376
C34   C     C_R   0.188428 0.602114 0.307995 -0.163375
C35   C     C_R   0.781852 0.105647 0.750078 0.079841
C36   C     C_R   0.218148 0.605650 0.249921 0.079841
C37   C     C_R   0.818186 0.098265 0.817334 -0.011097
C38   C     C_R   0.181814 0.598257 0.182666 -0.011104
C39   C     C_R   0.716850 0.117716 0.742924 0.081384
C40   C     C_R   0.283149 0.617718 0.257076 0.081382
C41   C     C_R   0.689167 0.114413 0.802893 0.105465
C42   C     C_R   0.310832 0.614413 0.197107 0.105469
C43   C     C_R   0.724212 0.109499 0.867142 -0.207242
C44   C     C_R   0.275788 0.609489 0.132858 -0.207238
C45   C     C_R   0.787124 0.110511 0.875157 -0.011789
C46   C     C_R   0.212876 0.610490 0.124843 -0.011770
C47   C     C_R   0.677766 0.133196 0.678657 -0.207918
C48   C     C_R   0.322234 0.633198 0.321343 -0.207918
C49   C     C_R   0.589122 0.137230 0.735915 -0.159466
C50   C     C_R   0.410878 0.637232 0.264085 -0.159467
C51   C     C_R   0.883237 0.076051 0.823214 -0.156334
C52   C     C_R   0.116763 0.576049 0.176787 -0.156341
H9    H     H_    0.694552 0.137894 0.630237 0.095268
H10   H     H_    0.305448 0.637894 0.369763 0.095268
H11   H     H_    0.787804 0.109041 0.640199 0.122248
H12   H     H_    0.212195 0.609066 0.359800 0.122247
H13   H     H_    0.894227 0.081866 0.651743 0.159905
H14   H     H_    0.105773 0.581890 0.348257 0.159905
O11   O     O_R   0.051730 0.724670 0.084120 -0.533060
O12   O     O_R   0.948270 0.224670 0.915880 -0.533052
O13   O     O_R   0.063080 0.393540 0.944820 -0.535876
O14   O     O_R   0.936920 0.893540 0.055180 -0.535894
C53   C     C_R   0.075777 0.561634 0.922046 0.762153
C54   C     C_R   0.924222 0.061634 0.077953 0.762131
O15   O     O_R   0.058800 0.395030 0.085390 -0.518700
O16   O     O_R   0.941200 0.895030 0.914610 -0.518705
O17   O     O_R   0.943980 0.223310 0.057440 -0.529063
O18   O     O_R   0.056020 0.723310 0.942560 -0.529057
C55   C     C_R   0.074981 0.564538 0.109591 0.731254
C56   C     C_R   0.925019 0.064538 0.890410 0.731249
O19   O     O_3   0.962360 0.556290 0.990650 -0.364752
O20   O     O_3   0.037640 0.056290 0.009350 -0.364742
V3    V     V_3+5 0.006980 0.281990 0.001730 1.572397
V4    V     V_3+5 0.993020 0.781990 0.998270 1.572375
C57   C     C_2   0.676710 0.777170 0.262885 0.747166
O21   O     O_2   0.650134 0.751789 0.311955 -0.563602
O22   O     O_R   0.672181 0.641772 0.210585 -0.666688
H15   H     H_    0.645408 0.531432 0.219061 0.295706
C58   C     C_2   0.323292 0.277170 0.737116 0.747166
O23   O     O_2   0.349869 0.251793 0.688047 -0.563602
O24   O     O_R   0.327819 0.141770 0.789414 -0.666689
H16   H     H_    0.354592 0.031431 0.780939 0.295705
C59   C     C_2   0.815591 0.148135 0.945530 0.700856
O25   O     O_2   0.810944 0.031309 0.989992 -0.569453
O26   O     O_R   0.837749 0.329151 0.962577 -0.641783
H17   H     H_    0.843071 0.354613 0.013771 0.313799
C60   C     C_2   0.184409 0.648075 0.054468 0.700846
O27   O     O_2   0.189045 0.531202 0.010017 -0.569441
O28   O     O_R   0.162264 0.829097 0.037403 -0.641783
H18   H     H_    0.156946 0.854525 0.986208 0.313795
C61   C     C_2   0.821164 0.444690 0.233709 0.766754
O29   O     O_2   0.833824 0.555098 0.281545 -0.538826
O30   O     O_R   0.836851 0.487764 0.169377 -0.673772
H19   H     H_    0.858988 0.612630 0.169143 0.297279
C62   C     C_2   0.178836 0.944690 0.766292 0.766755
O31   O     O_2   0.166176 0.055098 0.718457 -0.538825
O32   O     O_R   0.163149 0.987763 0.830625 -0.673773
H20   H     H_    0.141012 0.112629 0.830859 0.297285
H21   H     H_    0.701947 0.115555 0.912464 0.147411
H22   H     H_    0.298054 0.615537 0.087536 0.147397
C63   C     C_2   0.975837 0.040905 0.763298 0.742093
O33   O     O_2   0.002314 0.129757 0.723686 -0.533999
O34   O     O_R   0.007028 0.906026 0.806791 -0.662463
H23   H     H_    0.050615 0.891939 0.799575 0.304156
C64   C     C_2   0.024163 0.540913 0.236702 0.742091
O35   O     O_2   0.997686 0.629769 0.276313 -0.534000
O36   O     O_R   0.992972 0.406030 0.193211 -0.662465
H24   H     H_    0.949385 0.391944 0.200427 0.304155

loop_
_geom_bond_atom_site_label_1
_geom_bond_atom_site_label_2
_ccdc_geom_bond_type
C43   C45   A    
O24   H16   S    
O14   V4    S    
C35   C39   A    
C57   O21   D    
O1    C3    A    
C54   O17   A    
C25   C41   A    
C46   C60   S    
O2    C4    A    
C2    O7    A    
O22   H15   S    
O34   H23   S    
O5    C3    A    
C17   C23   T    
C18   C24   T    
C19   C21   T    
C10   C12   A    
C23   C54   S    
C7    C17   S    
C48   H10   S    
C62   O31   D    
C26   C50   A    
C43   H21   S    
C40   C42   A    
C26   H8    S    
C4    C21   S    
C41   C43   A    
C30   C52   A    
C27   C49   A    
C42   C44   A    
O16   V4    S    
C39   C47   A    
O15   V3    S    
C38   C46   A    
C61   O29   D    
C29   C31   A    
C30   C32   A    
C60   O27   D    
H6    C50   S    
C47   H9    S    
C26   C42   A    
O5    V1    S    
C53   O18   A    
O6    V2    S    
C60   O28   S    
C24   C53   S    
C33   H11   S    
C32   H14   S    
C27   C47   A    
O13   C53   A    
C32   C34   A    
O18   V4    S    
C33   C35   A    
C11   C13   A    
C8    C18   S    
C1    C28   S    
C34   C36   A    
C39   C41   A    
C63   O34   S    
C2    C27   S    
O11   V4    S    
C59   O26   S    
O16   C56   A    
C37   C45   A    
O1    V2    S    
O15   C55   A    
C62   O32   S    
C5    C7    A    
C36   C40   A    
C31   C33   A    
C44   C46   A    
O4    V2    S    
C3    C22   S    
C31   H13   S    
C28   C48   A    
O19   V3    S    
O13   V3    S    
C58   O23   D    
O6    C4    A    
C29   C63   S    
O20   V4    S    
C61   O30   S    
C30   C64   S    
C37   C51   A    
O2    V1    S    
C63   O33   D    
C34   H12   S    
O4    C2    A    
C58   O24   S    
C12   C14   A    
O14   C54   A    
C7    C9    A    
C64   O35   D    
C5    C15   A    
C8    C10   A    
C6    C16   A    
C45   C59   S    
O36   H24   S    
O3    V1    S    
C25   C49   A    
O30   H19   S    
C6    C8    A    
C28   C50   A    
O3    C1    A    
C57   O22   S    
C11   H3    S    
C9    C61   S    
O26   H17   S    
C13   C19   S    
C12   H4    S    
C44   H22   S    
C16   C58   S    
C14   C20   S    
C35   C37   A    
O7    V1    S    
C1    O8    A    
C13   C15   A    
O8    V2    S    
O32   H20   S    
O19   V4    S    
C14   C16   A    
C52   C55   S    
C38   C52   A    
C51   C56   S    
C15   C57   S    
O17   V3    S    
C20   C22   T    
O20   V3    S    
C5    H1    S    
C36   C38   A    
C6    H2    S    
C9    C11   A    
O12   C56   A    
O11   C55   A    
C40   C48   A    
C10   C62   S    
H5    C49   S    
C29   C51   A    
O9    V2    S    
C59   O25   D    
C64   O36   S    
C25   H7    S    
O10   V1    S    
O12   V3    S    
O28   H18   S    
