data_mof_unit_48083.cif
_audit_creation_date              2012-12-10T19:31:30-0500
_audit_creation_method            fapswitch 2.2
_symmetry_space_group_name_H-M    P1
_symmetry_Int_Tables_number       1
_space_group_crystal_system       triclinic
_cell_length_a                    19.14864
_cell_length_b                    15.72728
_cell_length_c                    14.928485
_cell_angle_alpha                 88.636547
_cell_angle_beta                  90.312922
_cell_angle_gamma                 90.181343
_cell_volume                      4494.44253273

loop_
_atom_site_label
_atom_site_type_symbol
_atom_type_description
_atom_site_fract_x
_atom_site_fract_y
_atom_site_fract_z
_atom_type_partial_charge
C1    C     C_R   0.499978 0.337566 0.500980 1.017879
C2    C     C_3   0.496195 0.977297 0.414736 -0.014759
C3    C     C_3   0.497967 0.083088 0.504306 -0.039311
C4    C     C_3   0.496977 0.917078 0.497108 -0.049925
C5    C     C_1   0.499006 0.173718 0.504926 0.030687
C6    C     C_1   0.496822 0.826383 0.495809 0.068148
C7    C     C_3   0.524275 0.424619 0.972763 -0.155874
C8    C     C_3   0.474973 0.575285 0.027324 -0.162625
C9    C     C_3   0.564909 0.488827 0.030742 0.394065
C10   C     C_3   0.434335 0.510997 0.969347 0.401963
C11   C     C_3   0.458875 0.437055 0.031855 0.368779
C12   C     C_R   0.499058 0.662455 0.499008 0.960777
C13   C     C_3   0.540438 0.562852 0.968259 0.323238
C14   C     C_3   0.499664 0.500833 0.089911 -0.311631
C15   C     C_3   0.499603 0.499030 0.910139 -0.303198
C16   C     C_R   0.365008 0.500850 0.499697 1.017166
C17   C     C_R   0.634781 0.501234 0.500209 1.036674
C18   C     C_1   0.499854 0.500474 0.189909 0.349727
C19   C     C_1   0.499779 0.499453 0.810106 0.339113
C20   C     C_R   0.251412 0.455556 0.564667 0.375401
C21   C     C_R   0.748095 0.440802 0.455291 0.375395
C22   C     C_R   0.180969 0.475224 0.581297 0.008861
C23   C     C_3   0.554790 0.969754 0.540699 0.422937
C24   C     C_R   0.819009 0.455045 0.434637 0.013627
C25   C     C_R   0.145151 0.526562 0.517444 -0.051611
C26   C     C_R   0.854490 0.520572 0.479545 -0.046923
C27   C     C_R   0.181272 0.570721 0.450207 -0.239966
C28   C     C_R   0.817796 0.580407 0.527887 -0.235798
C29   C     C_R   0.253184 0.563998 0.443180 0.366512
C30   C     C_R   0.745773 0.575642 0.534956 0.313955
C31   C     C_R   0.288822 0.505102 0.500228 -0.309525
C32   C     C_R   0.710676 0.504682 0.499628 -0.300081
C33   C     C_R   0.930234 0.522693 0.485799 0.309095
C34   C     C_3   0.440120 0.030512 0.460791 0.443773
C35   C     C_R   0.069372 0.526606 0.511901 0.313481
C36   C     C_3   0.145795 0.447749 0.668933 -0.323761
C37   C     C_3   0.123126 0.524969 0.722802 -0.389931
C38   C     C_3   0.093857 0.497590 0.813955 -0.771496
C39   C     C_3   0.854809 0.406725 0.360287 -0.329997
C40   C     C_3   0.879408 0.467176 0.284272 -0.383618
C41   C     C_3   0.909716 0.417985 0.206675 -0.770870
C42   C     C_3   0.495994 0.947120 0.318064 -0.387726
C43   C     C_3   0.508298 0.021033 0.251138 -0.311960
C44   C     C_3   0.502271 0.991727 0.154763 -0.854242
C45   C     C_3   0.554857 0.030769 0.458098 -0.273875
C46   C     C_3   0.498819 0.053746 0.683178 -0.391787
C47   C     C_3   0.486105 0.980397 0.750645 -0.314099
C48   C     C_3   0.491808 0.010485 0.846781 -0.850550
C49   C     C_3   0.549337 0.340513 0.934445 -0.324201
C50   C     C_3   0.579791 0.279472 0.006048 -0.227352
C51   C     C_3   0.581411 0.188428 0.973198 -0.888173
C52   C     C_3   0.449329 0.658894 0.066205 -0.324996
C53   C     C_3   0.419659 0.720724 0.994852 -0.274510
C54   C     C_3   0.413552 0.810294 0.030888 -0.893704
C55   C     C_3   0.440059 0.969401 0.543384 -0.272978
C56   C     C_1   0.499591 0.248850 0.503427 -0.094836
C57   C     C_1   0.497582 0.751217 0.496695 -0.013728
C58   C     C_3   0.498715 0.022973 0.586714 -0.021278
H1    H     H_    0.152690 0.610489 0.402605 0.199879
H2    H     H_    0.134359 0.463622 0.854452 0.283275
H3    H     H_    0.077240 0.554590 0.850703 0.257503
H4    H     H_    0.168825 0.567445 0.733446 0.259328
H5    H     H_    0.082335 0.561803 0.685954 0.240000
H6    H     H_    0.100477 0.405708 0.655744 0.230321
H7    H     H_    0.181917 0.411220 0.713153 0.275445
H8    H     H_    0.955003 0.379300 0.230070 0.272197
H9    H     H_    0.869423 0.375530 0.177759 0.272798
H10   H     H_    0.927617 0.463338 0.153408 0.260388
H11   H     H_    0.834479 0.505604 0.258952 0.265473
H12   H     H_    0.845873 0.631279 0.560050 0.200322
H13   H     H_    0.920163 0.511369 0.308704 0.240339
H14   H     H_    0.899226 0.369017 0.387660 0.232738
H15   H     H_    0.818492 0.361468 0.328590 0.271997
H16   H     H_    0.215606 0.670832 0.266744 0.366124
H17   H     H_    0.777910 0.713796 0.676714 0.368959
H18   H     H_    0.656430 0.994758 0.710280 0.360834
H19   H     H_    0.339382 0.007947 0.290390 0.362222
H20   H     H_    0.541001 0.941027 0.142102 0.268625
H21   H     H_    0.448805 0.967246 0.141694 0.266918
H22   H     H_    0.512447 0.046206 0.107934 0.266251
H23   H     H_    0.601860 0.057653 0.424509 0.203482
H24   H     H_    0.469436 0.071939 0.261287 0.272753
H25   H     H_    0.561268 0.048212 0.261709 0.241865
H26   H     H_    0.538121 0.899358 0.310876 0.227679
H27   H     H_    0.445225 0.915600 0.304203 0.230961
H28   H     H_    0.545286 0.034841 0.860012 0.265632
H29   H     H_    0.453203 0.061505 0.858703 0.273938
H30   H     H_    0.481257 0.956434 0.894035 0.261426
H31   H     H_    0.433120 0.953305 0.739966 0.235619
H32   H     H_    0.524908 0.929294 0.741207 0.270608
H33   H     H_    0.549656 0.085112 0.697002 0.218576
H34   H     H_    0.393070 0.942549 0.577014 0.198259
H35   H     H_    0.456842 0.101793 0.689845 0.226873
H36   H     H_    0.751697 0.441021 0.024397 0.383859
H37   H     H_    0.247551 0.558506 0.977256 0.381396
H38   H     H_    0.527376 0.165194 0.961487 0.274701
H39   H     H_    0.611605 0.185157 0.910043 0.271827
H40   H     H_    0.606571 0.146424 0.024678 0.267250
H41   H     H_    0.634002 0.298990 0.022310 0.273277
H42   H     H_    0.548692 0.280701 0.068317 0.277623
H43   H     H_    0.504146 0.310507 0.900340 0.244850
H44   H     H_    0.589823 0.354318 0.883029 0.216568
H45   H     H_    0.357737 0.262952 0.567692 0.394035
H46   H     H_    0.380515 0.809944 0.091845 0.291315
H47   H     H_    0.466164 0.835488 0.047416 0.254564
H48   H     H_    0.389339 0.852907 0.979202 0.267373
H49   H     H_    0.453336 0.723133 0.934798 0.263365
H50   H     H_    0.366891 0.699354 0.974243 0.286826
H51   H     H_    0.408221 0.644354 0.116606 0.252657
H52   H     H_    0.494009 0.688660 0.101590 0.218214
H53   H     H_    0.650635 0.254316 0.527579 0.383747
H54   H     H_    0.582785 0.759535 0.995873 0.350704
H55   H     H_    0.357800 0.239234 0.028910 0.391455
H56   H     H_    0.047898 0.455236 0.805292 0.268431
N1    N     N_R   0.034184 0.451912 0.516825 -0.148007
N2    N     N_R   0.965335 0.597648 0.480889 -0.150614
N3    N     N_R   0.965584 0.450090 0.504852 -0.151942
N4    N     N_R   0.034108 0.599460 0.492777 -0.152613
N5    N     N_1   0.500020 0.500000 0.268010 -0.059705
N6    N     N_1   0.499980 0.500000 0.731990 -0.063865
O1    O     O_R   0.500000 0.376780 0.574460 -0.616285
O2    O     O_2   0.233831 0.295804 0.632595 -0.271242
O3    O     O_3   0.346370 0.319733 0.541528 -0.556308
O4    O     O_2   0.668080 0.340463 0.352944 -0.245410
O5    O     O_2   0.763069 0.270558 0.437464 -0.293627
O6    O     O_3   0.654556 0.317145 0.525094 -0.597512
O7    O     O_2   0.662072 0.603646 0.888369 -0.159472
O8    O     O_2   0.560768 0.689339 0.845278 -0.298215
O9    O     O_3   0.617820 0.713533 0.001736 -0.490345
O10   O     O_2   0.439286 0.311184 0.155176 -0.302102
O11   O     O_2   0.336744 0.394339 0.109374 -0.187914
O12   O     O_R   0.500000 0.623220 0.425540 -0.614223
O13   O     O_3   0.385133 0.284568 0.997918 -0.528306
O14   O     O_2   0.353536 0.678624 0.405632 -0.305523
O15   O     O_2   0.324979 0.577226 0.289045 -0.271168
O16   O     O_3   0.238996 0.701186 0.316026 -0.505463
O17   O     O_2   0.652908 0.700786 0.517969 -0.273298
O18   O     O_2   0.660703 0.629559 0.665168 -0.222543
O19   O     O_3   0.758759 0.735852 0.618956 -0.446282
O20   O     O_2   0.616113 0.851649 0.649013 -0.239332
O21   O     O_2   0.680224 0.898886 0.515529 -0.171812
O22   O     O_3   0.674137 0.001988 0.648344 -0.514307
O23   O     O_R   0.500010 0.376780 0.425520 -0.571945
O24   O     O_2   0.314439 0.100415 0.486998 -0.214159
O25   O     O_2   0.378682 0.150478 0.354796 -0.280191
O26   O     O_3   0.321074 0.999963 0.351949 -0.491888
O27   O     O_2   0.674830 0.560382 0.113069 -0.227759
O28   O     O_2   0.650803 0.410427 0.149464 -0.304656
O29   O     O_3   0.705794 0.448196 0.994296 -0.526605
O30   O     O_2   0.347816 0.586662 0.849312 -0.333089
O31   O     O_2   0.323280 0.437945 0.891034 -0.199523
O32   O     O_3   0.294037 0.553847 0.006359 -0.522278
O33   O     O_R   0.499990 0.623220 0.574480 -0.590862
O34   O     O_R   0.398130 0.499990 0.574490 -0.590812
O35   O     O_R   0.601870 0.500010 0.425510 -0.598063
O36   O     O_R   0.398140 0.499990 0.425550 -0.555061
O37   O     O_R   0.601860 0.500010 0.574450 -0.572489
O38   O     O_2   0.326447 0.382911 0.698646 -0.245488
S1    S     S_3+6 0.289296 0.361515 0.613143 0.054792
S2    S     S_3+6 0.347822 0.522084 0.925151 0.059850
S3    S     S_3+6 0.708693 0.339313 0.439366 0.023897
S4    S     S_3+6 0.596563 0.643798 0.922295 0.105808
S5    S     S_3+6 0.403374 0.355334 0.077422 0.085411
S6    S     S_3+6 0.295293 0.630447 0.361959 0.053419
S7    S     S_3+6 0.701887 0.661068 0.585561 0.104686
S8    S     S_3+6 0.633008 0.927021 0.589117 0.092053
S9    S     S_3+6 0.361893 0.073867 0.412964 0.064036
S10   S     S_3+6 0.651118 0.477172 0.075737 0.055465
Zn1   Zn    Zn3+2 0.499990 0.500000 0.599450 1.120283
Zn2   Zn    Zn3+2 0.500010 0.500000 0.400550 1.138598

loop_
_geom_bond_atom_site_label_1
_geom_bond_atom_site_label_2
_ccdc_geom_bond_type
O10   S5    D    
C51   H39   S    
C23   C58   S    
O1    Zn1   S    
O26   S9    S    
O32   S2    S    
C33   N3    A    
C8    C13   S    
C23   C45   S    
C40   H13   S    
C27   C29   A    
C43   H25   S    
O15   S6    D    
C14   C18   S    
C5    C56   T    
C2    C4    S    
C6    C57   T    
C12   O33   A    
C43   C44   S    
H45   O3    S    
O17   S7    D    
C37   H4    S    
C13   S4    S    
C41   H9    S    
C53   C54   S    
C16   C31   S    
C15   C19   S    
C50   H41   S    
C37   C38   S    
O30   S2    D    
O18   S7    D    
C54   H46   S    
C36   C37   S    
C1    C56   S    
C24   C26   A    
C10   C15   S    
C49   H43   S    
C38   H56   S    
C11   C14   S    
N6    Zn1   S    
C24   C39   S    
O36   Zn2   S    
O19   S7    S    
C9    C13   S    
O37   Zn1   S    
O14   S6    D    
N1    N3    A    
C20   S1    S    
H16   O16   S    
C16   O36   A    
C39   H14   S    
C48   H30   S    
C35   N1    A    
C52   H52   S    
H54   O9    S    
O6    S3    S    
C17   O37   A    
C8    C52   S    
C51   H38   S    
C38   H3    S    
C2    C34   S    
C51   H40   S    
C7    C15   S    
C34   C55   S    
H55   O13   S    
C46   C58   S    
C47   H31   S    
C29   S6    S    
O29   S10   S    
O12   Zn2   S    
O13   S5    S    
C11   S5    S    
C37   H5    S    
C41   H10   S    
C9    S10   S    
C2    C45   S    
O20   S8    D    
C21   C32   A    
O5    S3    D    
C21   S3    S    
C40   H11   S    
C54   H48   S    
O24   S9    D    
C44   H22   S    
C42   H26   S    
C7    C49   S    
C4    C6    S    
O27   S10   D    
C49   H44   S    
C4    C23   S    
C36   H7    S    
C46   H33   S    
C3    C34   S    
C22   C25   A    
O34   Zn1   S    
H36   O29   S    
C7    C11   S    
C9    C14   S    
C55   H34   S    
C1    O23   A    
O22   S8    S    
C23   S8    S    
C53   H49   S    
C26   C33   S    
C47   C48   S    
O11   S5    D    
O2    S1    D    
H53   O6    S    
O8    S4    D    
C50   C51   S    
O21   S8    D    
C48   H29   S    
C42   H27   S    
O23   Zn2   S    
C25   C35   S    
C38   H2    S    
C12   C57   S    
C40   C41   S    
C20   C22   A    
C19   N6    T    
O7    S4    D    
C13   C15   S    
C4    C55   S    
C16   O34   A    
O38   S1    D    
O28   S10   D    
C47   H32   S    
C48   H28   S    
C21   C24   A    
C42   C43   S    
C34   S9    S    
C17   O35   A    
C10   S2    S    
C39   C40   S    
C52   C53   S    
O4    S3    D    
O25   S9    D    
C7    C9    S    
C46   C47   S    
C33   N2    A    
C8    C14   S    
C12   O12   A    
C54   H47   S    
O16   S6    S    
C50   H42   S    
C44   H21   S    
C28   H12   S    
C30   S7    S    
C3    C5    S    
C41   H8    S    
C25   C27   A    
C22   C36   S    
C26   C28   A    
O31   S2    D    
C44   H20   S    
C3    C45   S    
C29   C31   A    
C27   H1    S    
C30   C32   A    
C53   H50   S    
C46   H35   S    
O3    S1    S    
C52   H51   S    
C2    C42   S    
H19   O26   S    
C28   C30   A    
N2    N4    A    
O9    S4    S    
C45   H23   S    
C39   H15   S    
C1    O1    A    
C10   C11   S    
N5    Zn2   S    
C3    C58   S    
O35   Zn2   S    
C8    C10   S    
C49   C50   S    
C55   C58   S    
O33   Zn1   S    
C17   C32   S    
C35   N4    A    
H17   O19   S    
H37   O32   S    
C36   H6    S    
C18   N5    T    
C43   H24   S    
C20   C31   A    
H18   O22   S    
