data_mof_unit_38733.cif
_audit_creation_date              2012-12-10T19:43:24-0500
_audit_creation_method            fapswitch 2.2
_symmetry_space_group_name_H-M    P1
_symmetry_Int_Tables_number       1
_space_group_crystal_system       triclinic
_cell_length_a                    10.849441
_cell_length_b                    10.873023
_cell_length_c                    9.57102
_cell_angle_alpha                 89.980461
_cell_angle_beta                  90.940901
_cell_angle_gamma                 91.851712
_cell_volume                      1128.31529884

loop_
_atom_site_label
_atom_site_type_symbol
_atom_type_description
_atom_site_fract_x
_atom_site_fract_y
_atom_site_fract_z
_atom_type_partial_charge
C1    C     C_R   0.507328 0.262482 0.501468 0.803892
C2    C     C_R   0.206502 0.736758 0.026259 -0.120683
C3    C     C_R   0.932787 0.547925 0.389404 -0.185371
C4    C     C_R   0.871482 0.495137 0.503222 -0.078969
C5    C     C_R   0.939671 0.444158 0.614760 0.024705
C6    C     C_R   0.067536 0.450586 0.611115 -0.244593
C7    C     C_R   0.128666 0.503792 0.497470 -0.090610
C8    C     C_R   0.060630 0.552543 0.384694 -0.014345
C9    C     C_R   0.864555 0.430562 0.859748 -0.229639
C10   C     C_R   0.825671 0.360336 0.974371 0.622605
C11   C     C_R   0.809526 0.232753 0.961767 -0.203174
C12   C     C_R   0.262513 0.502581 0.498860 0.795331
C13   C     C_R   0.831269 0.175300 0.834300 -0.257458
C14   C     C_R   0.866682 0.245581 0.718495 -0.163927
C15   C     C_R   0.883612 0.373669 0.730658 0.058328
C16   C     C_R   0.541085 0.116472 0.768320 -0.161981
C17   C     C_R   0.517279 0.054363 0.892574 -0.166222
C18   C     C_R   0.461531 0.938174 0.888774 -0.147375
C19   C     C_R   0.438910 0.880249 0.760847 -0.164319
C20   C     C_R   0.476463 0.936306 0.633814 0.097972
C21   C     C_R   0.511010 0.062331 0.636373 0.094336
C22   C     C_R   0.513453 0.128039 0.507178 -0.116486
C23   C     C_R   0.491342 0.737252 0.500750 0.770140
C24   C     C_R   0.507070 0.063404 0.380658 -0.214280
C25   C     C_R   0.496992 0.936481 0.379884 -0.233079
C26   C     C_R   0.482747 0.871392 0.505024 -0.114422
C27   C     C_R   0.659485 0.666774 0.146575 -0.106762
C28   C     C_R   0.736481 0.748693 0.075417 -0.215254
C29   C     C_R   0.736754 0.748133 0.931605 -0.202623
C30   C     C_R   0.660198 0.665462 0.858227 -0.147480
C31   C     C_R   0.578275 0.581889 0.926374 0.200948
C32   C     C_R   0.578002 0.582225 0.076083 0.272012
C33   C     C_R   0.425397 0.422299 0.072625 -0.045628
C34   C     C_R   0.737512 0.496308 0.501304 0.787283
C35   C     C_R   0.425405 0.422353 0.924558 -0.080544
C36   C     C_R   0.226008 0.788212 0.158970 -0.135482
C37   C     C_R   0.181966 0.726446 0.277071 -0.112969
C38   C     C_R   0.117950 0.612809 0.262433 0.124711
C39   C     C_R   0.100775 0.560683 0.129028 -0.120168
C40   C     C_R   0.145335 0.622461 0.011359 -0.150681
Cu1   Cu    Cu3+1 0.499990 0.499990 0.640660 0.920300
Cu2   Cu    Cu3+1 0.500010 0.500010 0.359340 0.963877
H1    H     H_    0.237210 0.785989 0.934706 0.120006
H2    H     H_    0.780833 0.178236 0.050855 0.151619
H3    H     H_    0.819590 0.076368 0.824937 0.166111
H4    H     H_    0.884368 0.199988 0.620572 0.144926
H5    H     H_    0.511273 0.110921 0.281240 0.161929
H6    H     H_    0.588456 0.204390 0.779477 0.190676
H7    H     H_    0.540031 0.097637 0.991979 0.133879
H8    H     H_    0.438427 0.891734 0.985246 0.130894
H9    H     H_    0.389519 0.792714 0.763746 0.159247
H10   H     H_    0.500047 0.889325 0.280343 0.163226
H11   H     H_    0.364223 0.358725 0.126946 0.132507
H12   H     H_    0.273301 0.876896 0.170149 0.122393
H13   H     H_    0.669534 0.673395 0.256593 0.184663
H14   H     H_    0.797496 0.812136 0.132668 0.147850
H15   H     H_    0.797955 0.811115 0.876191 0.146585
H16   H     H_    0.670935 0.670310 0.748531 0.202952
H17   H     H_    0.364319 0.358701 0.867991 0.141308
H18   H     H_    0.195256 0.768153 0.379200 0.103975
H19   H     H_    0.052017 0.472893 0.116347 0.162714
H20   H     H_    0.130987 0.582595 0.908534 0.133392
H21   H     H_    0.881016 0.588302 0.304155 0.185861
H22   H     H_    0.119638 0.409637 0.695962 0.155252
H23   H     H_    0.882218 0.528530 0.871964 0.153205
N1    N     N_R   0.501190 0.501210 0.147910 -0.189712
N2    N     N_R   0.501230 0.501290 0.852040 -0.206205
O1    O     O_R   0.499990 0.319640 0.618810 -0.595557
O2    O     O_R   0.500000 0.319660 0.381240 -0.574543
O3    O     O_R   0.319640 0.500000 0.618780 -0.591463
O4    O     O_R   0.319650 0.500020 0.381210 -0.571141
O5    O     O_R   0.500000 0.680340 0.618760 -0.613554
O6    O     O_R   0.500010 0.680360 0.381190 -0.606249
O7    O     O_R   0.680350 0.499980 0.618790 -0.602302
O8    O     O_R   0.680360 0.500000 0.381220 -0.558877
F1    F     F_    0.806821 0.415383 0.098838 -0.697481

loop_
_geom_bond_atom_site_label_1
_geom_bond_atom_site_label_2
_ccdc_geom_bond_type
C16   C21   A    
Cu1   Cu2   S    
C19   C20   A    
C16   H6    S    
C28   H14   S    
C7    C8    A    
C14   H4    S    
C31   N2    A    
Cu2   O8    S    
C37   C38   A    
C36   C37   A    
C5    C6    A    
C27   H13   S    
C1    O1    A    
C40   H20   S    
C35   H17   S    
C18   C19   A    
C23   C26   S    
C6    H22   S    
Cu1   O7    S    
C10   F1    S    
C16   C17   A    
C9    C10   A    
C34   O8    A    
C1    C22   S    
C21   C22   A    
C8    C38   S    
C23   O6    A    
C33   N1    A    
Cu1   O1    S    
C33   H11   S    
C7    C12   S    
C39   H19   S    
C4    C34   S    
C38   C39   A    
C24   C25   A    
Cu1   N2    S    
C3    C8    A    
C17   H7    S    
C39   C40   A    
C25   C26   A    
Cu2   O2    S    
C1    O2    A    
C29   C30   A    
C19   H9    S    
C31   C32   A    
C35   N2    A    
C2    H1    S    
C17   C18   A    
C11   H2    S    
C34   O7    A    
Cu1   O5    S    
C12   O4    A    
C29   H15   S    
C22   C24   A    
C3    C4    A    
C18   H8    S    
C32   N1    A    
C2    C36   A    
C12   O3    A    
C28   C29   A    
Cu2   O6    S    
C27   C32   A    
C24   H5    S    
C23   O5    A    
C4    C5    A    
C6    C7    A    
C3    H21   S    
C9    C15   A    
C25   H10   S    
C13   H3    S    
C11   C13   A    
C30   C31   A    
C20   C26   A    
C30   H16   S    
Cu2   O4    S    
C33   C35   A    
C9    H23   S    
C5    C15   S    
C37   H18   S    
C36   H12   S    
C10   C11   A    
C2    C40   A    
C20   C21   A    
C27   C28   A    
Cu2   N1    S    
C14   C15   A    
C13   C14   A    
Cu1   O3    S    
