data_mof_unit_11940.cif
_audit_creation_date              2012-10-26T19:55:34-0400
_audit_creation_method            fapswitch 2.2
_symmetry_space_group_name_H-M    P1
_symmetry_Int_Tables_number       1
_space_group_crystal_system       triclinic
_cell_length_a                    12.973842
_cell_length_b                    15.833423
_cell_length_c                    17.024732
_cell_angle_alpha                 96.323494
_cell_angle_beta                  90.318285
_cell_angle_gamma                 87.117653
_cell_volume                      3471.55104756

loop_
_atom_site_label
_atom_site_type_symbol
_atom_type_description
_atom_site_fract_x
_atom_site_fract_y
_atom_site_fract_z
_atom_type_partial_charge
C1    C     C_R   0.501135 0.489577 0.348460 0.555479
C2    C     C_R   0.477267 0.590187 0.784362 -0.173127
C3    C     C_R   0.463806 0.752682 0.452848 0.000987
C4    C     C_R   0.554580 0.245018 0.534669 0.018486
C5    C     C_R   0.462593 0.842376 0.455310 0.215470
C6    C     C_R   0.549427 0.156653 0.536666 0.208501
C7    C     C_R   0.517013 0.889345 0.516724 0.222417
C8    C     C_R   0.475203 0.111534 0.488858 0.211581
C9    C     C_R   0.566982 0.844417 0.574231 0.210646
C10   C     C_R   0.406128 0.159046 0.444555 0.222645
C11   C     C_R   0.562600 0.755306 0.569921 0.015690
C12   C     C_R   0.501941 0.510295 0.651426 0.555078
C13   C     C_R   0.414581 0.247579 0.445547 0.017341
C14   C     C_R   0.301549 0.515406 0.499905 0.554788
C15   C     C_R   0.698499 0.484593 0.500138 0.549018
C16   C     C_R   0.810330 0.476367 0.503756 -0.059238
C17   C     C_R   0.189782 0.523779 0.496858 -0.059334
C18   C     C_R   0.033697 0.600323 0.459193 0.268189
C19   C     C_R   0.966484 0.400456 0.542966 0.264273
C20   C     C_R   0.141452 0.592179 0.463587 -0.122355
C21   C     C_R   0.858644 0.407685 0.536664 -0.127255
C22   C     C_R   0.131867 0.461045 0.524007 -0.131932
C23   C     C_R   0.567233 0.543873 0.145835 0.294451
C24   C     C_R   0.868266 0.539779 0.477882 -0.134698
C25   C     C_R   0.024688 0.465427 0.517671 0.015915
C26   C     C_R   0.975378 0.535419 0.484472 0.012717
C27   C     C_R   0.510268 0.483608 0.262343 -0.042550
C28   C     C_R   0.510559 0.515749 0.737356 -0.037170
C29   C     C_R   0.552036 0.550265 0.227296 -0.133652
C30   C     C_R   0.557309 0.447779 0.772515 -0.131378
C31   C     C_3   0.720032 0.877875 0.631678 -0.133789
C32   C     C_3   0.236719 0.131142 0.433313 -0.135725
C33   C     C_3   0.009116 0.747008 0.461004 0.003764
C34   C     C_R   0.571839 0.453827 0.854123 0.296534
C35   C     C_3   0.958709 0.765779 0.542780 -0.270830
C36   C     C_3   0.981531 0.854930 0.580402 -0.494387
C37   C     C_3   0.982465 0.254375 0.553981 0.003312
C38   C     C_3   0.927679 0.217235 0.620938 -0.268057
C39   C     C_3   0.889721 0.129070 0.593703 -0.469073
C40   C     C_3   0.729250 0.405838 0.897236 0.014030
C41   C     C_3   0.793509 0.367186 0.825586 -0.285168
C42   C     C_3   0.908374 0.379337 0.839198 -0.475016
C43   C     C_3   0.718514 0.585743 0.097317 0.017501
C44   C     C_3   0.786801 0.610166 0.169250 -0.274909
C45   C     C_R   0.531843 0.472118 0.097600 0.206485
C46   C     C_3   0.901022 0.593501 0.149239 -0.476073
C47   C     C_3   0.581350 0.109354 0.657238 0.026443
C48   C     C_3   0.606418 0.186648 0.715090 -0.303664
C49   C     C_3   0.582955 0.171385 0.799978 -0.467939
C50   C     C_3   0.311724 0.865864 0.385409 0.017806
C51   C     C_3   0.292847 0.824592 0.301351 -0.259607
C52   C     C_3   0.180644 0.801500 0.289318 -0.486120
C53   C     C_R   0.530685 0.526642 0.902047 0.210263
C54   C     C_R   0.492438 0.405071 0.133206 -0.153639
C55   C     C_R   0.486621 0.595110 0.866183 -0.154747
C56   C     C_R   0.482182 0.410327 0.214980 -0.170060
Cu1   Cu    Cu3+1 0.494970 0.415610 0.496200 0.930311
Cu2   Cu    Cu3+1 0.505030 0.584390 0.503800 0.924865
H1    H     H_    0.829220 0.592773 0.452881 0.178515
H2    H     H_    0.457533 0.651956 0.902085 0.139651
H3    H     H_    0.450735 0.357750 0.241015 0.146228
H4    H     H_    0.442184 0.643819 0.757940 0.143328
H5    H     H_    0.612463 0.279045 0.569467 0.136640
H6    H     H_    0.425103 0.715974 0.405277 0.139988
H7    H     H_    0.747504 0.895800 0.574169 0.139545
H8    H     H_    0.746511 0.811515 0.639732 0.104637
H9    H     H_    0.755740 0.920452 0.679188 0.134577
H10   H     H_    0.209898 0.199376 0.437911 0.106412
H11   H     H_    0.237751 0.107830 0.492726 0.110544
H12   H     H_    0.171050 0.408218 0.549174 0.178313
H13   H     H_    0.179834 0.094445 0.396622 0.133419
H14   H     H_    0.978323 0.795425 0.423287 0.154868
H15   H     H_    0.093482 0.755422 0.465167 0.109325
H16   H     H_    0.873991 0.760167 0.536705 0.158938
H17   H     H_    0.988731 0.718885 0.582333 0.162283
H18   H     H_    0.066163 0.861807 0.585641 0.150443
H19   H     H_    0.947399 0.865950 0.640509 0.138620
H20   H     H_    0.947855 0.903687 0.544222 0.141446
H21   H     H_    0.052180 0.212905 0.537068 0.134482
H22   H     H_    0.932957 0.252196 0.500039 0.120100
H23   H     H_    0.598882 0.721480 0.615389 0.145296
H24   H     H_    0.982040 0.212464 0.671134 0.169017
H25   H     H_    0.860780 0.259800 0.642529 0.152948
H26   H     H_    0.833683 0.132631 0.544470 0.190681
H27   H     H_    0.850756 0.103839 0.643494 0.159791
H28   H     H_    0.955679 0.084612 0.573639 0.131196
H29   H     H_    0.757123 0.376013 0.950032 0.153885
H30   H     H_    0.742022 0.475276 0.910094 0.117128
H31   H     H_    0.780776 0.298046 0.814160 0.162868
H32   H     H_    0.769239 0.397892 0.772435 0.152805
H33   H     H_    0.923174 0.448155 0.849775 0.151755
H34   H     H_    0.362516 0.283395 0.410267 0.143879
H35   H     H_    0.952427 0.351164 0.786120 0.167852
H36   H     H_    0.935840 0.347277 0.890826 0.145233
H37   H     H_    0.742067 0.621310 0.048174 0.156272
H38   H     H_    0.731851 0.516828 0.075947 0.120558
H39   H     H_    0.772255 0.678755 0.190014 0.184437
H40   H     H_    0.767590 0.572456 0.218000 0.159439
H41   H     H_    0.917507 0.524986 0.129301 0.146108
H42   H     H_    0.948204 0.611349 0.202568 0.173223
H43   H     H_    0.923265 0.632047 0.101901 0.145199
H44   H     H_    0.619413 0.052043 0.678854 0.208509
H45   H     H_    0.811901 0.361242 0.559480 0.117343
H46   H     H_    0.496658 0.099637 0.657054 0.137420
H47   H     H_    0.689371 0.199666 0.710184 0.161208
H48   H     H_    0.559184 0.243134 0.700400 0.154209
H49   H     H_    0.499995 0.159203 0.806296 0.156534
H50   H     H_    0.600955 0.228232 0.840701 0.207632
H51   H     H_    0.630793 0.116137 0.817027 0.145908
H52   H     H_    0.266385 0.927594 0.394191 0.173354
H53   H     H_    0.281343 0.825704 0.429210 0.085724
H54   H     H_    0.312466 0.869463 0.258516 0.192259
H55   H     H_    0.343500 0.765957 0.289201 0.165719
H56   H     H_    0.188134 0.637294 0.438570 0.114891
H57   H     H_    0.161765 0.752148 0.327741 0.154946
H58   H     H_    0.168607 0.775624 0.226823 0.158502
H59   H     H_    0.127937 0.858621 0.303234 0.143056
H60   H     H_    0.586280 0.391145 0.736362 0.117280
H61   H     H_    0.576484 0.606463 0.263317 0.143998
H62   H     H_    0.467619 0.349104 0.097096 0.138415
N1    N     N_2   0.533604 0.464587 0.013877 -0.193170
N2    N     N_2   0.531355 0.534020 0.985742 -0.192394
N3    N     N_R   0.512580 0.711160 0.509520 -0.285865
N4    N     N_R   0.487420 0.288840 0.490480 -0.286737
N5    N     N_2   0.527172 0.979985 0.522745 -0.160856
N6    N     N_2   0.465164 0.020753 0.482845 -0.143215
O1    O     O_R   0.495300 0.420890 0.382510 -0.491632
O2    O     O_3   0.334063 0.117708 0.396380 -0.542474
O3    O     O_3   0.984408 0.666134 0.423358 -0.588366
O4    O     O_3   0.015945 0.336374 0.581221 -0.586450
O5    O     O_3   0.624074 0.387478 0.886209 -0.569028
O6    O     O_3   0.613639 0.609515 0.114513 -0.549043
O7    O     O_3   0.621734 0.115711 0.581118 -0.572602
O8    O     O_3   0.417659 0.882963 0.394530 -0.527974
O9    O     O_R   0.504700 0.579110 0.617490 -0.502054
O10   O     O_R   0.503790 0.563430 0.388930 -0.512365
O11   O     O_R   0.496210 0.436570 0.611070 -0.505868
O12   O     O_R   0.345440 0.440310 0.497300 -0.506050
O13   O     O_R   0.654560 0.559690 0.502700 -0.501990
O14   O     O_R   0.353930 0.582840 0.503720 -0.499896
O15   O     O_R   0.646070 0.417160 0.496280 -0.505015
O16   O     O_3   0.612008 0.889061 0.638686 -0.579224

loop_
_geom_bond_atom_site_label_1
_geom_bond_atom_site_label_2
_ccdc_geom_bond_type
Cu2   O13   S    
C31   H8    S    
C41   H31   S    
C46   H41   S    
C35   H16   S    
C51   H54   S    
C23   C45   A    
C54   H62   S    
C38   H25   S    
C27   C29   A    
C42   H35   S    
C41   C42   S    
C35   C36   S    
C18   C26   A    
C49   H49   S    
C3    H6    S    
C11   H23   S    
C31   H9    S    
C37   H21   S    
C4    H5    S    
C35   H17   S    
Cu2   N3    S    
C51   H55   S    
C12   C28   S    
C23   C29   A    
C40   H29   S    
C43   O6    S    
C19   C21   A    
C24   C26   A    
C39   H26   S    
C6    O7    S    
C36   H19   S    
C38   C39   S    
C33   O3    S    
C15   C16   S    
C50   H52   S    
C17   C20   A    
C37   O4    S    
C4    N4    A    
C31   H7    S    
C42   H33   S    
C36   H18   S    
C33   H14   S    
C15   O15   A    
C44   H40   S    
C48   H48   S    
C14   O12   A    
C3    N3    A    
C22   C25   A    
C23   O6    S    
C43   H37   S    
C32   H13   S    
C1    O10   A    
C32   H10   S    
C52   H59   S    
C19   O4    S    
C53   C55   A    
C41   H32   S    
C16   C24   A    
C47   H44   S    
C55   H2    S    
C47   O7    S    
C14   C17   S    
C10   O2    S    
C37   H22   S    
C44   C46   S    
C50   C51   S    
C49   H50   S    
C15   O13   A    
C52   H58   S    
C5    O8    S    
C46   H43   S    
C54   C56   A    
C30   C34   A    
C51   C52   S    
C4    C6    A    
C50   O8    S    
C5    C7    A    
C13   N4    A    
C27   C56   A    
C6    C8    A    
C30   H60   S    
Cu2   O10   S    
C25   C26   A    
C12   O9    A    
C43   C44   S    
Cu1   O1    S    
C37   C38   S    
C29   H61   S    
C44   H39   S    
C47   C48   S    
C43   H38   S    
Cu1   O11   S    
C56   H3    S    
C7    N5    S    
C9    C11   A    
N1    N2    D    
C33   H15   S    
C48   C49   S    
C40   O5    S    
C14   O14   A    
C34   O5    S    
C13   H34   S    
N5    N6    D    
C39   H27   S    
C49   H51   S    
C52   H57   S    
Cu2   O14   S    
C7    C9    A    
C46   H42   S    
C40   C41   S    
C47   H46   S    
C42   H36   S    
C11   N3    A    
C1    O1    A    
C3    C5    A    
C10   C13   A    
C45   C54   A    
C9    O16   S    
C16   C21   A    
C32   H11   S    
Cu2   O9    S    
C17   C22   A    
Cu1   O15   S    
C53   N2    S    
C45   N1    S    
C40   H30   S    
C31   O16   S    
C28   C30   A    
C36   H20   S    
Cu1   N4    S    
C20   H56   S    
C32   O2    S    
Cu1   Cu2   S    
C24   H1    S    
C50   H53   S    
C33   C35   S    
Cu1   O12   S    
C18   C20   A    
C19   C25   A    
C2    C55   A    
C21   H45   S    
C2    H4    S    
C34   C53   A    
C8    C10   A    
C1    C27   S    
C12   O11   A    
C18   O3    S    
C2    C28   A    
C39   H28   S    
C48   H47   S    
C22   H12   S    
C38   H24   S    
C8    N6    S    
