data_mof_unit_54483.cif
_audit_creation_date              2013-03-05T15:55:05-0500
_audit_creation_method            fapswitch 2.2
_symmetry_space_group_name_H-M    P1
_symmetry_Int_Tables_number       1
_space_group_crystal_system       triclinic
_cell_length_a                    14.789331
_cell_length_b                    14.884928
_cell_length_c                    14.86448
_cell_angle_alpha                 109.48868
_cell_angle_beta                  109.85921
_cell_angle_gamma                 109.085569
_cell_volume                      2518.26884101

loop_
_atom_site_label
_atom_site_type_symbol
_atom_site_description
_atom_site_fract_x
_atom_site_fract_y
_atom_site_fract_z
_atom_type_partial_charge
C1    C     C_R   0.185262 0.278748 0.253913 -0.134310
H1    H     H_    0.123752 0.302701 0.251436 0.111689
N1    N     N_R   0.291070 0.347930 0.293870 -0.039440
C2    C     C_R   0.525236 0.432623 0.746818 -0.143289
H2    H     H_    0.552401 0.374372 0.749672 0.112585
N2    N     N_R   0.554050 0.497220 0.706150 -0.040695
C3    C     C_R   0.502076 0.199413 0.407624 -0.171111
H3    H     H_    0.480333 0.150082 0.323509 0.094856
N3    N     N_R   0.497240 0.291100 0.443210 -0.040867
C4    C     C_R   0.290853 0.597711 0.589385 -0.138328
H4    H     H_    0.324472 0.658723 0.673733 0.084085
N4    N     N_R   0.347890 0.554050 0.556810 -0.038528
C5    C     C_R   0.594603 0.289306 0.590720 -0.146743
H5    H     H_    0.655966 0.320299 0.674783 0.093711
N5    N     N_R   0.554050 0.347900 0.556830 -0.036681
C6    C     C_R   0.199577 0.504605 0.406895 -0.151817
H6    H     H_    0.149132 0.476769 0.321285 0.121659
N6    N     N_R   0.291070 0.497250 0.443190 -0.040038
C7    C     C_R   0.435386 0.527569 0.751092 -0.126278
H7    H     H_    0.381997 0.559947 0.761945 0.093934
N7    N     N_R   0.497240 0.554030 0.706140 -0.042685
C8    C     C_R   0.275866 0.184754 0.248958 -0.138037
H8    H     H_    0.296842 0.120377 0.237159 0.092959
N8    N     N_R   0.347890 0.291110 0.293870 -0.042722
C9    C     C_R   0.172387 0.174948 0.224229 0.066794
C10   C     C_R   0.450849 0.449960 0.776726 0.072345
C11   C     C_R   0.562341 0.195187 0.498051 0.118994
C12   C     C_R   0.197543 0.570342 0.496578 0.073264
C13   C     C_R   0.477185 0.720511 0.407176 -0.142144
H9    H     H_    0.451313 0.696217 0.321931 0.119382
N9    N     N_R   0.445950 0.652100 0.443170 -0.044064
C14   C     C_R   0.815256 0.569120 0.593104 -0.225376
H10   H     H_    0.877487 0.621719 0.679021 0.154813
N10   N     N_R   0.708930 0.502750 0.556810 -0.065473
C15   C     C_R   0.491390 0.400878 0.194110 -0.076909
H11   H     H_    0.504819 0.332925 0.163124 0.114376
N11   N     N_R   0.502760 0.445970 0.293860 -0.050027
C16   C     C_R   0.707091 0.799172 0.803867 -0.107479
H12   H     H_    0.669870 0.845825 0.831301 0.089495
N12   N     N_R   0.652110 0.708890 0.706130 -0.037461
C17   C     C_R   0.801235 0.710074 0.805608 -0.112777
H13   H     H_    0.853730 0.678303 0.835223 0.086503
N13   N     N_R   0.708930 0.652070 0.706130 -0.035456
C18   C     C_R   0.403067 0.495063 0.194522 -0.142618
H14   H     H_    0.341677 0.518449 0.166051 0.102042
N14   N     N_R   0.445950 0.502780 0.293850 -0.042127
C19   C     C_R   0.564233 0.815357 0.591358 -0.082460
H15   H     H_    0.614486 0.880062 0.676674 0.128861
N15   N     N_R   0.502760 0.708900 0.556790 -0.053771
C20   C     C_R   0.725155 0.473436 0.409690 0.556767
N16   N     N_R   0.652110 0.445950 0.443190 -0.104095
Ni1   Ni    Ni4+2 0.369690 0.500010 0.369700 0.217832
Ni2   Ni    Ni4+2 0.630310 0.499990 0.630300 0.205500
Ni3   Ni    Ni4+2 0.500000 0.369720 0.369720 0.201389
Ni4   Ni    Ni4+2 0.500000 0.630280 0.630280 0.210653
C21   C     C_R   0.551230 0.824512 0.497960 0.118124
C22   C     C_R   0.828227 0.557538 0.502075 -0.076904
C23   C     C_R   0.430950 0.431350 0.130082 0.044543
C24   C     C_R   0.801828 0.803099 0.868899 0.064362
H16   H     H_    0.981635 0.434142 0.995873 0.151147
C25   C     C_R   0.071185 0.574172 0.162102 0.609358
C26   C     C_R   0.083476 0.609008 0.267688 -0.282814
H17   H     H_    0.146825 0.691753 0.333984 0.143250
C27   C     C_R   0.013073 0.538318 0.287422 0.050190
C28   C     C_R   0.930407 0.431610 0.200668 -0.179459
H18   H     H_    0.874884 0.376369 0.214177 0.136801
C29   C     C_R   0.920347 0.394917 0.096486 -0.157706
H19   H     H_    0.857850 0.311878 0.030508 0.170887
C30   C     C_R   0.990701 0.465025 0.077152 -0.271924
C31   C     C_R   0.931930 0.579535 0.403409 -0.201673
H20   H     H_    0.858665 0.551438 0.328250 0.186851
C32   C     C_R   0.933015 0.611012 0.503584 0.058407
C33   C     C_R   0.036867 0.677737 0.602193 0.044240
C34   C     C_R   0.127939 0.672537 0.597276 -0.244968
H21   H     H_    0.206283 0.716280 0.672939 0.119471
C35   C     C_R   0.117234 0.609543 0.495719 0.058834
C36   C     C_R   0.022912 0.576935 0.397455 0.037797
C37   C     C_R   0.001170 0.823127 0.701876 -0.133692
H22   H     H_    0.944920 0.809674 0.623233 0.136563
C38   C     C_R   0.021319 0.904859 0.799077 -0.076798
H23   H     H_    0.980227 0.952853 0.795013 0.169273
C39   C     C_R   0.095345 0.925549 0.901558 -0.109878
H24   H     H_    0.112059 0.990052 0.976555 0.128553
C40   C     C_R   0.148057 0.863389 0.907194 -0.126124
H25   H     H_    0.204651 0.878919 0.986795 0.106532
C41   C     C_R   0.128318 0.781567 0.810212 -0.173136
H26   H     H_    0.169894 0.734244 0.816624 0.119717
C42   C     C_R   0.054437 0.760344 0.706223 0.104586
C43   C     C_R   0.446641 0.343350 0.874784 0.168499
C44   C     C_R   0.404480 0.400754 0.831984 0.033445
C45   C     C_R   0.331570 0.426747 0.861432 -0.194494
H27   H     H_    0.289924 0.463524 0.824613 0.128367
C46   C     C_R   0.326724 0.422693 0.952565 -0.179779
H28   H     H_    0.281919 0.456888 0.982752 0.124919
C47   C     C_R   0.394003 0.391601 0.012981 0.034878
C48   C     C_R   0.440886 0.338320 0.963773 0.140891
C49   C     C_3   0.552126 0.346607 0.012354 -0.484635
C50   C     C_3   0.558925 0.352887 0.915678 -0.528272
H29   H     H_    0.615521 0.423793 0.092205 0.222840
H30   H     H_    0.546396 0.270046 0.011770 0.184990
H31   H     H_    0.626017 0.433996 0.941568 0.202633
H32   H     H_    0.557938 0.280320 0.860035 0.197934
C51   C     C_R   0.537189 0.920970 0.392019 0.105455
C52   C     C_R   0.594622 0.924194 0.491088 -0.120084
C53   C     C_R   0.677406 0.028566 0.585635 0.353956
C54   C     C_R   0.674493 0.122618 0.586306 -0.331676
H33   H     H_    0.728666 0.201458 0.661540 0.177300
C55   C     C_R   0.595072 0.112131 0.492240 -0.007586
C56   C     C_R   0.538390 0.013782 0.392689 0.157175
C57   C     C_3   0.420304 0.951892 0.301771 -0.527415
C58   C     C_3   0.417866 0.849897 0.301347 -0.421215
H34   H     H_    0.364951 0.973224 0.328619 0.202950
H35   H     H_    0.412315 0.952257 0.224780 0.180940
H36   H     H_    0.361087 0.813459 0.328377 0.217696
H37   H     H_    0.406971 0.791231 0.223411 0.189346
C59   C     C_R   0.966687 0.073157 0.124793 0.160936
C60   C     C_R   0.067230 0.073994 0.169578 0.036797
C61   C     C_R   0.063544 0.972092 0.141439 -0.216174
H38   H     H_    0.137290 0.967550 0.179778 0.127476
C62   C     C_R   0.968747 0.876383 0.048900 -0.193261
H39   H     H_    0.972988 0.801781 0.019348 0.117838
C63   C     C_R   0.878098 0.883316 0.986248 0.036149
C64   C     C_R   0.873137 0.978734 0.034474 0.129384
C65   C     C_3   0.834256 0.041048 0.985262 -0.472314
C66   C     C_3   0.936547 0.144229 0.083499 -0.510053
H40   H     H_    0.834406 0.024828 0.906682 0.249243
H41   H     H_    0.756687 0.035414 0.983255 0.182934
H42   H     H_    0.993755 0.185912 0.059508 0.216237
H43   H     H_    0.917772 0.198031 0.137807 0.192147
O1    O     O_3   0.706405 0.413922 0.304897 -0.703708
C67   C     C_3   0.666877 0.301708 0.273614 0.128717
H44   H     H_    0.642343 0.256565 0.185339 0.131009
H45   H     H_    0.590885 0.266234 0.278267 0.089473
C68   C     C_3   0.756414 0.282946 0.341267 -0.300678
H46   H     H_    0.834132 0.325459 0.341946 0.206316
H47   H     H_    0.774001 0.317311 0.427958 0.196822
C69   C     C_3   0.719171 0.160879 0.293226 -0.996262
H48   H     H_    0.640507 0.116507 0.290132 0.263746
H49   H     H_    0.783496 0.149634 0.345980 0.277244
H50   H     H_    0.706820 0.125362 0.208535 0.260341
O2    O     O_3   0.143214 0.646897 0.146893 -0.685563
C70   C     C_3   0.085742 0.651252 0.051618 0.183420
H51   H     H_    0.117061 0.739083 0.075122 0.109894
H52   H     H_    0.994676 0.615484 0.019455 0.086980
C71   C     C_3   0.109992 0.597886 0.961509 -0.290286
H53   H     H_    0.190362 0.658316 0.978094 0.182763
H54   H     H_    0.117583 0.526329 0.962455 0.206952
C72   C     C_3   0.018577 0.559214 0.846966 -1.025832
H55   H     H_    0.940464 0.489963 0.824175 0.269133
H56   H     H_    0.043200 0.530888 0.784801 0.274268
H57   H     H_    0.003573 0.627205 0.845872 0.264628
N17   N     N_R   0.759793 0.039660 0.681292 0.223550
O3    O     O_R   0.808634 0.126188 0.777837 -0.450403
O4    O     O_R   0.797146 0.971048 0.669810 -0.444011

loop_
_geom_bond_atom_site_label_1
_geom_bond_atom_site_label_2
_geom_bond_distance
_ccdc_geom_bond_type
C6    C12   1.382618 A    
C11   C55   1.455581 S    
C46   H28   1.081522 S    
C59   C64   1.378155 A    
C4    C12   1.391895 A    
C17   H13   1.080275 S    
C47   C48   1.400666 A    
C72   H57   1.108664 S    
N9    Ni1   1.852967 S    
C67   C68   1.538583 S    
C49   H30   1.111609 S    
C68   C69   1.525518 S    
C49   C50   1.505193 S    
N6    Ni1   1.846250 S    
C3    H3    1.079688 S    
C19   N15   1.341179 A    
C55   C56   1.394548 A    
C69   H49   1.110327 S    
N10   N16   1.375399 A    
C26   H17   1.083560 S    
C34   C35   1.406841 A    
C15   C23   1.373217 A    
N5    Ni2   1.852967 S    
C15   N11   1.330428 A    
C72   H56   1.110553 S    
C16   H12   1.079387 S    
C41   C42   1.408531 A    
C54   H33   1.081859 S    
N8    Ni3   1.837427 S    
N14   Ni1   1.846472 S    
C3    C11   1.372662 A    
C59   C60   1.401494 A    
C51   C58   1.503886 S    
C1    H1    1.074316 S    
C33   C34   1.398835 A    
C7    C10   1.392570 A    
C57   C58   1.504622 S    
C26   C27   1.405094 A    
C20   O1    1.383185 S    
C71   H54   1.111037 S    
C61   H38   1.081894 S    
O2    C70   1.418364 S    
N13   Ni2   1.852716 S    
N12   N13   1.373409 A    
C7    H7    1.079463 S    
C18   C23   1.380203 A    
C6    H6    1.071742 S    
C28   C29   1.394485 A    
C8    C9    1.390828 A    
C66   H42   1.112330 S    
C31   H20   1.080058 S    
C24   C63   1.460625 S    
C46   C47   1.407869 A    
C5    H5    1.081158 S    
C31   C36   1.390162 A    
C1    C9    1.383392 A    
C17   N13   1.342172 A    
C70   C71   1.535065 S    
N1    N8    1.373410 A    
C14   C22   1.392744 A    
N9    N15   1.375400 A    
C52   C53   1.420527 A    
C49   H29   1.112397 S    
C18   N14   1.341027 A    
C71   H53   1.111962 S    
C61   C62   1.401169 A    
C35   C36   1.419439 A    
C69   H50   1.110942 S    
C65   C66   1.504317 S    
C31   C32   1.396565 A    
C34   H21   1.078894 S    
C29   H19   1.082619 S    
C64   C65   1.497276 S    
C72   H55   1.110957 S    
C17   C24   1.385538 A    
C2    N2    1.329074 A    
C45   H27   1.081635 S    
N7    Ni4   1.848321 S    
C37   H22   1.082981 S    
C32   C33   1.412587 A    
C68   H47   1.111442 S    
N15   Ni4   1.848381 S    
N2    N7    1.373168 A    
C1    N1    1.329852 A    
C15   H11   1.075794 S    
C14   N10   1.338589 A    
C23   C47   1.460705 S    
C33   C42   1.489974 S    
C13   H9    1.075701 S    
C45   C46   1.400548 A    
C19   H15   1.079253 S    
N12   Ni4   1.837426 S    
C48   C49   1.497994 S    
C20   N16   1.339685 A    
C40   H25   1.082648 S    
C57   H35   1.111937 S    
C21   C52   1.465188 S    
C4    N4    1.339558 A    
C65   H41   1.111826 S    
N11   Ni3   1.848320 S    
C25   O2    1.389424 S    
N17   O4    1.301557 A    
C39   H24   1.081237 S    
C39   C40   1.396387 A    
C59   C66   1.500116 S    
C5    N5    1.343180 A    
C8    N8    1.339935 A    
N2    Ni2   1.846472 S    
C67   H44   1.110726 S    
C12   C35   1.482975 S    
C71   C72   1.526839 S    
C62   H39   1.081099 S    
C62   C63   1.407689 A    
C65   H40   1.112004 S    
C53   C54   1.411463 A    
C37   C42   1.408984 A    
C3    N3    1.324877 A    
C53   N17   1.438169 S    
C7    N7    1.339297 A    
C41   H26   1.082395 S    
C20   C22   1.399777 A    
C18   H14   1.080971 S    
C40   C41   1.398839 A    
C38   H23   1.082176 S    
C67   H45   1.111651 S    
C9    C60   1.461330 S    
C2    C10   1.384170 A    
N1    Ni1   1.852716 S    
C63   C64   1.400359 A    
C68   H46   1.110789 S    
C13   C21   1.382094 A    
C10   C44   1.461863 S    
C50   H31   1.112369 S    
C69   H48   1.110273 S    
C43   C50   1.499899 S    
C51   C56   1.372447 A    
N16   Ni3   1.837278 S    
C25   C30   1.412838 A    
C14   H10   1.074276 S    
C43   C48   1.378763 A    
O1    C67   1.416454 S    
C43   C44   1.401873 A    
C13   N9    1.326804 A    
C50   H32   1.111942 S    
C60   C61   1.409166 A    
C27   C28   1.404539 A    
C16   N12   1.325840 A    
C44   C45   1.408729 A    
C54   C55   1.406317 A    
H16   C30   1.080758 S    
C38   C39   1.395471 A    
C58   H36   1.112445 S    
C37   C38   1.397844 A    
C22   C32   1.481061 S    
N3    N5    1.375399 A    
C25   C26   1.402393 A    
C57   H34   1.112494 S    
N4    Ni4   1.837278 S    
C4    H4    1.079529 S    
C16   C24   1.374581 A    
C66   H43   1.111976 S    
C2    H2    1.075066 S    
N17   O3    1.301586 A    
N10   Ni2   1.846252 S    
C6    N6    1.332021 A    
C28   H18   1.082300 S    
N4    N6    1.375399 A    
C51   C52   1.403102 A    
C70   H51   1.111340 S    
C27   C36   1.477504 S    
C8    H8    1.079093 S    
C5    C11   1.384358 A    
C58   H37   1.112095 S    
N3    Ni3   1.848382 S    
C29   C30   1.395498 A    
N11   N14   1.373165 A    
C56   C57   1.496211 S    
C70   H52   1.117881 S    
C19   C21   1.394609 A    
