data_mof_unit_35053.cif
_audit_creation_date              2013-03-05T16:07:57-0500
_audit_creation_method            fapswitch 2.2
_symmetry_space_group_name_H-M    P1
_symmetry_Int_Tables_number       1
_space_group_crystal_system       triclinic
_cell_length_a                    6.976453
_cell_length_b                    14.599291
_cell_length_c                    15.97199
_cell_angle_alpha                 90.151338
_cell_angle_beta                  90.456778
_cell_angle_gamma                 90.085884
_cell_volume                      1626.70817585

loop_
_atom_site_label
_atom_site_type_symbol
_atom_site_description
_atom_site_fract_x
_atom_site_fract_y
_atom_site_fract_z
_atom_type_partial_charge
O1    O     O_R   0.494380 0.415640 0.412830 -0.600763
O2    O     O_R   0.823960 0.405540 0.586560 -0.599388
O3    O     O_R   0.994270 0.584360 0.587170 -0.540242
C1    C     C_R   0.655792 0.384136 0.615580 1.030480
O4    O     O_R   0.824090 0.404620 0.413450 -0.607998
O5    O     O_R   0.994400 0.583430 0.412820 -0.597177
C2    C     C_R   0.654838 0.382408 0.384823 0.945228
O6    O     O_R   0.494250 0.416570 0.587180 -0.591283
O7    O     O_3   0.660800 0.558670 0.500000 -0.230352
V1    V     V_3+5 0.935650 0.489120 0.500000 1.200346
O8    O     O_R   0.324110 0.594460 0.413440 -0.600015
C3    C     C_R   0.154735 0.616328 0.384579 0.937201
O9    O     O_R   0.323980 0.595380 0.586550 -0.553931
C4    C     C_R   0.155638 0.613805 0.618382 0.911058
V2    V     V_3+5 0.435660 0.510880 0.500000 1.214853
O10   O     O_3   0.160640 0.441330 0.500000 -0.292460
C5    C     C_3   0.965965 0.664256 0.747753 0.309703
H1    H     H_    0.990823 0.596657 0.778393 0.028380
C6    C     C_3   0.951578 0.736909 0.818710 -0.450517
H2    H     H_    0.964051 0.701966 0.880393 0.116460
H3    H     H_    0.807608 0.768817 0.818546 0.216851
H4    H     H_    0.025127 0.786722 0.602329 0.224579
C7    C     C_3   0.135011 0.781719 0.652641 -0.419080
C8    C     C_3   0.317963 0.680265 0.748180 -0.375303
C9    C     C_3   0.141621 0.683449 0.689599 -0.123077
H5    H     H_    0.442593 0.695500 0.710429 0.278955
H6    H     H_    0.336133 0.611077 0.776201 0.167415
C10   C     C_3   0.115131 0.809126 0.811304 -0.104539
C11   C     C_3   0.105580 0.855202 0.722251 0.289417
C12   C     C_3   0.306534 0.754375 0.817392 -0.453684
H7    H     H_    0.319412 0.721129 0.879818 0.164602
H8    H     H_    0.431017 0.801636 0.811153 0.215714
H9    H     H_    0.272630 0.796139 0.620305 0.175479
H10   H     H_    0.227577 0.904245 0.718822 0.115202
C13   C     C_R   0.273211 0.815441 0.240379 0.245194
C14   C     C_R   0.118840 0.815916 0.183720 -0.232543
C15   C     C_R   0.966461 0.755030 0.199442 -0.155405
H11   H     H_    0.843594 0.753165 0.157875 0.132172
C16   C     C_R   0.977066 0.691356 0.265491 -0.145786
C17   C     C_R   0.140665 0.686399 0.317677 -0.236720
C18   C     C_R   0.284174 0.752143 0.305466 0.200327
C19   C     C_3   0.494238 0.739464 0.294119 -0.479133
C20   C     C_3   0.482385 0.808817 0.223506 -0.482060
H12   H     H_    0.529445 0.669158 0.272336 0.178030
H13   H     H_    0.578604 0.764264 0.349011 0.228530
H14   H     H_    0.511460 0.778962 0.160794 0.178950
H15   H     H_    0.559173 0.873877 0.237733 0.229179
C21   C     C_R   0.494890 0.253145 0.687686 0.164426
C22   C     C_R   0.648510 0.314236 0.682267 -0.228082
C23   C     C_R   0.798892 0.304352 0.740969 -0.145896
H16   H     H_    0.921134 0.349851 0.739069 0.122271
C24   C     C_R   0.786237 0.239850 0.806371 -0.070103
C25   C     C_R   0.623996 0.182781 0.814254 -0.260737
C26   C     C_R   0.484172 0.188390 0.751345 0.151757
C27   C     C_3   0.273045 0.200163 0.758226 0.155946
C28   C     C_3   0.284971 0.271853 0.689280 -0.592451
H17   H     H_    0.253818 0.342388 0.711673 0.167779
C29   C     C_R   0.526237 0.326015 0.246230 0.153164
C30   C     C_R   0.647030 0.314570 0.315669 -0.238049
C31   C     C_R   0.772360 0.238981 0.314439 -0.254511
H18   H     H_    0.872114 0.229078 0.365970 0.174492
C32   C     C_R   0.762374 0.172072 0.250021 0.370391
C33   C     C_R   0.627681 0.181730 0.182933 -0.362530
C34   C     C_R   0.517861 0.262147 0.181635 0.116999
C35   C     C_3   0.307947 0.277066 0.168847 -0.423168
C36   C     C_3   0.317388 0.346636 0.240014 -0.467680
H19   H     H_    0.221374 0.215725 0.184125 0.246984
H20   H     H_    0.275316 0.308526 0.107071 0.168034
H21   H     H_    0.289956 0.418031 0.219141 0.170605
O11   O     O_R   0.771490 0.080820 0.910070 -0.544388
O12   O     O_R   0.441590 0.092730 0.083780 -0.584371
O13   O     O_R   0.271350 0.913900 0.084390 -0.602270
C37   C     C_R   0.611320 0.113186 0.114044 0.964505
O14   O     O_R   0.441780 0.091820 0.910670 -0.605315
O15   O     O_R   0.271540 0.912980 0.910040 -0.601113
C38   C     C_R   0.610772 0.114788 0.882787 0.985467
O16   O     O_R   0.771300 0.081740 0.084420 -0.567420
O17   O     O_3   0.604960 0.938700 0.997240 -0.295848
V3    V     V_3+5 0.330090 0.008230 0.997220 1.210661
O18   O     O_R   0.941820 0.901930 0.910640 -0.560898
C39   C     C_R   0.109283 0.879957 0.881547 0.981671
O19   O     O_R   0.941630 0.902840 0.083750 -0.596154
C40   C     C_R   0.110738 0.880932 0.112554 0.992068
V4    V     V_3+5 0.830090 0.986410 0.997190 1.237464
O20   O     O_3   0.105080 0.055990 0.997200 -0.256382
N1    N     N_R   0.785791 0.657849 0.701031 0.224580
O21   O     O_R   0.733223 0.723042 0.650409 -0.409158
O22   O     O_R   0.692021 0.580676 0.700632 -0.465288
H22   H     H_    0.861681 0.642592 0.272864 0.128787
H23   H     H_    0.899613 0.237245 0.852882 0.120412
H24   H     H_    0.228264 0.227182 0.820207 0.055319
N2    N     N_R   0.171906 0.117129 0.732305 0.259445
O23   O     O_R   0.207201 0.078790 0.660372 -0.352406
O24   O     O_R   0.062799 0.075280 0.785490 -0.383763
H25   H     H_    0.212330 0.252655 0.629560 0.245632
N3    N     N_R   0.873651 0.090230 0.259549 0.222635
O25   O     O_R   0.855659 0.041473 0.327092 -0.376698
O26   O     O_R   0.018428 0.074923 0.210763 -0.423255
H26   H     H_    0.236940 0.324902 0.296454 0.215007
N4    N     N_R   0.929019 0.907483 0.704159 0.278624
O27   O     O_R   0.791883 0.916771 0.758131 -0.383919
O28   O     O_R   0.911968 0.949138 0.632552 -0.296122

loop_
_geom_bond_atom_site_label_1
_geom_bond_atom_site_label_2
_geom_bond_distance
_ccdc_geom_bond_type
C28   H25   1.111601 S    
C27   C28   1.523903 S    
C32   N3    1.433641 S    
C18   C19   1.489857 S    
C24   H23   1.081567 S    
C13   C14   1.401202 A    
C8    H6    1.112886 S    
C1    O6    1.301794 A    
O12   V3    2.002330 S    
C25   C26   1.397461 A    
C21   C26   1.392546 A    
C15   H11   1.080282 S    
O14   C38   1.307173 A    
C7    C11   1.557936 S    
C10   C11   1.575975 S    
C6    H3    1.107788 S    
C8    H5    1.085127 S    
O13   V3    2.005106 S    
O5    C3    1.301121 A    
C12   H7    1.113132 S    
N1    O22   1.301943 A    
C36   H21   1.111575 S    
C14   C40   1.483570 S    
V2    O10   2.169431 S    
C28   H17   1.111551 S    
C31   C32   1.418087 A    
N4    O27   1.299905 A    
C27   H24   1.111957 S    
O8    V2    2.000139 S    
C29   C36   1.490836 S    
C6    H2    1.113487 S    
C35   H19   1.108237 S    
N3    O26   1.299839 A    
C23   C24   1.411454 A    
O1    V2    2.010013 S    
C13   C20   1.489324 S    
O7    V1    2.171073 S    
O18   V4    2.012650 S    
C30   C31   1.409168 A    
O1    C2    1.302717 A    
O9    C4    1.311448 A    
C19   H12   1.111364 S    
C2    C30   1.482194 S    
C5    H1    1.115913 S    
C29   C34   1.389626 A    
C5    N1    1.459436 S    
C8    C9    1.540503 S    
C16   C17   1.409976 A    
O4    C2    1.303042 A    
N1    O21   1.301725 A    
O15   C39   1.307631 A    
C33   C37   1.488926 S    
O16   V4    2.011684 S    
C7    H9    1.113870 S    
C29   C30   1.398080 A    
C11   H10   1.113174 S    
O19   C40   1.303487 A    
C31   H18   1.083714 S    
C19   H13   1.111585 S    
C36   H26   1.112362 S    
C3    C17   1.484026 S    
O2    C1    1.302785 A    
C32   C33   1.426954 A    
C35   H20   1.111517 S    
N3    O25   1.300842 A    
N2    O24   1.298434 A    
C23   H16   1.080865 S    
V4    O20   2.169448 S    
C6    C10   1.557785 S    
O3    C4    1.299679 A    
C17   C18   1.401027 A    
C27   N2    1.459074 S    
C22   C23   1.409273 A    
O6    V2    2.001110 S    
O19   V4    2.000022 S    
O14   V3    2.007640 S    
O9    V2    2.012689 S    
O11   C38   1.299236 A    
C25   C38   1.482943 S    
C19   C20   1.519475 S    
O2    V1    2.007661 S    
V3    O20   1.718613 S    
O11   V4    2.001466 S    
C24   C25   1.411070 A    
O12   C37   1.309203 A    
N4    O28   1.301447 A    
C21   C28   1.490549 S    
C26   C27   1.488067 S    
C14   C15   1.409222 A    
C11   N4    1.477035 S    
C10   C39   1.524613 S    
O17   V3    2.171057 S    
O18   C39   1.301052 A    
O5    V1    2.005034 S    
O8    C3    1.305336 A    
C1    C22   1.478152 S    
C5    C9    1.568904 S    
C34   C35   1.493389 S    
C10   C12   1.559802 S    
O7    V2    1.717710 S    
O4    V1    2.002380 S    
C15   C16   1.409488 A    
O3    V1    2.004494 S    
V1    O10   1.718665 S    
C12   H8    1.113623 S    
C20   H15   1.111847 S    
C21   C22   1.396624 A    
N2    O23   1.302090 A    
C5    C6    1.554126 S    
C7    C9    1.553415 S    
C4    C9    1.527465 S    
C13   C18   1.394468 A    
C20   H14   1.111573 S    
C8    C12   1.547378 S    
O13   C40   1.302727 A    
C33   C34   1.402973 A    
O17   V4    1.717182 S    
C35   C36   1.523307 S    
C37   O16   1.299659 A    
H4    C7    1.108789 S    
O15   V3    2.004609 S    
C16   H22   1.081174 S    
