data_mof_unit_63178.cif
_audit_creation_date              2012-10-26T20:36:50-0400
_audit_creation_method            fapswitch 2.2
_symmetry_space_group_name_H-M    P1
_symmetry_Int_Tables_number       1
_space_group_crystal_system       triclinic
_cell_length_a                    15.842646
_cell_length_b                    17.039779
_cell_length_c                    27.76386
_cell_angle_alpha                 90.471503
_cell_angle_beta                  91.778048
_cell_angle_gamma                 95.074981
_cell_volume                      7461.5681833

loop_
_atom_site_label
_atom_site_type_symbol
_atom_type_description
_atom_site_fract_x
_atom_site_fract_y
_atom_site_fract_z
_atom_type_partial_charge
C1    C     C_R   0.490694 0.348944 0.501322 0.586957
C2    C     C_R   0.552333 0.448765 0.873483 0.036338
C3    C     C_R   0.502106 0.502533 0.354493 -0.015999
C4    C     C_R   0.497360 0.494994 0.645178 -0.030933
C5    C     C_R   0.540736 0.441699 0.975405 -0.002248
C6    C     C_R   0.448782 0.550496 0.024081 -0.002242
C7    C     C_R   0.440433 0.543596 0.973052 0.020149
C8    C     C_R   0.529952 0.434259 0.025841 0.020044
C9    C     C_R   0.492302 0.493188 0.948840 -0.016151
C10   C     C_R   0.489530 0.493208 0.050404 -0.016208
C11   C     C_R   0.601249 0.402054 0.951091 -0.088931
C12   C     C_R   0.509381 0.651046 0.498632 0.589611
C13   C     C_R   0.421172 0.614816 0.049413 -0.088571
C14   C     C_R   0.607439 0.404492 0.901188 0.103168
C15   C     C_R   0.423825 0.618872 0.099566 0.103974
C16   C     C_R   0.500854 0.501592 0.407468 0.579659
C17   C     C_R   0.499137 0.497918 0.592423 0.574787
C18   C     C_R   0.557045 0.369886 0.052830 0.250613
C19   C     C_R   0.381722 0.584262 0.945085 0.250645
C20   C     C_R   0.488794 0.263761 0.507067 -0.027218
C21   C     C_R   0.511633 0.736221 0.492777 -0.013202
C22   C     C_R   0.532111 0.232757 0.546887 0.055128
C23   C     C_R   0.490303 0.495120 0.101542 -0.061476
C24   C     C_R   0.470343 0.767223 0.452273 0.062963
C25   C     C_R   0.533108 0.151108 0.551607 0.289407
C26   C     C_R   0.468768 0.848864 0.447676 0.290051
C27   C     C_R   0.496797 0.100571 0.515093 0.183325
C28   C     C_R   0.503108 0.899345 0.484752 0.184892
C29   C     C_R   0.452234 0.131729 0.475975 -0.108551
C30   C     C_R   0.546523 0.868175 0.524318 -0.106514
C31   C     C_R   0.447734 0.212663 0.472006 0.022217
C32   C     C_R   0.551331 0.787293 0.528265 0.027337
C33   C     C_R   0.752489 0.464684 0.474257 0.404093
C34   C     C_R   0.495828 0.494326 0.897822 -0.061434
C35   C     C_R   0.248093 0.542472 0.521408 0.402115
C36   C     C_R   0.842241 0.471807 0.472729 0.240379
C37   C     C_R   0.158852 0.544835 0.517173 0.240882
C38   C     C_R   0.890552 0.517794 0.508427 0.175584
C39   C     C_R   0.109712 0.486351 0.489163 0.176443
C40   C     C_R   0.527429 0.437144 0.177998 0.437050
C41   C     C_R   0.445808 0.541992 0.820901 0.435666
C42   C     C_R   0.846229 0.560713 0.541377 0.035248
C43   C     C_R   0.153283 0.432465 0.462895 0.035128
C44   C     C_R   0.757319 0.556657 0.538985 -0.000844
C45   C     C_R   0.525728 0.434720 0.127593 -0.014415
C46   C     C_R   0.242163 0.436333 0.465343 -0.003127
C47   C     C_R   0.458120 0.555934 0.177521 0.450647
C48   C     C_R   0.551379 0.450358 0.822546 0.451058
C49   C     C_R   0.565023 0.542491 0.278388 0.140877
C50   C     C_R   0.439126 0.443627 0.720031 0.142053
C51   C     C_R   0.567154 0.545493 0.329218 0.085466
C52   C     C_R   0.438603 0.442875 0.669237 0.065074
C53   C     C_R   0.435400 0.459798 0.328797 -0.128204
C54   C     C_R   0.556570 0.545071 0.671794 -0.133367
C55   C     C_R   0.432812 0.457809 0.278750 0.128389
C56   C     C_R   0.442728 0.541337 0.871205 -0.013111
C57   C     C_R   0.556854 0.546006 0.721853 0.128703
C58   C     C_R   0.497641 0.498700 0.253386 0.218511
C59   C     C_R   0.498053 0.495660 0.746131 0.217239
C60   C     C_3   0.486333 0.903392 0.374091 -0.058713
C61   C     C_3   0.518539 0.097814 0.625698 -0.054731
C62   C     C_3   0.279893 0.583471 0.599201 -0.044613
C63   C     C_3   0.713836 0.336762 0.452097 -0.051941
C64   C     C_3   0.124783 0.670797 0.511480 -0.064724
C65   C     C_3   0.883559 0.479720 0.395419 -0.056222
C66   C     C_3   0.506279 0.252940 0.019102 -0.092990
C67   C     C_R   0.557151 0.372194 0.102986 -0.063868
C68   C     C_3   0.248935 0.563954 0.973239 -0.092568
C69   C     C_R   0.385566 0.584743 0.895037 -0.063214
C70   C     C_R   0.456326 0.557432 0.126575 0.037407
Cu1   Cu    Cu3+1 0.415220 0.496180 0.497670 1.065408
Cu2   Cu    Cu3+1 0.584780 0.503820 0.502330 1.066150
H1    H     H_    0.385031 0.427241 0.347744 0.174298
H2    H     H_    0.401103 0.665397 0.030599 0.205839
H3    H     H_    0.521795 0.853578 0.361995 0.148474
H4    H     H_    0.531304 0.952833 0.387995 0.133867
H5    H     H_    0.452133 0.924955 0.342056 0.175834
H6    H     H_    0.472123 0.048850 0.612654 0.135229
H7    H     H_    0.484671 0.148388 0.638248 0.152593
H8    H     H_    0.553921 0.076059 0.657242 0.175102
H9    H     H_    0.335657 0.608195 0.621313 0.150507
H10   H     H_    0.269325 0.519720 0.607978 0.140832
H11   H     H_    0.224933 0.614793 0.610101 0.180482
H12   H     H_    0.602227 0.584452 0.653539 0.173887
H13   H     H_    0.659935 0.299980 0.434656 0.147993
H14   H     H_    0.712507 0.324551 0.491481 0.133935
H15   H     H_    0.772809 0.317785 0.436910 0.177284
H16   H     H_    0.092368 0.717243 0.529800 0.175586
H17   H     H_    0.191466 0.694656 0.506094 0.153884
H18   H     H_    0.091260 0.658083 0.476048 0.130876
H19   H     H_    0.917723 0.449840 0.367297 0.178121
H20   H     H_    0.918589 0.538423 0.402666 0.131018
H21   H     H_    0.818581 0.486847 0.380717 0.167005
H22   H     H_    0.464948 0.281330 0.992529 0.128863
H23   H     H_    0.422038 0.093502 0.447950 0.191555
H24   H     H_    0.470315 0.235783 0.051774 0.135712
H25   H     H_    0.524966 0.198192 0.002130 0.174076
H26   H     H_    0.267409 0.518423 0.999090 0.128655
H27   H     H_    0.224110 0.535728 0.938723 0.137139
H28   H     H_    0.196670 0.593564 0.989228 0.174285
H29   H     H_    0.575627 0.906328 0.552695 0.190929
H30   H     H_    0.724138 0.590902 0.563997 0.181208
H31   H     H_    0.274860 0.395643 0.444238 0.183815
H32   H     H_    0.580563 0.323328 0.122513 0.192529
H33   H     H_    0.341405 0.617979 0.874880 0.192840
H34   H     H_    0.647948 0.371559 0.970745 0.205151
I1    I     I_    0.385243 0.253696 0.409514 -0.309777
I2    I     I_    0.662132 0.603383 0.237651 -0.198739
I3    I     I_    0.705989 0.340212 0.874231 -0.163680
I4    I     I_    0.379305 0.723864 0.128097 -0.173497
I5    I     I_    0.409668 0.693851 0.396385 -0.230586
I6    I     I_    0.597929 0.305900 0.601301 -0.223360
I7    I     I_    0.613100 0.746273 0.590976 -0.312469
I8    I     I_    0.911223 0.633559 0.595214 -0.207742
I9    I     I_    0.087285 0.344633 0.418229 -0.213284
I10   I     I_    0.329233 0.392414 0.242749 -0.213289
I11   I     I_    0.646928 0.625043 0.759524 -0.187238
I12   I     I_    0.354446 0.358442 0.629692 -0.260659
I13   I     I_    0.664091 0.620680 0.366454 -0.262901
I14   I     I_    0.353074 0.366189 0.758966 -0.206301
N1    N     N_R   0.494183 0.497102 0.201687 -0.382313
N2    N     N_R   0.498884 0.496483 0.797816 -0.382545
N3    N     N_2   0.507848 0.019136 0.518932 -0.212559
N4    N     N_2   0.491728 0.980742 0.480901 -0.213563
N5    N     N_R   0.712130 0.509560 0.505840 -0.258912
N6    N     N_R   0.287870 0.490440 0.494160 -0.258530
N7    N     N_2   0.981769 0.524125 0.512383 -0.133581
N8    N     N_2   0.018496 0.480000 0.485247 -0.134165
O1    O     O_R   0.420530 0.382500 0.497820 -0.478929
O2    O     O_2   0.395618 0.587175 0.795038 -0.467078
O3    O     O_2   0.600968 0.405804 0.797413 -0.411485
O4    O     O_2   0.424131 0.611903 0.203199 -0.414702
O5    O     O_3   0.426395 0.879030 0.408685 -0.520451
O6    O     O_3   0.576930 0.120870 0.590027 -0.519356
O7    O     O_3   0.296911 0.596829 0.550140 -0.528889
O8    O     O_3   0.704425 0.416551 0.441514 -0.521579
O9    O     O_3   0.120997 0.603502 0.540833 -0.540627
O10   O     O_3   0.881329 0.432720 0.437013 -0.541566
O11   O     O_3   0.580368 0.302102 0.031174 -0.574825
O12   O     O_R   0.579470 0.617500 0.502180 -0.485976
O13   O     O_3   0.316991 0.621087 0.965474 -0.575248
O14   O     O_R   0.563720 0.388950 0.501760 -0.476509
O15   O     O_R   0.436280 0.611050 0.498240 -0.439063
O16   O     O_R   0.428410 0.496790 0.428290 -0.505313
O17   O     O_R   0.571590 0.503210 0.571710 -0.497105
O18   O     O_R   0.571600 0.503240 0.432230 -0.429949
O19   O     O_R   0.428400 0.496760 0.567770 -0.465958
O20   O     O_2   0.562093 0.380110 0.203331 -0.459606

loop_
_geom_bond_atom_site_label_1
_geom_bond_atom_site_label_2
_ccdc_geom_bond_type
C62   O7    S    
C14   I3    S    
Cu1   O19   S    
C62   H11   S    
C34   C56   A    
C23   C45   A    
C65   H20   S    
C15   I4    S    
C64   H18   S    
C54   H12   S    
C38   N7    S    
N3    N4    D    
C47   C70   A    
Cu2   O14   S    
C40   N1    A    
C4    C52   A    
C50   I14   S    
C50   C59   A    
C66   H25   S    
C66   H24   S    
C16   O16   A    
C24   C26   A    
C38   C42   A    
C1    O1    A    
C48   N2    A    
C41   O2    S    
C11   C14   A    
C57   C59   A    
C27   C29   A    
C55   I10   S    
C61   H8    S    
Cu2   O17   S    
C33   C36   A    
C16   O18   A    
C7    C19   A    
C1    O14   A    
C43   I9    S    
C42   I8    S    
C66   O11   S    
C63   H15   S    
C49   C51   A    
C22   C25   A    
C45   C67   A    
C51   I13   S    
C12   O12   A    
Cu1   N6    S    
C32   I7    S    
C66   H22   S    
C4    C54   A    
C2    C34   A    
C59   N2    S    
C65   H21   S    
C62   H10   S    
C19   O13   S    
C37   O9    S    
C63   H13   S    
C23   C70   A    
C24   I5    S    
C42   C44   A    
C64   H17   S    
C61   O6    S    
C49   I2    S    
C64   O9    S    
C53   C55   A    
C40   C45   A    
C60   H5    S    
C21   C32   A    
C44   N5    A    
C40   O20   S    
C69   H33   S    
C35   O7    S    
C29   H23   S    
C44   H30   S    
C39   C43   A    
C2    C48   A    
C18   C67   A    
C12   C21   S    
C60   H4    S    
C8    C18   A    
C49   C58   A    
C41   N2    A    
C35   N6    A    
C17   O17   A    
C68   H28   S    
C41   C56   A    
C5    C9    A    
Cu1   O1    S    
C50   C52   A    
C61   H6    S    
C11   H34   S    
C33   N5    A    
C68   O13   S    
C48   O3    S    
C25   O6    S    
C65   O10   S    
C8    C10   A    
C62   H9    S    
C20   C22   A    
C22   I6    S    
C13   C15   A    
C63   H14   S    
C9    C34   A    
C21   C24   A    
C19   C69   A    
C4    C17   S    
N7    N8    D    
C35   C37   A    
C57   I11   S    
C65   H19   S    
C15   C70   A    
C58   N1    S    
C27   N3    S    
C39   N8    S    
C17   O19   A    
C31   I1    S    
C46   N6    A    
C53   H1    S    
C67   H32   S    
C1    C20   S    
C6    C10   A    
C5    C8    A    
C28   N4    S    
C5    C11   A    
C6    C7    A    
C10   C23   A    
C25   C27   A    
C46   H31   S    
Cu2   N5    S    
C60   H3    S    
C26   C28   A    
C12   O15   A    
C47   O4    S    
C63   O8    S    
C28   C30   A    
C68   H27   S    
Cu1   Cu2   S    
C29   C31   A    
C26   O5    S    
C54   C57   A    
C6    C13   A    
C30   C32   A    
C3    C53   A    
C33   O8    S    
Cu1   O15   S    
C61   H7    S    
Cu2   O18   S    
C30   H29   S    
C36   C38   A    
C3    C51   A    
C18   O11   S    
C2    C14   A    
C43   C46   A    
C68   H26   S    
C47   N1    A    
C7    C9    A    
Cu2   O12   S    
C13   H2    S    
C37   C39   A    
C56   C69   A    
C55   C58   A    
C36   O10   S    
C60   O5    S    
C64   H16   S    
C3    C16   S    
Cu1   O16   S    
C20   C31   A    
C52   I12   S    
