data_mof_unit_21781.cif
_audit_creation_date              2012-12-10T17:42:49-0500
_audit_creation_method            fapswitch 2.2
_symmetry_space_group_name_H-M    P1
_symmetry_Int_Tables_number       1
_space_group_crystal_system       triclinic
_cell_length_a                    15.030443
_cell_length_b                    13.800683
_cell_length_c                    15.861759
_cell_angle_alpha                 89.22551
_cell_angle_beta                  88.04334
_cell_angle_gamma                 89.45116
_cell_volume                      3287.85503191

loop_
_atom_site_label
_atom_site_type_symbol
_atom_type_description
_atom_site_fract_x
_atom_site_fract_y
_atom_site_fract_z
_atom_type_partial_charge
C1    C     C_R   0.329185 0.500354 0.499669 0.810540
C2    C     C_3   0.594737 0.485727 0.948933 -0.409409
C3    C     C_3   0.595164 0.491885 0.046428 -0.458851
C4    C     C_1   0.499709 0.499075 0.825058 -0.090546
C5    C     C_1   0.501719 0.502666 0.175453 -0.114998
C6    C     C_1   0.502214 0.502180 0.250899 -0.174570
C7    C     C_R   0.816195 0.517368 0.426235 -0.103737
C8    C     C_R   0.767707 0.498074 0.501995 -0.138821
C9    C     C_R   0.811029 0.477578 0.578293 0.080436
C10   C     C_R   0.905265 0.473046 0.576679 0.085481
C11   C     C_R   0.953898 0.497387 0.501165 0.006168
C12   C     C_R   0.501132 0.500623 0.340345 0.841019
C13   C     C_R   0.909533 0.520753 0.426166 0.063971
C14   C     C_R   0.952668 0.444750 0.648540 -0.213357
C15   C     C_R   0.045130 0.443678 0.646908 -0.202824
C16   C     C_R   0.093020 0.471021 0.573820 0.120464
C17   C     C_R   0.047754 0.498049 0.500512 0.080785
C18   C     C_R   0.096687 0.525591 0.426515 0.120945
C19   C     C_R   0.052311 0.549695 0.353184 -0.220288
C20   C     C_R   0.959903 0.546467 0.352633 -0.188201
C21   C     C_R   0.185773 0.471376 0.572738 -0.241186
C22   C     C_R   0.233262 0.500775 0.499957 -0.045423
C23   C     C_R   0.670881 0.499524 0.500572 0.816144
C24   C     C_R   0.189467 0.528073 0.427082 -0.251238
C25   C     C_R   0.439004 0.791750 0.551187 0.000315
C26   C     C_R   0.436353 0.207531 0.547664 -0.003396
C27   C     C_R   0.559138 0.796974 0.449578 0.199772
C28   C     C_R   0.565890 0.203728 0.456662 0.232684
C29   C     C_R   0.570683 0.896754 0.466644 0.035097
C30   C     C_R   0.573011 0.101579 0.469132 0.013017
C31   C     C_R   0.503113 0.947749 0.511362 0.051207
C32   C     C_R   0.503557 0.051221 0.511685 0.051907
C33   C     C_R   0.435162 0.895345 0.553747 -0.076802
C34   C     C_R   0.434398 0.103906 0.552301 -0.076994
C35   C     C_R   0.647505 0.947154 0.441236 -0.220777
C36   C     C_R   0.648052 0.047756 0.440146 -0.229164
C37   C     C_R   0.366341 0.051429 0.596853 -0.055026
C38   C     C_R   0.367114 0.947890 0.598107 -0.056412
C39   C     C_R   0.499451 0.499474 0.659799 0.811551
C40   C     C_3   0.460479 0.601074 0.047507 -0.032269
C41   C     C_3   0.446843 0.411535 0.051939 -0.034107
C42   C     C_3   0.437778 0.419798 0.954560 -0.410238
C43   C     C_3   0.462848 0.599627 0.949027 -0.371942
C44   C     C_1   0.499728 0.498579 0.749479 -0.179490
C45   C     C_3   0.498224 0.502134 0.083384 0.269548
C46   C     C_3   0.499017 0.500769 0.917266 0.276535
Cu1   Cu    Cu3+1 0.499990 0.597420 0.500010 0.924671
Cu2   Cu    Cu3+1 0.499990 0.402580 0.500010 0.929715
H1    H     H_    0.396960 0.613780 0.922040 0.163004
H2    H     H_    0.367969 0.435735 0.937538 0.155859
H3    H     H_    0.079273 0.421892 0.703308 0.147514
H4    H     H_    0.221233 0.449919 0.628558 0.130713
H5    H     H_    0.227782 0.549445 0.370758 0.125497
H6    H     H_    0.089139 0.570515 0.295942 0.143712
H7    H     H_    0.928333 0.565361 0.294260 0.159116
H8    H     H_    0.391257 0.749014 0.587712 0.152647
H9    H     H_    0.386086 0.249869 0.581252 0.151543
H10   H     H_    0.707705 0.909179 0.421987 0.150133
H11   H     H_    0.708051 0.081714 0.415648 0.151864
H12   H     H_    0.490914 0.347139 0.061892 0.151413
H13   H     H_    0.510516 0.656222 0.064201 0.125315
H14   H     H_    0.456105 0.348988 0.925590 0.156933
H15   H     H_    0.506752 0.658668 0.923984 0.148702
H16   H     H_    0.635951 0.554669 0.064739 0.183238
H17   H     H_    0.628141 0.425913 0.072457 0.177968
H18   H     H_    0.639806 0.541805 0.920691 0.168918
H19   H     H_    0.621000 0.413705 0.928729 0.172207
H20   H     H_    0.919659 0.422485 0.707004 0.144902
N1    N     N_R   0.499930 0.743810 0.499960 -0.204711
N2    N     N_R   0.499930 0.256190 0.499960 -0.197532
O1    O     O_R   0.370250 0.582280 0.500020 -0.580305
O2    O     O_R   0.370250 0.417720 0.500020 -0.580633
O3    O     O_R   0.499990 0.582310 0.379440 -0.602935
O4    O     O_R   0.499990 0.417690 0.379440 -0.589145
O5    O     O_R   0.629730 0.582260 0.499990 -0.584722
O6    O     O_R   0.629730 0.417740 0.499990 -0.610146
O7    O     O_R   0.499980 0.582240 0.620570 -0.582663
O8    O     O_R   0.499980 0.417760 0.620570 -0.577746
C47   C     C_3   0.590121 0.754393 0.364747 -0.347000
C48   C     C_3   0.634866 0.818830 0.295488 -0.433879
C49   C     C_3   0.630269 0.772562 0.208607 -0.847984
H21   H     H_    0.662024 0.699660 0.208903 0.280039
H22   H     H_    0.559961 0.765803 0.190187 0.242425
H23   H     H_    0.665847 0.818681 0.160751 0.243098
H24   H     H_    0.600937 0.890572 0.291804 0.238819
H25   H     H_    0.706451 0.827696 0.307954 0.227519
H26   H     H_    0.633157 0.690115 0.375022 0.238196
H27   H     H_    0.527238 0.734018 0.335711 0.234915
C50   C     C_3   0.625979 0.249879 0.387822 -0.352817
C51   C     C_3   0.600918 0.216235 0.299708 -0.389927
C52   C     C_3   0.655093 0.268646 0.230138 -0.856465
H28   H     H_    0.643232 0.348077 0.233206 0.268406
H29   H     H_    0.727215 0.253301 0.236713 0.260160
H30   H     H_    0.634828 0.243257 0.167553 0.234151
H31   H     H_    0.612344 0.137092 0.293115 0.224219
H32   H     H_    0.529086 0.231223 0.290667 0.227940
H33   H     H_    0.623322 0.328127 0.385770 0.263492
H34   H     H_    0.697108 0.234721 0.399341 0.158674
C53   C     C_1   0.294867 0.103298 0.640937 0.226408
N3    N     N_1   0.237823 0.144728 0.676091 -0.289864
C54   C     C_1   0.296751 0.896111 0.643785 0.226812
N4    N     N_1   0.240587 0.854768 0.680239 -0.284753
C55   C     C_3   0.372227 0.641205 0.089851 -0.403761
C56   C     C_3   0.284582 0.619190 0.046297 -0.337326
C57   C     C_3   0.204258 0.630091 0.107169 -0.869273
H35   H     H_    0.208340 0.576779 0.160031 0.242308
H36   H     H_    0.201269 0.704507 0.133018 0.259275
H37   H     H_    0.142170 0.616852 0.073303 0.245805
H38   H     H_    0.284937 0.545218 0.020430 0.219828
H39   H     H_    0.275734 0.671116 0.992999 0.215463
H40   H     H_    0.367352 0.617259 0.156886 0.205215
H41   H     H_    0.377132 0.721546 0.092235 0.183179
C58   C     C_3   0.357281 0.388875 0.100370 -0.414064
C59   C     C_3   0.367187 0.307414 0.166611 -0.384542
C60   C     C_3   0.281634 0.294520 0.220058 -0.814076
H42   H     H_    0.265208 0.361962 0.255031 0.250507
H43   H     H_    0.225538 0.276471 0.179426 0.252046
H44   H     H_    0.290690 0.234583 0.266478 0.244924
H45   H     H_    0.383810 0.238171 0.134434 0.216118
H46   H     H_    0.421917 0.324133 0.209116 0.235526
H47   H     H_    0.331365 0.453914 0.133206 0.231921
H48   H     H_    0.306027 0.366033 0.056005 0.201013
C61   C     C_1   0.769375 0.530617 0.348172 0.192747
N5    N     N_1   0.732137 0.540452 0.285940 -0.339976
C62   C     C_3   0.756756 0.463337 0.660986 -0.386723
C63   C     C_3   0.765109 0.549058 0.721266 -0.389821
C64   C     C_3   0.726585 0.643226 0.685540 -0.747813
H49   H     H_    0.763580 0.665417 0.626742 0.258344
H50   H     H_    0.655294 0.634344 0.672174 0.265405
H51   H     H_    0.732273 0.701695 0.732392 0.222482
H52   H     H_    0.728462 0.531143 0.781391 0.201402
H53   H     H_    0.835587 0.561167 0.736437 0.224542
H54   H     H_    0.685098 0.452509 0.650991 0.195721
H55   H     H_    0.777544 0.395022 0.692647 0.158451

loop_
_geom_bond_atom_site_label_1
_geom_bond_atom_site_label_2
_ccdc_geom_bond_type
C62   H55   S    
C56   H39   S    
C54   N4    T    
C12   O4    A    
C27   C29   A    
C34   C37   A    
C41   C42   S    
Cu2   O6    S    
C35   C36   A    
C25   H8    S    
C23   O6    A    
C36   H11   S    
C47   H26   S    
C59   C60   S    
C43   H15   S    
C61   N5    T    
C4    C46   S    
C3    H16   S    
C2    C46   S    
C57   H36   S    
C43   C46   S    
C1    O1    A    
C35   H10   S    
C18   C24   A    
C39   O7    A    
Cu2   N2    S    
C37   C38   A    
C38   C54   S    
C27   C47   S    
C6    C12   S    
C5    C6    T    
C60   H42   S    
C8    C23   S    
C55   H40   S    
C18   C19   A    
C42   C46   S    
Cu2   O8    S    
Cu1   N1    S    
C48   H25   S    
C26   C34   A    
C40   C43   S    
C58   H48   S    
C53   N3    T    
C16   C17   A    
C60   H43   S    
C31   C33   A    
C28   C50   S    
C15   H3    S    
C9    C10   A    
C42   H14   S    
C59   H45   S    
C27   N1    A    
C1    C22   S    
C12   O3    A    
C3    H17   S    
Cu2   O2    S    
C20   H7    S    
C56   C57   S    
C49   H22   S    
C49   H21   S    
C40   C45   S    
C57   H37   S    
C43   H1    S    
C1    O2    A    
C39   O8    A    
Cu2   O4    S    
C7    C8    A    
Cu1   O3    S    
C2    H19   S    
C10   C14   A    
C7    C61   S    
C52   H28   S    
C8    C9    A    
C4    C44   T    
C24   H5    S    
C5    C45   S    
C3    C45   S    
C9    C62   S    
C40   H13   S    
C50   H33   S    
C55   H41   S    
C32   C34   A    
C64   H50   S    
C48   H24   S    
C52   H29   S    
Cu1   Cu2   S    
C63   H53   S    
C60   H44   S    
C17   C18   A    
Cu1   O1    S    
C47   H27   S    
C42   H2    S    
C19   H6    S    
C62   C63   S    
C26   N2    A    
C22   C24   A    
C25   N1    A    
Cu1   O7    S    
C64   H49   S    
C37   C53   S    
C49   H23   S    
C23   O5    A    
C58   C59   S    
C62   H54   S    
C11   C17   A    
C14   H20   S    
C13   C20   A    
C31   C32   A    
C28   N2    A    
C41   H12   S    
C41   C58   S    
C48   C49   S    
C2    H18   S    
C51   H31   S    
C16   C21   A    
C51   H32   S    
C39   C44   S    
C57   H35   S    
C29   C35   A    
C33   C38   A    
C30   C36   A    
C50   H34   S    
C19   C20   A    
C28   C30   A    
C2    C3    S    
C64   H51   S    
Cu1   O5    S    
C29   C31   A    
C40   C55   S    
C30   C32   A    
C11   C13   A    
C51   C52   S    
C56   H38   S    
C63   H52   S    
C63   C64   S    
C26   H9    S    
C10   C11   A    
C47   C48   S    
C7    C13   A    
C58   H47   S    
C55   C56   S    
C41   C45   S    
C14   C15   A    
C50   C51   S    
C21   C22   A    
C21   H4    S    
C59   H46   S    
C15   C16   A    
C25   C33   A    
C52   H30   S    
