data_mof_unit_64520.cif
_audit_creation_date              2012-12-10T19:30:27-0500
_audit_creation_method            fapswitch 2.2
_symmetry_space_group_name_H-M    P1
_symmetry_Int_Tables_number       1
_space_group_crystal_system       triclinic
_cell_length_a                    17.922928
_cell_length_b                    16.530098
_cell_length_c                    19.482218
_cell_angle_alpha                 90.002681
_cell_angle_beta                  95.210605
_cell_angle_gamma                 90.001267
_cell_volume                      5748.10102306

loop_
_atom_site_label
_atom_site_type_symbol
_atom_type_description
_atom_site_fract_x
_atom_site_fract_y
_atom_site_fract_z
_atom_type_partial_charge
C1    C     C_R   0.355060 0.499999 0.503382 0.841437
C2    C     C_R   0.459555 0.168802 0.448476 -0.298320
C3    C     C_R   0.459545 0.831188 0.448476 -0.298307
C4    C     C_R   0.540455 0.168817 0.551532 -0.298304
C5    C     C_R   0.540425 0.745383 0.552427 0.148059
C6    C     C_R   0.459582 0.254613 0.447570 0.148059
C7    C     C_R   0.459578 0.745377 0.447572 0.148032
C8    C     C_R   0.540417 0.254628 0.552433 0.148027
C9    C     C_R   0.500003 0.874406 0.500000 0.091203
C10   C     C_R   0.500008 0.125594 0.500004 0.091208
C11   C     C_1   0.500006 0.963071 0.500002 -0.008682
C12   C     C_R   0.644939 0.500001 0.496619 0.841419
C13   C     C_1   0.500008 0.036930 0.500005 -0.008678
C14   C     C_R   0.507449 0.499998 0.367848 0.854709
C15   C     C_R   0.492549 0.500002 0.632152 0.854710
C16   C     C_R   0.523068 0.573942 0.254547 -0.023090
C17   C     C_R   0.476908 0.426059 0.745448 -0.023089
C18   C     C_R   0.476969 0.573957 0.745463 -0.023116
C19   C     C_R   0.523041 0.426041 0.254540 -0.023100
C20   C     C_R   0.513131 0.572700 0.182394 -0.179884
C21   C     C_R   0.486850 0.427294 0.817600 -0.179879
C22   C     C_R   0.486911 0.572707 0.817615 -0.179902
C23   C     C_R   0.728675 0.500004 0.490721 -0.129270
C24   C     C_R   0.513104 0.427286 0.182387 -0.179897
C25   C     C_R   0.506873 0.499994 0.145969 -0.009163
C26   C     C_R   0.493128 0.499996 0.854029 -0.009171
C27   C     C_R   0.519081 0.499993 0.292208 -0.200000
C28   C     C_R   0.480914 0.500007 0.707791 -0.199996
C29   C     C_R   0.497770 0.499994 0.930150 0.434653
C30   C     C_R   0.502233 0.499994 0.069848 0.434650
C31   C     C_R   0.848253 0.572651 0.491810 -0.147507
C32   C     C_R   0.151746 0.427359 0.508236 -0.147496
C33   C     C_R   0.151759 0.572649 0.508279 -0.147486
C34   C     C_R   0.271326 0.499998 0.509292 -0.129277
C35   C     C_R   0.848249 0.427360 0.491785 -0.147497
C36   C     C_R   0.769644 0.574966 0.487508 0.069012
C37   C     C_R   0.230353 0.425038 0.512504 0.069021
C38   C     C_R   0.230367 0.574960 0.512547 0.068974
C39   C     C_R   0.769640 0.425045 0.487485 0.068987
C40   C     C_2   0.548544 0.652189 0.286127 0.877460
C41   C     C_2   0.451400 0.347826 0.713863 0.877520
C42   C     C_2   0.451531 0.652220 0.713899 0.877450
C43   C     C_2   0.548486 0.347783 0.286110 0.877420
C44   C     C_3   0.730509 0.656860 0.477520 -0.356726
C45   C     C_R   0.886547 0.500006 0.494961 0.069340
C46   C     C_3   0.778166 0.729094 0.457405 -0.411291
C47   C     C_3   0.729229 0.803544 0.440926 -0.784434
C48   C     C_3   0.269481 0.343135 0.522445 -0.356754
C49   C     C_3   0.221827 0.270891 0.542541 -0.411286
C50   C     C_3   0.270761 0.196426 0.558964 -0.784477
C51   C     C_3   0.269514 0.656849 0.522542 -0.356710
C52   C     C_3   0.221872 0.729090 0.542668 -0.411303
C53   C     C_3   0.270819 0.803539 0.559133 -0.784402
C54   C     C_3   0.730498 0.343155 0.477468 -0.356704
C55   C     C_3   0.778151 0.270926 0.457337 -0.411306
C56   C     C_R   0.113457 0.500007 0.505111 0.069335
C57   C     C_3   0.729210 0.196480 0.440839 -0.784398
C58   C     C_2   0.584565 0.709854 0.614282 0.838692
C59   C     C_2   0.415440 0.290139 0.385715 0.838687
C60   C     C_2   0.415448 0.709838 0.385715 0.838726
C61   C     C_2   0.584530 0.290173 0.614294 0.838749
C62   C     C_1   0.966485 0.500008 0.498595 -0.041865
C63   C     C_1   0.033520 0.500009 0.501490 -0.041869
C64   C     C_R   0.540459 0.831194 0.551523 -0.298314
Cu1   Cu    Cu3+1 0.500000 0.580420 0.500000 1.036421
Cu2   Cu    Cu3+1 0.500000 0.419580 0.500000 1.036422
H1    H     H_    0.514714 0.628988 0.154091 0.200740
H2    H     H_    0.427369 0.134847 0.408358 0.181195
H3    H     H_    0.427356 0.865133 0.408357 0.181171
H4    H     H_    0.572641 0.134878 0.591657 0.181150
H5    H     H_    0.551475 0.773900 0.277941 0.343949
H6    H     H_    0.448411 0.226116 0.722043 0.343934
H7    H     H_    0.448652 0.773930 0.722115 0.343978
H8    H     H_    0.551369 0.226069 0.277908 0.343967
H9    H     H_    0.687569 0.791296 0.396368 0.274432
H10   H     H_    0.699241 0.820664 0.486247 0.250810
H11   H     H_    0.764925 0.855113 0.427660 0.241656
H12   H     H_    0.485252 0.371006 0.845901 0.200747
H13   H     H_    0.820131 0.744908 0.500870 0.222788
H14   H     H_    0.807473 0.713621 0.411231 0.237545
H15   H     H_    0.685482 0.650042 0.435393 0.269645
H16   H     H_    0.706275 0.673462 0.525623 0.243258
H17   H     H_    0.300725 0.179334 0.513621 0.250810
H18   H     H_    0.312443 0.208641 0.603514 0.274393
H19   H     H_    0.235068 0.144851 0.572220 0.241668
H20   H     H_    0.192544 0.286332 0.588736 0.237553
H21   H     H_    0.179843 0.255110 0.499082 0.222793
H22   H     H_    0.293694 0.326563 0.474325 0.243260
H23   H     H_    0.485361 0.628995 0.845926 0.200753
H24   H     H_    0.314523 0.349922 0.564562 0.269685
H25   H     H_    0.312492 0.791293 0.603680 0.274462
H26   H     H_    0.300793 0.820652 0.513802 0.250807
H27   H     H_    0.235134 0.855112 0.572410 0.241650
H28   H     H_    0.179896 0.744900 0.499212 0.222791
H29   H     H_    0.192578 0.713626 0.588851 0.237539
H30   H     H_    0.314545 0.650023 0.564665 0.269622
H31   H     H_    0.293746 0.673451 0.474437 0.243291
H32   H     H_    0.699217 0.179350 0.486154 0.250812
H33   H     H_    0.687554 0.208737 0.396281 0.274464
H34   H     H_    0.514667 0.370998 0.154079 0.200739
H35   H     H_    0.764903 0.144913 0.427563 0.241647
H36   H     H_    0.807461 0.286408 0.411168 0.237538
H37   H     H_    0.820113 0.255103 0.500800 0.222787
H38   H     H_    0.706254 0.326539 0.525562 0.243312
H39   H     H_    0.685477 0.349990 0.435338 0.269616
H40   H     H_    0.653001 0.623433 0.657628 0.323833
H41   H     H_    0.347008 0.376562 0.342368 0.323828
H42   H     H_    0.346989 0.623425 0.342374 0.323838
H43   H     H_    0.653004 0.376574 0.657632 0.323841
H44   H     H_    0.881269 0.627397 0.492567 0.132020
H45   H     H_    0.118725 0.372616 0.507480 0.132016
H46   H     H_    0.118749 0.627396 0.507557 0.132016
H47   H     H_    0.881263 0.372615 0.492523 0.132017
H48   H     H_    0.572652 0.865146 0.591639 0.181188
N1    N     N_R   0.501119 0.429381 0.034205 -0.223639
N2    N     N_R   0.498885 0.570607 0.965793 -0.223643
N3    N     N_R   0.498833 0.429381 0.965784 -0.223637
N4    N     N_R   0.501170 0.570607 0.034214 -0.223642
N5    N     N_R   0.500000 0.701220 0.500000 -0.216283
N6    N     N_R   0.500000 0.298780 0.500000 -0.216294
O1    O     O_R   0.391260 0.567930 0.500000 -0.550547
O2    O     O_R   0.528327 0.724988 0.252810 -0.721958
O3    O     O_2   0.407568 0.346778 0.662192 -0.638686
O4    O     O_R   0.471577 0.275016 0.747180 -0.721952
O5    O     O_2   0.407690 0.653320 0.662234 -0.638663
O6    O     O_R   0.471781 0.725003 0.747232 -0.721973
O7    O     O_2   0.592330 0.346692 0.337773 -0.638675
O8    O     O_R   0.528238 0.274993 0.252786 -0.721969
O9    O     O_2   0.589356 0.747689 0.668488 -0.586286
O10   O     O_R   0.625143 0.638377 0.611735 -0.752131
O11   O     O_2   0.410641 0.252298 0.331512 -0.586278
O12   O     O_R   0.608740 0.432070 0.500000 -0.550537
O13   O     O_R   0.374870 0.361622 0.388259 -0.752137
O14   O     O_2   0.410693 0.747647 0.331500 -0.586253
O15   O     O_R   0.374838 0.638380 0.388270 -0.752150
O16   O     O_2   0.589240 0.252388 0.668520 -0.586244
O17   O     O_R   0.625172 0.361608 0.611731 -0.752181
O18   O     O_R   0.608740 0.567930 0.500000 -0.550530
O19   O     O_R   0.391260 0.432070 0.500000 -0.550523
O20   O     O_R   0.499990 0.567930 0.400140 -0.541890
O21   O     O_R   0.500010 0.432070 0.599860 -0.541926
O22   O     O_R   0.500010 0.567930 0.599860 -0.541842
O23   O     O_R   0.499990 0.432070 0.400140 -0.541831
O24   O     O_2   0.592385 0.653261 0.337792 -0.638681

loop_
_geom_bond_atom_site_label_1
_geom_bond_atom_site_label_2
_ccdc_geom_bond_type
C51   H31   S    
C21   C26   A    
C32   H45   S    
C9    C64   A    
C49   H21   S    
H5    O2    S    
C4    C8    A    
C4    H4    S    
C48   H24   S    
C50   H18   S    
Cu2   O21   S    
C55   H36   S    
C59   O11   D    
C5    C58   S    
C5    N5    A    
C41   O4    S    
C54   H38   S    
C3    H3    S    
C58   O10   S    
C47   H10   S    
C3    C7    A    
C44   H16   S    
C18   C42   S    
C46   H13   S    
C39   C54   S    
C24   H34   S    
C20   C25   A    
C58   O9    D    
H7    O6    S    
C34   C37   A    
C55   H37   S    
C45   C62   S    
C1    C34   S    
C52   H29   S    
H43   O17   S    
C46   C47   S    
C20   H1    S    
C42   O5    D    
C14   O23   A    
Cu1   O20   S    
C22   H23   S    
H8    O8    S    
Cu2   O19   S    
C44   C46   S    
N1    N3    A    
C21   H12   S    
C53   H25   S    
C48   H22   S    
C52   H28   S    
Cu1   O1    S    
C14   C27   S    
C19   C27   A    
C1    O19   A    
C51   H30   S    
C33   C56   A    
C34   C38   A    
H6    O4    S    
C2    C6    A    
C49   H20   S    
C6    N6    A    
C19   C43   S    
C50   H17   S    
Cu2   O12   S    
C30   N1    A    
C64   H48   S    
C53   H27   S    
C51   C52   S    
C7    N5    A    
C18   C28   A    
C24   C25   A    
H42   O15   S    
C44   H15   S    
C43   O7    D    
Cu2   O23   S    
C30   N4    A    
C29   N3    A    
C59   O13   S    
C17   C21   A    
C5    C64   A    
C35   C39   A    
C62   C63   T    
C3    C9    A    
C15   O22   A    
C1    O1    A    
C12   C23   S    
C16   C20   A    
C53   H26   S    
Cu1   N5    S    
C56   C63   S    
C33   H46   S    
C32   C37   A    
C37   C48   S    
C9    C11   S    
C60   O15   S    
C16   C40   S    
Cu1   O18   S    
C48   C49   S    
C29   N2    A    
C14   O20   A    
C23   C36   A    
C55   C57   S    
C22   C26   A    
C12   O18   A    
C36   C44   S    
C47   H11   S    
C4    C10   A    
C2    C10   A    
C60   O14   D    
C7    C60   S    
C40   O2    S    
C52   C53   S    
C8    N6    A    
C25   C30   S    
H40   O10   S    
C54   C55   S    
C12   O12   A    
C54   H39   S    
C18   C22   A    
C17   C28   A    
C6    C59   S    
C10   C13   S    
C43   O8    S    
C38   C51   S    
C50   H19   S    
C57   H33   S    
C57   H35   S    
C8    C61   S    
C2    H2    S    
C33   C38   A    
C41   O3    D    
C40   O24   D    
C19   C24   A    
C47   H9    S    
H41   O13   S    
C46   H14   S    
Cu1   O22   S    
C11   C13   T    
C61   O17   S    
C15   C28   S    
C16   C27   A    
C23   C39   A    
C57   H32   S    
C31   H44   S    
N2    N4    A    
C35   H47   S    
Cu1   Cu2   S    
C17   C41   S    
C42   O6    S    
C26   C29   S    
C49   C50   S    
C31   C45   A    
C15   O21   A    
C31   C36   A    
Cu2   N6    S    
C32   C56   A    
C61   O16   D    
C35   C45   A    
