data_mof_unit_31178.cif
_audit_creation_date              2012-12-10T17:24:40-0500
_audit_creation_method            fapswitch 2.2
_symmetry_space_group_name_H-M    P1
_symmetry_Int_Tables_number       1
_space_group_crystal_system       triclinic
_cell_length_a                    17.990138
_cell_length_b                    18.945072
_cell_length_c                    18.945633
_cell_angle_alpha                 110.15123
_cell_angle_beta                  109.162699
_cell_angle_gamma                 108.108026
_cell_volume                      5029.41704706

loop_
_atom_site_label
_atom_site_type_symbol
_atom_type_description
_atom_site_fract_x
_atom_site_fract_y
_atom_site_fract_z
_atom_type_partial_charge
C1    C     C_R   0.612996 0.618232 0.491585 0.906878
C2    C     C_R   0.664209 0.758611 0.494042 -0.097147
C3    C     C_R   0.804456 0.812648 0.490833 -0.124348
C4    C     C_R   0.380267 0.501731 0.380365 0.949174
C5    C     C_R   0.800721 0.731738 0.464333 0.012766
C6    C     C_R   0.721510 0.661506 0.439581 0.100353
C7    C     C_R   0.663429 0.678570 0.471284 -0.152918
C8    C     C_R   0.870904 0.717507 0.455529 -0.190824
C9    C     C_R   0.859786 0.635165 0.417637 -0.157081
C10   C     C_R   0.776278 0.565544 0.379447 -0.178301
C11   C     C_R   0.704773 0.577992 0.384623 0.575192
C12   C     C_3   0.221812 0.437038 0.181083 0.362616
C13   C     C_R   0.760115 0.667979 0.800839 0.428659
C14   C     C_R   0.769713 0.711673 0.883034 0.369495
C15   C     C_R   0.770578 0.672041 0.933210 -0.364423
C16   C     C_R   0.379026 0.380671 0.499816 1.062144
C17   C     C_R   0.772611 0.594679 0.907017 0.397046
C18   C     C_R   0.781215 0.559949 0.832947 -0.142985
C19   C     C_R   0.754761 0.585239 0.771389 -0.177115
C20   C     C_R   0.806148 0.495216 0.814646 -0.027055
C21   C     C_R   0.776633 0.437568 0.728691 -0.047018
C22   C     C_R   0.741868 0.456898 0.663329 -0.052814
C23   C     C_3   0.215952 0.435322 0.259855 -0.344988
C24   C     C_R   0.718003 0.523789 0.683543 -0.025451
C25   C     C_R   0.777355 0.358748 0.706400 -0.202995
C26   C     C_R   0.751493 0.302824 0.621817 0.458395
C27   C     C_R   0.731886 0.328325 0.560447 -0.296899
C28   C     C_R   0.632976 0.510772 0.619007 0.975174
C29   C     C_R   0.731307 0.406502 0.580862 0.386882
C30   C     C_R   0.414792 0.375633 0.658598 0.440412
C31   C     C_R   0.420296 0.392086 0.738999 0.389298
C32   C     C_R   0.344637 0.346861 0.741760 -0.416499
C33   C     C_R   0.265628 0.280732 0.666017 0.455678
C34   C     C_3   0.315217 0.505557 0.315744 -0.249524
C35   C     C_R   0.260675 0.261540 0.584187 -0.044945
C36   C     C_R   0.330598 0.318080 0.581492 -0.143939
C37   C     C_R   0.189932 0.187597 0.504695 -0.122782
C38   C     C_R   0.184176 0.175745 0.424769 -0.011980
C39   C     C_R   0.238516 0.244722 0.422048 -0.017503
C40   C     C_3   0.287981 0.576178 0.328759 0.393220
C41   C     C_R   0.314092 0.314732 0.501387 -0.110516
C42   C     C_R   0.124065 0.096677 0.347171 -0.225954
C43   C     C_R   0.110848 0.089107 0.268216 -0.243155
C44   C     C_R   0.153577 0.160477 0.262916 0.408101
C45   C     C_R   0.600411 0.777510 0.514674 0.510204
C46   C     C_R   0.217114 0.239719 0.339965 0.323919
C47   C     C_R   0.006979 0.618435 0.128720 0.895761
C48   C     C_R   0.125298 0.502227 0.125275 0.941388
C49   C     C_R   0.003689 0.381073 0.882441 0.935808
C50   C     C_R   0.879821 0.500847 0.884429 0.928639
C51   C     C_R   0.005208 0.882975 0.381842 0.924864
C52   C     C_3   0.190132 0.507288 0.272906 0.360224
C53   C     C_R   0.877698 0.881594 0.500085 0.892922
C54   C     C_R   0.999715 0.121773 0.617996 1.107567
C55   C     C_R   0.121226 0.121614 0.502722 1.046260
C56   C     C_R   0.618503 0.862414 0.555645 -0.098261
C57   C     C_R   0.176425 0.765114 0.270651 -0.239703
C58   C     C_R   0.255056 0.842738 0.324914 0.397525
C59   C     C_R   0.252564 0.914578 0.374749 -0.320043
C60   C     C_R   0.172193 0.909285 0.373276 0.401853
C61   C     C_R   0.091430 0.828764 0.319985 0.036966
C62   C     C_R   0.093686 0.757974 0.264684 -0.051820
C63   C     C_R   0.008513 0.815962 0.319347 -0.114251
C64   C     C_3   0.194391 0.506914 0.193647 -0.215782
C65   C     C_R   0.932656 0.733634 0.270886 -0.063913
C66   C     C_R   0.939184 0.663619 0.221627 0.012206
C67   C     C_R   0.682310 0.924011 0.553090 -0.239583
C68   C     C_R   0.013971 0.679581 0.207092 -0.118359
C69   C     C_R   0.851060 0.718810 0.272928 -0.218342
C70   C     C_R   0.779689 0.636608 0.231048 0.375891
C71   C     C_R   0.792797 0.565947 0.194826 0.352215
C72   C     C_R   0.872312 0.580366 0.191821 -0.089873
C73   C     C_R   0.988710 0.392524 0.726040 0.457334
C74   C     C_R   0.998191 0.403570 0.659652 -0.258460
C75   C     C_R   0.018484 0.351281 0.607382 -0.256465
C76   C     C_3   0.293363 0.577716 0.249546 -0.375630
C77   C     C_R   0.023864 0.282176 0.615482 0.502506
C78   C     C_R   0.722096 0.897818 0.504463 0.430135
C79   C     C_R   0.006985 0.264421 0.678182 -0.021701
C80   C     C_R   0.999300 0.325536 0.739903 0.004331
C81   C     C_R   0.995548 0.187337 0.680757 -0.105461
C82   C     C_R   0.983404 0.173721 0.746098 -0.038041
C83   C     C_R   0.002239 0.244173 0.818586 -0.092951
C84   C     C_R   0.003205 0.317083 0.813054 -0.078074
C85   C     C_R   0.954862 0.092363 0.742103 0.409144
C86   C     C_R   0.966196 0.087277 0.817367 0.274227
C87   C     C_R   0.997549 0.162086 0.894224 0.365921
C88   C     C_3   0.320147 0.505907 0.236390 0.363409
C89   C     C_R   0.730585 0.823159 0.494959 -0.064862
C90   C     C_R   0.016688 0.239075 0.894306 -0.184113
H1    H     H_    0.683020 0.985000 0.569559 0.217747
H2    H     H_    0.323774 0.635555 0.244968 0.261997
H3    H     H_    0.181287 0.709526 0.235643 0.185582
H4    H     H_    0.313935 0.975056 0.416043 0.192206
H5    H     H_    0.840191 0.770130 0.306440 0.212153
H6    H     H_    0.881659 0.524911 0.170025 0.215441
H7    H     H_    0.990852 0.454161 0.648858 0.190531
H8    H     H_    0.028907 0.364162 0.558996 0.167950
H9    H     H_    0.041160 0.294743 0.954640 0.203005
H10   H     H_    0.180550 0.378413 0.263263 0.246546
H11   H     H_    0.766020 0.502133 0.341688 0.165622
H12   H     H_    0.934381 0.768575 0.475513 0.174843
H13   H     H_    0.574006 0.878067 0.577142 0.208286
H14   H     H_    0.136362 0.508652 0.345128 0.355019
H15   H     H_    0.583075 0.927548 0.339700 0.406102
H16   H     H_    0.618395 0.460451 0.292307 0.341695
H17   H     H_    0.802329 0.720242 0.643799 0.377290
H18   H     H_    0.780674 0.812850 0.969821 0.348293
H19   H     H_    0.650813 0.526677 0.012038 0.389001
H20   H     H_    0.289849 0.679786 0.395206 0.361654
H21   H     H_    0.641188 0.071494 0.506609 0.416485
H22   H     H_    0.788343 0.373414 0.436760 0.363943
H23   H     H_    0.913958 0.625357 0.411334 0.173643
H24   H     H_    0.042970 0.041565 0.028787 0.394248
H25   H     H_    0.545313 0.441846 0.710625 0.387378
H26   H     H_    0.491758 0.457427 0.864179 0.371310
H27   H     H_    0.207110 0.260474 0.733040 0.331796
H28   H     H_    0.256995 0.299404 0.283460 0.389508
H29   H     H_    0.691658 0.482525 0.189230 0.338377
H30   H     H_    0.402051 0.962081 0.318147 0.358974
H31   H     H_    0.233512 0.031891 0.455314 0.338790
H32   H     H_    0.650462 0.573824 0.179146 0.364717
H33   H     H_    0.960620 0.105265 0.953848 0.369277
H34   H     H_    0.719989 0.288164 0.496873 0.204049
H35   H     H_    0.322192 0.456609 0.073376 0.370766
H36   H     H_    0.961776 0.487631 0.756772 0.341942
H37   H     H_    0.058786 0.256239 0.525944 0.331195
H38   H     H_    0.889712 0.967430 0.669132 0.376697
H39   H     H_    0.987807 0.019761 0.871318 0.362638
H40   H     H_    0.132328 0.322421 0.093422 0.397796
H41   H     H_    0.498041 0.667807 0.430934 0.335721
H42   H     H_    0.766672 0.700181 0.991384 0.215473
H43   H     H_    0.796705 0.339934 0.754449 0.205732
H44   H     H_    0.348048 0.361591 0.803668 0.170587
H45   H     H_    0.086058 0.039119 0.345891 0.210255
H46   H     H_    0.063467 0.027545 0.210687 0.221412
O1    O     O_R   0.592010 0.539900 0.448660 -0.537841
O2    O     O_R   0.948620 0.908400 0.356980 -0.643492
O3    O     O_R   0.960510 0.908410 0.552140 -0.621226
O4    O     O_R   0.591210 0.643320 0.551330 -0.552682
O5    O     O_R   0.856270 0.908390 0.447890 -0.556385
O6    O     O_R   0.051380 0.091620 0.643040 -0.603929
O7    O     O_R   0.947140 0.091600 0.538800 -0.531774
O8    O     O_R   0.143730 0.091640 0.552130 -0.572310
O9    O     O_R   0.039490 0.091610 0.447890 -0.623738
O10   O     O_R   0.408080 0.448290 0.356360 -0.573998
O11   O     O_R   0.407280 0.551710 0.459030 -0.577720
O12   O     O_R   0.054870 0.643310 0.094700 -0.621179
O13   O     O_R   0.408790 0.356680 0.448670 -0.597730
O14   O     O_R   0.407990 0.460100 0.551340 -0.612728
O15   O     O_R   0.592720 0.448290 0.540970 -0.579218
O16   O     O_R   0.591920 0.551710 0.643640 -0.592717
O17   O     O_R   0.951440 0.539900 0.094740 -0.597371
O18   O     O_3   0.121160 0.510037 0.290548 -0.735835
O19   O     O_2   0.762160 0.001876 0.440324 -0.258602
O20   O     O_2   0.685967 0.846870 0.339450 -0.238410
O21   O     O_3   0.593394 0.913622 0.386710 -0.483400
O22   O     O_3   0.617827 0.513060 0.326915 -0.661879
O23   O     O_R   0.044440 0.448270 0.096110 -0.596500
O24   O     O_2   0.696942 0.746987 0.723897 -0.236405
O25   O     O_2   0.859145 0.810556 0.808232 -0.232413
O26   O     O_3   0.778865 0.676049 0.658743 -0.565981
O27   O     O_3   0.773342 0.790988 0.910960 -0.655090
O28   O     O_2   0.669537 0.437464 0.873437 -0.247470
O29   O     O_2   0.802576 0.534017 0.015052 -0.317775
O30   O     O_3   0.667277 0.562111 0.986027 -0.528212
O31   O     O_3   0.322187 0.648106 0.408028 -0.656762
O32   O     O_2   0.798480 0.191296 0.544519 -0.284948
O33   O     O_2   0.785827 0.193460 0.670446 -0.316916
O34   O     O_R   0.147870 0.551680 0.096080 -0.628211
O35   O     O_3   0.639333 0.126203 0.527232 -0.496252
O36   O     O_2   0.651992 0.394018 0.426338 -0.311387
O37   O     O_2   0.765130 0.537719 0.547052 -0.255043
O38   O     O_3   0.819387 0.431975 0.486583 -0.549250
O39   O     O_2   0.088664 0.210677 0.152094 -0.269537
O40   O     O_2   0.202854 0.168048 0.145736 -0.283233
O41   O     O_3   0.041304 0.048574 0.082423 -0.532634
O42   O     O_3   0.491362 0.409827 0.653171 -0.769010
O43   O     O_3   0.499633 0.453853 0.813867 -0.692634
O44   O     O_3   0.192291 0.238096 0.671821 -0.741905
O45   O     O_R   0.952810 0.356650 0.912880 -0.628165
O46   O     O_3   0.253076 0.313564 0.336927 -0.798725
O47   O     O_3   0.731724 0.482562 0.163856 -0.744506
O48   O     O_2   0.397108 0.823774 0.394512 -0.230069
O49   O     O_2   0.341527 0.790471 0.244533 -0.290026
O50   O     O_3   0.429621 0.950615 0.364643 -0.491982
O51   O     O_3   0.172406 0.982417 0.422939 -0.800218
O52   O     O_3   0.700471 0.628696 0.230165 -0.705246
O53   O     O_3   0.005083 0.162004 0.968995 -0.698216
O54   O     O_2   0.493576 0.581477 0.279282 -0.248531
O55   O     O_2   0.412127 0.424513 0.196888 -0.216577
O56   O     O_R   0.056240 0.460060 0.912840 -0.577188
O57   O     O_3   0.381030 0.508019 0.116744 -0.487059
O58   O     O_3   0.964457 0.444238 0.774050 -0.777462
O59   O     O_3   0.048494 0.234121 0.564210 -0.749673
O60   O     O_3   0.912390 0.018773 0.663426 -0.792517
O61   O     O_3   0.948585 0.009451 0.814007 -0.731437
O62   O     O_3   0.187998 0.365042 0.102105 -0.728903
O63   O     O_3   0.516113 0.716038 0.486658 -0.666471
O64   O     O_R   0.859800 0.448280 0.911500 -0.564812
O65   O     O_R   0.963240 0.551690 0.911470 -0.590349
O66   O     O_R   0.052860 0.908430 0.461230 -0.598926
S1    S     S_3+6 0.693323 0.915621 0.415444 0.080708
S2    S     S_3+6 0.773415 0.727410 0.747097 0.087562
S3    S     S_3+6 0.727980 0.528787 0.945374 0.047812
S4    S     S_3+6 0.747131 0.202120 0.592413 0.034003
S5    S     S_3+6 0.739711 0.444691 0.508887 0.031231
S6    S     S_3+6 0.122484 0.148860 0.159019 0.039325
S7    S     S_3+6 0.357236 0.849673 0.331122 0.053408
S8    S     S_3+6 0.405509 0.504515 0.208667 0.116976
Zn1   Zn    Zn3+2 0.500540 0.430950 0.431450 1.181786
Zn2   Zn    Zn3+2 0.499460 0.569050 0.568550 1.145682
Zn3   Zn    Zn3+2 0.934770 0.430930 0.003810 1.103438
Zn4   Zn    Zn3+2 0.072900 0.569020 0.003770 1.062784
Zn5   Zn    Zn3+2 0.069600 0.000030 0.569620 1.060645
Zn6   Zn    Zn3+2 0.930400 0.000000 0.430410 1.141908

loop_
_geom_bond_atom_site_label_1
_geom_bond_atom_site_label_2
_ccdc_geom_bond_type
C66   C68   A    
C63   C65   A    
C73   O58   S    
O23   Zn3   S    
C22   C29   A    
C27   C29   A    
C73   C74   A    
C47   C68   S    
O25   S2    D    
H22   O38   S    
C2    C7    A    
C80   C84   A    
O17   Zn3   S    
O10   Zn1   S    
C57   C58   A    
O48   S7    D    
C39   C41   A    
C49   O56   A    
C85   C86   A    
C66   C72   A    
C12   C23   S    
O2    Zn6   S    
C26   C27   A    
O15   Zn1   S    
O1    Zn1   S    
C83   C84   A    
C34   C40   S    
C49   C84   S    
C21   C22   A    
C35   C37   A    
O6    Zn5   S    
C38   C42   A    
O28   S3    D    
C10   H11   S    
C30   C31   A    
C12   C64   S    
C72   H6    S    
C55   O9    A    
C86   O61   S    
C52   O18   S    
C44   S6    S    
C18   C19   A    
C14   O27   S    
C61   C63   A    
C40   O31   S    
C20   C50   S    
H15   O21   S    
C15   H42   S    
C35   C36   A    
C45   C56   A    
O3    Zn5   S    
C8    C9    A    
C13   S2    S    
C70   C71   A    
O21   S1    S    
O30   S3    S    
O66   Zn5   S    
H33   O53   S    
C25   H43   S    
C9    C10   A    
C76   C88   S    
C18   C20   A    
C61   C62   A    
C51   O66   A    
C70   O52   S    
C87   O53   S    
O49   S7    D    
H24   O41   S    
C77   C79   A    
C54   O7    A    
O16   Zn2   S    
C59   C60   A    
C2    C45   A    
C57   H3    S    
C13   C14   A    
C33   O44   S    
H38   O60   S    
C36   C41   A    
C26   S4    S    
C67   C78   A    
O39   S6    D    
O19   S1    D    
O5    Zn6   S    
O56   Zn4   S    
H18   O27   S    
C44   C46   A    
C81   C82   A    
C74   H7    S    
H28   O46   S    
C78   C89   A    
C30   O42   S    
C38   C39   A    
C48   O23   A    
C4    C34   S    
C74   C75   A    
C12   C88   S    
C71   O47   S    
C57   C62   A    
C51   C63   S    
C78   S1    S    
C58   S7    S    
C52   C64   S    
C6    C11   A    
C79   C81   A    
C50   O64   A    
C86   C87   A    
C13   C19   A    
C34   C88   S    
C47   O17   A    
C3    C5    A    
C25   C26   A    
C40   C52   S    
C4    O11   A    
H19   O30   S    
C82   C83   A    
C75   H8    S    
C40   C76   S    
O26   S2    S    
C60   C61   A    
O14   Zn2   S    
C2    C89   A    
H41   O63   S    
C43   C44   A    
C37   C38   A    
H37   O59   S    
H31   O51   S    
O9    Zn6   S    
H20   O31   S    
H36   O58   S    
H32   O52   S    
C31   C32   A    
H17   O26   S    
H35   O57   S    
C23   C34   S    
C4    O10   A    
C67   H1    S    
C17   C18   A    
C64   C76   S    
O37   S5    D    
H29   O47   S    
O35   S4    S    
C75   C77   A    
C16   O13   A    
C1    O4    A    
C76   H2    S    
C39   C46   A    
C49   O45   A    
C59   H4    S    
C28   O16   A    
C60   O51   S    
O57   S8    S    
O38   S5    S    
C22   C24   A    
O50   S7    S    
C5    C8    A    
O29   S3    D    
C42   C43   A    
O11   Zn2   S    
C82   C85   A    
C90   H9    S    
O33   S4    D    
C1    O1    A    
O32   S4    D    
O4    Zn2   S    
C24   C28   S    
C48   O34   A    
C50   O65   A    
C15   C17   A    
C83   C90   A    
C21   C25   A    
C47   O12   A    
C55   O8    A    
C54   O6    A    
C1    C7    S    
O36   S5    D    
O13   Zn1   S    
C56   H13   S    
C69   H5    S    
H30   O50   S    
O24   S2    D    
O8    Zn5   S    
O45   Zn3   S    
C27   H34   S    
H27   O44   S    
C85   O60   S    
C6    C7    A    
O34   Zn4   S    
C30   C36   A    
C45   O63   S    
C56   C67   A    
C43   H46   S    
C29   S5    S    
O41   S6    S    
C62   C68   A    
C3    C89   A    
C9    H23   S    
C32   C33   A    
O40   S6    D    
C17   S3    S    
C19   C24   A    
C77   O59   S    
C71   C72   A    
H16   O22   S    
C32   H44   S    
C3    C53   S    
C46   O46   S    
C23   C52   S    
C5    C6    A    
C8    H12   S    
C53   O3    A    
C65   C69   A    
C33   C35   A    
C73   C80   A    
H26   O43   S    
C23   H10   S    
C53   O5    A    
O54   S8    D    
C69   C70   A    
C58   C59   A    
O65   Zn4   S    
H25   O42   S    
C48   C64   S    
C10   C11   A    
O55   S8    D    
C79   C80   A    
C37   C55   S    
C51   O2    A    
C20   C21   A    
C88   S8    S    
C28   O15   A    
C65   C66   A    
C87   C90   A    
C31   O43   S    
C12   O62   S    
C14   C15   A    
C42   H45   S    
C16   O14   A    
H14   O18   S    
H40   O62   S    
O20   S1    D    
O12   Zn4   S    
C16   C41   S    
C54   C81   S    
H39   O61   S    
C11   O22   S    
O7    Zn6   S    
H21   O35   S    
O64   Zn3   S    
