data_mof_unit_25695.cif
_audit_creation_date              2012-10-26T17:13:05-0400
_audit_creation_method            fapswitch 2.2
_symmetry_space_group_name_H-M    P1
_symmetry_Int_Tables_number       1
_space_group_crystal_system       triclinic
_cell_length_a                    16.862247
_cell_length_b                    16.928527
_cell_length_c                    16.91098
_cell_angle_alpha                 68.587095
_cell_angle_beta                  68.356288
_cell_angle_gamma                 68.262155
_cell_volume                      4019.27875938

loop_
_atom_site_label
_atom_site_type_symbol
_atom_type_description
_atom_site_fract_x
_atom_site_fract_y
_atom_site_fract_z
_atom_type_partial_charge
C1    C     C_R   0.324181 0.961508 0.444038 -0.032639
C2    C     C_R   0.324216 0.444305 0.961044 -0.029400
C3    C     C_R   0.529591 0.407809 0.022450 0.024758
C4    C     C_R   0.034362 0.457127 0.573913 0.025112
C5    C     C_R   0.965638 0.542873 0.426087 0.025112
C6    C     C_R   0.988586 0.692638 0.566924 -0.025737
C7    C     C_R   0.011414 0.307362 0.433076 -0.025737
C8    C     C_R   0.452786 0.992295 0.450441 0.000257
C9    C     C_R   0.547214 0.007705 0.549559 0.000257
C10   C     C_R   0.993835 0.450234 0.451875 0.001394
C11   C     C_R   0.006165 0.549766 0.548124 0.001394
C12   C     C_R   0.452892 0.450550 0.992011 0.001087
C13   C     C_R   0.547108 0.549450 0.007989 0.001087
C14   C     C_R   0.010331 0.833026 0.570166 0.547081
C15   C     C_R   0.675819 0.038492 0.555962 -0.032639
C16   C     C_R   0.989669 0.166973 0.429834 0.547081
C17   C     C_R   0.829039 0.566402 0.023526 0.544870
C18   C     C_R   0.170961 0.433598 0.976474 0.544870
C19   C     C_R   0.570156 0.010646 0.832851 0.545763
C20   C     C_R   0.429844 0.989354 0.167149 0.545762
C21   C     C_R   0.430203 0.167395 0.988482 0.547290
C22   C     C_R   0.569797 0.832605 0.011518 0.547290
C23   C     C_R   0.976758 0.433567 0.170850 0.543335
C24   C     C_R   0.023242 0.566433 0.829150 0.543336
C25   C     C_R   0.170891 0.976873 0.433482 0.550028
C26   C     C_R   0.961982 0.443868 0.323965 -0.028627
C27   C     C_R   0.829109 0.023127 0.566518 0.550028
C28   C     C_R   0.404416 0.986577 0.400741 0.016272
C29   C     C_R   0.595584 0.013423 0.599259 0.016272
C30   C     C_R   0.988756 0.400448 0.403062 0.018085
C31   C     C_R   0.011244 0.599552 0.596938 0.018085
C32   C     C_R   0.404674 0.400949 0.985943 0.017230
C33   C     C_R   0.595326 0.599051 0.014057 0.017230
C34   C     C_R   0.266865 0.974898 0.393074 0.000723
C35   C     C_R   0.733135 0.025102 0.606926 0.000723
C36   C     C_R   0.974788 0.392958 0.266668 -0.001469
C37   C     C_R   0.038017 0.556132 0.676035 -0.028627
C38   C     C_R   0.025212 0.607042 0.733332 -0.001469
C39   C     C_R   0.389119 0.259640 0.996368 -0.016854
C40   C     C_R   0.610881 0.740360 0.003632 -0.016854
C41   C     C_R   0.611760 0.001895 0.740775 -0.018222
C42   C     C_R   0.388240 0.998105 0.259225 -0.018222
C43   C     C_R   0.732774 0.606661 0.026201 -0.001938
C44   C     C_R   0.267226 0.393338 0.973799 -0.001938
C45   C     C_R   0.001141 0.741132 0.612441 -0.018097
C46   C     C_R   0.998859 0.258868 0.387559 -0.018097
C47   C     C_R   0.489687 0.958248 0.733431 -0.113089
C48   C     C_R   0.436278 0.308079 0.006410 -0.024115
C49   C     C_R   0.510313 0.041752 0.266569 -0.113089
C50   C     C_R   0.949670 0.734145 0.495528 -0.113630
C51   C     C_R   0.050330 0.265855 0.504471 -0.113631
C52   C     C_R   0.698547 0.462835 0.070332 -0.113242
C53   C     C_R   0.301453 0.537165 0.929667 -0.113242
C54   C     C_R   0.301795 0.929656 0.536879 -0.117945
C55   C     C_R   0.698205 0.070344 0.463121 -0.117945
C56   C     C_R   0.511073 0.266775 0.040715 -0.111924
C57   C     C_R   0.488927 0.733225 0.959285 -0.111924
C58   C     C_R   0.927095 0.536624 0.303602 -0.113425
C59   C     C_R   0.563722 0.691921 0.993590 -0.024115
C60   C     C_R   0.072905 0.463376 0.696398 -0.113425
C61   C     C_R   0.298285 0.999926 0.299806 0.073752
C62   C     C_R   0.701715 0.000074 0.700194 0.073752
C63   C     C_R   0.997221 0.299380 0.298702 0.062693
C64   C     C_R   0.002779 0.700620 0.701298 0.062694
C65   C     C_R   0.299497 0.300068 0.997214 0.067624
C66   C     C_R   0.700503 0.699932 0.002786 0.067624
C67   C     C_R   0.651249 0.063603 0.413853 0.014675
C68   C     C_R   0.348752 0.936397 0.586147 0.014675
C69   C     C_R   0.070199 0.413999 0.646844 0.017100
C70   C     C_R   0.564334 0.992501 0.692177 -0.024791
C71   C     C_R   0.929801 0.586001 0.353156 0.017100
C72   C     C_R   0.441142 0.684427 0.953860 0.016564
C73   C     C_R   0.558857 0.315573 0.046140 0.016564
C74   C     C_R   0.558240 0.046889 0.315475 0.015752
C75   C     C_R   0.441760 0.953111 0.684525 0.015752
C76   C     C_R   0.348333 0.586305 0.936631 0.017797
C77   C     C_R   0.651667 0.413695 0.063369 0.017797
C78   C     C_R   0.058035 0.314893 0.551080 0.015537
C79   C     C_R   0.941965 0.685107 0.448920 0.015537
C80   C     C_R   0.680014 0.086455 0.321547 -0.126726
C81   C     C_R   0.435666 0.007499 0.307822 -0.024791
C82   C     C_R   0.319986 0.913545 0.678453 -0.126726
C83   C     C_R   0.101595 0.321669 0.670029 -0.122316
C84   C     C_R   0.898405 0.678331 0.329971 -0.122316
C85   C     C_R   0.364491 0.726955 0.924280 -0.123038
C86   C     C_R   0.635509 0.273045 0.075720 -0.123038
C87   C     C_R   0.634675 0.076592 0.273025 -0.125905
C88   C     C_R   0.365325 0.923407 0.726974 -0.125905
C89   C     C_R   0.319274 0.678572 0.914135 -0.122110
C90   C     C_R   0.680726 0.321428 0.085865 -0.122110
C91   C     C_R   0.095644 0.272566 0.622536 -0.123438
C92   C     C_R   0.675784 0.555695 0.038956 -0.029400
C93   C     C_R   0.904356 0.727434 0.377464 -0.123438
C94   C     C_R   0.529290 0.022826 0.407758 0.023891
C95   C     C_R   0.470710 0.977174 0.592242 0.023891
C96   C     C_R   0.028113 0.407439 0.525949 0.025110
C97   C     C_R   0.971887 0.592561 0.474050 0.025110
C98   C     C_R   0.423602 0.542912 0.969214 0.025157
C99   C     C_R   0.576398 0.457088 0.030786 0.025157
C100  C     C_R   0.576199 0.030892 0.457156 0.024216
C101  C     C_R   0.423801 0.969107 0.542844 0.024216
C102  C     C_R   0.470409 0.592192 0.977550 0.024758
Cu1   Cu    Cu3+1 0.995180 0.995180 0.424630 0.942617
Cu2   Cu    Cu3+1 0.004820 0.004820 0.575370 0.942616
Cu3   Cu    Cu3+1 0.995180 0.424630 0.995180 0.951785
Cu4   Cu    Cu3+1 0.004820 0.575370 0.004820 0.951785
Cu5   Cu    Cu3+1 0.424630 0.995180 0.995180 0.938318
Cu6   Cu    Cu3+1 0.575370 0.004820 0.004820 0.938318
H1    H     H_    0.339430 0.910071 0.797595 0.095083
H2    H     H_    0.338280 0.797523 0.911325 0.095540
H3    H     H_    0.870174 0.712714 0.274391 0.116905
H4    H     H_    0.129826 0.287286 0.725609 0.116905
H5    H     H_    0.470967 0.928821 0.803410 0.130221
H6    H     H_    0.529033 0.071179 0.196590 0.130220
H7    H     H_    0.919924 0.804467 0.478355 0.143494
H8    H     H_    0.080075 0.195532 0.521645 0.143494
H9    H     H_    0.752353 0.427338 0.100842 0.145780
H10   H     H_    0.247647 0.572662 0.899158 0.145780
H11   H     H_    0.248152 0.899084 0.572268 0.149575
H12   H     H_    0.660569 0.089928 0.202405 0.095083
H13   H     H_    0.751848 0.100916 0.427732 0.149575
H14   H     H_    0.530121 0.196822 0.069983 0.130499
H15   H     H_    0.469879 0.803178 0.930017 0.130499
H16   H     H_    0.896040 0.571547 0.250274 0.144861
H17   H     H_    0.103960 0.428453 0.749726 0.144861
H18   H     H_    0.262954 0.074043 0.184566 0.220514
H19   H     H_    0.190930 0.093425 0.272957 0.194378
H20   H     H_    0.737046 0.925957 0.815434 0.220514
H21   H     H_    0.809070 0.906575 0.727043 0.194378
H22   H     H_    0.065111 0.183244 0.261323 0.229650
H23   H     H_    0.880347 0.798692 0.357667 0.111892
H24   H     H_    0.078588 0.268479 0.188123 0.209878
H25   H     H_    0.934889 0.816756 0.738677 0.229650
H26   H     H_    0.921411 0.731521 0.811876 0.209878
H27   H     H_    0.264070 0.185702 0.072517 0.214687
H28   H     H_    0.190512 0.273096 0.085020 0.204501
H29   H     H_    0.809488 0.726904 0.914980 0.204501
H30   H     H_    0.735930 0.814298 0.927483 0.214687
H31   H     H_    0.119653 0.201308 0.642332 0.111892
H32   H     H_    0.739616 0.286753 0.109201 0.110241
H33   H     H_    0.260384 0.713247 0.890799 0.110240
H34   H     H_    0.261259 0.890107 0.713057 0.109521
H35   H     H_    0.738741 0.109893 0.286943 0.109521
H36   H     H_    0.661719 0.202477 0.088675 0.095540
N1    N     N_3   0.235330 0.040649 0.247957 -0.558228
N2    N     N_3   0.764670 0.959351 0.752043 -0.558228
N3    N     N_3   0.027547 0.246063 0.237890 -0.554336
N4    N     N_3   0.972453 0.753937 0.762110 -0.554337
N5    N     N_3   0.237907 0.247160 0.034523 -0.551923
N6    N     N_3   0.762093 0.752840 0.965477 -0.551924
O1    O     O_R   0.124540 0.978640 0.385460 -0.467492
O2    O     O_R   0.124540 0.385460 0.978640 -0.478374
O3    O     O_R   0.021360 0.875460 0.614540 -0.497148
O4    O     O_R   0.978640 0.124540 0.385460 -0.497148
O5    O     O_R   0.013780 0.867370 0.487190 -0.518378
O6    O     O_R   0.986220 0.132630 0.512810 -0.518378
O7    O     O_R   0.867370 0.487190 0.013780 -0.525420
O8    O     O_R   0.132630 0.512810 0.986220 -0.525420
O9    O     O_R   0.487190 0.013780 0.867370 -0.525294
O10   O     O_R   0.512810 0.986220 0.132630 -0.525294
O11   O     O_R   0.512810 0.132630 0.986220 -0.525366
O12   O     O_R   0.875460 0.021360 0.614540 -0.467492
O13   O     O_R   0.487190 0.867370 0.013780 -0.525365
O14   O     O_R   0.986220 0.512810 0.132630 -0.523451
O15   O     O_R   0.013780 0.487190 0.867370 -0.523451
O16   O     O_R   0.132630 0.986220 0.512810 -0.538380
O17   O     O_R   0.867370 0.013780 0.487190 -0.538380
O18   O     O_R   0.978640 0.385460 0.124540 -0.482389
O19   O     O_R   0.021360 0.614540 0.875460 -0.482389
O20   O     O_R   0.385460 0.124540 0.978640 -0.488933
O21   O     O_R   0.614540 0.875460 0.021360 -0.488933
O22   O     O_R   0.614540 0.021360 0.875460 -0.489304
O23   O     O_R   0.385460 0.978640 0.124540 -0.489303
O24   O     O_R   0.875460 0.614540 0.021360 -0.478374

loop_
_geom_bond_atom_site_label_1
_geom_bond_atom_site_label_2
_ccdc_geom_bond_type
C2    C44   A    
C55   H13   S    
Cu1   O17   S    
C6    C45   A    
C14   O5    A    
C39   C65   A    
C74   C94   A    
C79   C93   A    
C48   C56   A    
C82   H34   S    
C50   C79   A    
C72   C85   A    
C75   C95   A    
H30   N6    S    
C20   O10   A    
C69   C83   A    
C60   H17   S    
C29   C70   A    
C80   C87   A    
C27   O12   A    
Cu2   O12   S    
C82   C88   A    
C58   C71   A    
C57   C59   A    
C54   C68   A    
C76   C98   A    
C21   O20   A    
C78   C91   A    
C55   C67   A    
C2    C32   A    
C50   H7    S    
C15   C55   A    
C15   C35   A    
C61   N1    S    
C3    C12   A    
C4    C96   A    
Cu3   O7    S    
C78   C96   A    
C41   C70   A    
C16   O6    A    
C1    C28   A    
C24   C38   S    
Cu5   Cu6   S    
C15   C29   A    
Cu4   O14   S    
Cu2   O3    S    
C36   C63   A    
C17   O7    A    
C8    C101  A    
C9    C95   A    
C12   C98   A    
C22   O21   A    
Cu1   O1    S    
C25   C34   S    
C52   H9    S    
C6    C31   A    
C28   C81   A    
C11   C31   A    
C33   C59   A    
C7    C30   A    
C40   C66   A    
C54   H11   S    
C64   N4    S    
C32   C48   A    
C44   C65   A    
C42   C81   A    
C41   C62   A    
C18   O2    A    
C63   N3    S    
C4    C69   A    
H18   N1    S    
C1    C34   A    
H28   N5    S    
C14   C45   S    
C38   C64   A    
C7    C51   A    
C77   C90   A    
C84   H3    S    
C21   O11   A    
C86   H36   S    
C7    C46   A    
C8    C94   A    
C68   C101  A    
C85   H2    S    
C86   C90   A    
C33   C92   A    
C16   C46   S    
C85   C89   A    
C53   H10   S    
Cu5   O23   S    
C27   C35   S    
C10   C96   A    
C98   C102  A    
C34   C61   A    
C6    C50   A    
C31   C37   A    
C56   H14   S    
C13   C99   A    
C77   C99   A    
C1    C54   A    
C17   C43   S    
C47   C70   A    
C13   C33   A    
C37   C38   A    
C18   O8    A    
C18   C44   S    
C57   H15   S    
C10   C30   A    
Cu1   O4    S    
Cu5   O9    S    
C20   O23   A    
C21   C39   S    
C94   C100  A    
C80   H35   S    
C22   C40   S    
C71   C84   A    
Cu4   O24   S    
H25   N4    S    
C19   O22   A    
C4    C11   A    
C24   O19   A    
C26   C58   A    
C42   C61   A    
H21   N2    S    
C67   C100  A    
H19   N1    S    
C91   H31   S    
C88   H1    S    
Cu1   O5    S    
Cu5   O13   S    
C26   C30   A    
C9    C100  A    
Cu6   O22   S    
C14   O3    A    
C16   O4    A    
C74   C87   A    
Cu4   O19   S    
H29   N6    S    
Cu2   O6    S    
C53   C76   A    
C52   C77   A    
H26   N4    S    
C17   O24   A    
C23   O14   A    
Cu6   O11   S    
C26   C36   A    
C47   H5    S    
Cu3   O2    S    
C56   C73   A    
H22   N3    S    
C83   H4    S    
H24   N3    S    
C79   C97   A    
C67   C80   A    
C43   C92   A    
C5    C97   A    
C47   C75   A    
C2    C53   A    
C20   C42   S    
C66   N6    S    
Cu6   O10   S    
C9    C29   A    
C25   O16   A    
C83   C91   A    
Cu3   Cu4   S    
C76   C89   A    
C45   C64   A    
C58   H16   S    
C51   H8    S    
Cu3   O18   S    
C11   C97   A    
C46   C63   A    
C25   O1    A    
C19   O9    A    
C24   O15   A    
C51   C78   A    
C68   C82   A    
C5    C10   A    
C5    C71   A    
Cu4   O8    S    
C22   O13   A    
H20   N2    S    
C72   C102  A    
C60   C69   A    
C43   C66   A    
C89   H33   S    
Cu3   O15   S    
C95   C101  A    
C49   H6    S    
C35   C62   A    
C49   C81   A    
C84   C93   A    
C57   C72   A    
C65   N5    S    
C3    C73   A    
C73   C86   A    
C37   C60   A    
C52   C92   A    
Cu2   O16   S    
C23   O18   A    
C3    C99   A    
C75   C88   A    
C87   H12   S    
C8    C28   A    
C23   C36   S    
C62   N2    S    
Cu6   O21   S    
Cu1   Cu2   S    
C40   C59   A    
C49   C74   A    
H27   N5    S    
C90   H32   S    
C13   C102  A    
C93   H23   S    
C12   C32   A    
C19   C41   S    
C27   O17   A    
C39   C48   A    
Cu5   O20   S    
