data_mof_unit_45745.cif
_audit_creation_date              2012-12-10T17:42:09-0500
_audit_creation_method            fapswitch 2.2
_symmetry_space_group_name_H-M    P1
_symmetry_Int_Tables_number       1
_space_group_crystal_system       triclinic
_cell_length_a                    15.043822
_cell_length_b                    13.694418
_cell_length_c                    10.773103
_cell_angle_alpha                 89.965392
_cell_angle_beta                  89.331894
_cell_angle_gamma                 90.387609
_cell_volume                      2219.23356585

loop_
_atom_site_label
_atom_site_type_symbol
_atom_type_description
_atom_site_fract_x
_atom_site_fract_y
_atom_site_fract_z
_atom_type_partial_charge
C1    C     C_R   0.328823 0.499607 0.499269 0.837285
C2    C     C_3   0.586356 0.546644 0.926871 -0.415964
C3    C     C_R   0.815136 0.564418 0.401553 -0.057017
C4    C     C_R   0.768488 0.499830 0.482314 -0.125845
C5    C     C_R   0.814139 0.432351 0.553690 -0.230258
C6    C     C_R   0.906217 0.431392 0.552839 0.117663
C7    C     C_R   0.954406 0.494180 0.471811 0.045260
C8    C     C_R   0.909390 0.556324 0.388216 -0.017209
C9    C     C_R   0.950560 0.368479 0.633360 -0.189202
C10   C     C_R   0.042716 0.368750 0.636912 -0.179757
C11   C     C_R   0.091592 0.431824 0.559833 0.123718
C12   C     C_R   0.500663 0.499821 0.259891 0.775286
C13   C     C_R   0.047755 0.494486 0.475776 0.071832
C14   C     C_R   0.097582 0.556991 0.396655 0.016650
C15   C     C_R   0.054387 0.610417 0.302858 -0.070512
C16   C     C_R   0.960281 0.607010 0.295088 -0.050816
C17   C     C_R   0.183895 0.432926 0.565708 -0.200033
C18   C     C_R   0.232729 0.498318 0.492701 -0.043617
C19   C     C_R   0.190489 0.559653 0.408913 -0.228473
C20   C     C_R   0.436091 0.792860 0.565823 0.051474
C21   C     C_R   0.435068 0.206079 0.563622 0.068305
C22   C     C_R   0.562746 0.793951 0.432439 0.047165
C23   C     C_R   0.563933 0.207178 0.434311 0.036261
C24   C     C_R   0.564625 0.896964 0.431364 -0.008524
C25   C     C_R   0.565191 0.104128 0.432213 -0.006091
C26   C     C_R   0.671426 0.500283 0.494481 0.789221
C27   C     C_R   0.499690 0.948222 0.499565 0.085604
C28   C     C_R   0.499731 0.051824 0.499542 0.091273
C29   C     C_R   0.434399 0.895909 0.567173 -0.008219
C30   C     C_R   0.433962 0.103071 0.566175 -0.004873
C31   C     C_R   0.629492 0.949692 0.363771 -0.147996
C32   C     C_R   0.629916 0.052351 0.364466 -0.179671
C33   C     C_R   0.368805 0.050327 0.633209 -0.163188
C34   C     C_R   0.369177 0.947667 0.634001 -0.159613
C35   C     C_R   0.499398 0.499712 0.740630 0.840029
C36   C     C_3   0.413455 0.545738 0.075657 -0.399824
C37   C     C_3   0.502991 0.392268 0.074500 -0.388875
C38   C     C_3   0.418870 0.561303 0.933691 0.277656
C39   C     C_3   0.498225 0.389293 0.931894 0.284167
C40   C     C_3   0.582838 0.554232 0.070054 -0.384675
C41   C     C_3   0.500193 0.498703 0.122549 0.030477
C42   C     C_3   0.498935 0.498486 0.878959 -0.032524
Cu1   Cu    Cu3+1 0.499990 0.597420 0.500010 0.970995
Cu2   Cu    Cu3+1 0.499990 0.402580 0.500010 0.973810
H1    H     H_    0.400741 0.615883 0.124358 0.197953
H2    H     H_    0.564929 0.357372 0.107569 0.190440
H3    H     H_    0.075803 0.320238 0.700818 0.162685
H4    H     H_    0.217874 0.384540 0.629027 0.162967
H5    H     H_    0.231618 0.606669 0.351068 0.128235
H6    H     H_    0.386259 0.751654 0.617161 0.164656
H7    H     H_    0.383870 0.246429 0.611984 0.151814
H8    H     H_    0.611011 0.753670 0.378700 0.149184
H9    H     H_    0.613721 0.248394 0.382810 0.129083
H10   H     H_    0.680000 0.911571 0.310598 0.184986
H11   H     H_    0.680751 0.091215 0.311836 0.154354
H12   H     H_    0.317690 0.088451 0.685229 0.163155
H13   H     H_    0.318363 0.908776 0.686647 0.168541
H14   H     H_    0.356216 0.497204 0.099816 0.184065
H15   H     H_    0.447170 0.349554 0.116557 0.201297
H16   H     H_    0.580078 0.632408 0.097850 0.206493
H17   H     H_    0.644734 0.523172 0.109070 0.152329
H18   H     H_    0.598077 0.620035 0.885903 0.217258
H19   H     H_    0.645552 0.504113 0.898007 0.194109
H20   H     H_    0.777508 0.383496 0.615387 0.171587
H21   H     H_    0.913799 0.319814 0.694878 0.161469
N1    N     N_R   0.499930 0.743810 0.499950 -0.196532
N2    N     N_R   0.499930 0.256190 0.499950 -0.184734
O1    O     O_R   0.370250 0.582280 0.500040 -0.582678
O2    O     O_R   0.370250 0.417720 0.500040 -0.589100
O3    O     O_R   0.499970 0.582270 0.317700 -0.596542
O4    O     O_R   0.499970 0.417730 0.317700 -0.593575
O5    O     O_R   0.629730 0.582260 0.499980 -0.579342
O6    O     O_R   0.629730 0.417740 0.499980 -0.579196
O7    O     O_R   0.500000 0.582270 0.682320 -0.557345
O8    O     O_R   0.500000 0.417730 0.682320 -0.541960
C43   C     C_2   0.108505 0.664509 0.208585 0.465763
H22   H     H_    0.156187 0.719446 0.237689 0.060883
O9    O     O_2   0.102153 0.645617 0.098274 -0.484165
C44   C     C_2   0.916582 0.647841 0.183376 0.540811
H23   H     H_    0.864742 0.606168 0.137786 0.012996
O10   O     O_2   0.935693 0.729105 0.144204 -0.482124
I1    I     I_    0.290154 0.535624 0.852683 -0.303055
I2    I     I_    0.384924 0.299077 0.883103 -0.370754
I3    I     I_    0.433194 0.718066 0.902491 -0.362957
I4    I     I_    0.610332 0.301547 0.866777 -0.369785
C45   C     C_2   0.764879 0.643350 0.340332 0.341437
H24   H     H_    0.705159 0.626146 0.289070 0.035800
O11   O     O_2   0.788280 0.728476 0.350935 -0.521855

loop_
_geom_bond_atom_site_label_1
_geom_bond_atom_site_label_2
_ccdc_geom_bond_type
C35   O7    A    
Cu1   O5    S    
C40   H16   S    
C27   C29   A    
C26   O5    A    
C24   C27   A    
C26   O6    A    
C6    C9    A    
C7    C8    A    
C25   C28   A    
C35   O8    A    
C1    C18   S    
C20   N1    A    
C43   O9    D    
C38   C42   S    
C36   H14   S    
C5    C6    A    
C45   O11   D    
C15   C16   A    
C1    O1    A    
Cu2   O4    S    
C17   C18   A    
C18   C19   A    
C23   N2    A    
C35   C42   S    
C22   N1    A    
C20   H6    S    
Cu1   O1    S    
C34   H13   S    
C17   H4    S    
C9    C10   A    
C32   H11   S    
C33   H12   S    
C15   C43   S    
C8    C16   A    
C13   C14   A    
C38   I1    S    
C3    C45   S    
C36   C41   S    
C23   H9    S    
C39   C42   S    
C20   C29   A    
Cu2   O2    S    
C43   H22   S    
C3    C8    A    
C44   O10   D    
C45   H24   S    
C29   C34   A    
C1    O2    A    
C40   H17   S    
C5    H20   S    
Cu1   O7    S    
Cu2   O8    S    
Cu1   Cu2   S    
C12   C41   S    
C19   H5    S    
C31   C32   A    
C33   C34   A    
C36   H1    S    
C37   H15   S    
C40   C41   S    
C12   O4    A    
Cu1   O3    S    
C22   C24   A    
C39   I4    S    
C3    C4    A    
C21   H7    S    
C2    H19   S    
C22   H8    S    
C12   O3    A    
C11   C17   A    
C30   C33   A    
C38   I3    S    
C14   C19   A    
C4    C5    A    
C4    C26   S    
C6    C7    A    
C21   C30   A    
C16   C44   S    
C36   C38   S    
C24   C31   A    
C39   I2    S    
C37   C39   S    
C11   C13   A    
C2    C42   S    
Cu1   N1    S    
C28   C30   A    
C23   C25   A    
C31   H10   S    
C37   C41   S    
Cu2   O6    S    
C9    H21   S    
C10   C11   A    
C44   H23   S    
C2    C40   S    
C7    C13   A    
C10   H3    S    
C14   C15   A    
Cu2   N2    S    
C37   H2    S    
C21   N2    A    
C2    H18   S    
C27   C28   A    
C25   C32   A    
