data_mof_unit_35085.cif
_audit_creation_date              2012-12-11T15:55:39-0500
_audit_creation_method            fapswitch 2.2
_symmetry_space_group_name_H-M    P1
_symmetry_Int_Tables_number       1
_space_group_crystal_system       triclinic
_cell_length_a                    6.934198
_cell_length_b                    14.544972
_cell_length_c                    16.066853
_cell_angle_alpha                 89.951154
_cell_angle_beta                  89.928512
_cell_angle_gamma                 89.997643
_cell_volume                      1620.4642414

loop_
_atom_site_label
_atom_site_type_symbol
_atom_type_description
_atom_site_fract_x
_atom_site_fract_y
_atom_site_fract_z
_atom_type_partial_charge
O1    O     O_R   0.505680 0.583900 0.413320 -0.541010
O2    O     O_R   0.176010 0.594950 0.586080 -0.529002
O3    O     O_R   0.005680 0.416100 0.586680 -0.539818
C1    C     C_R   0.345004 0.619474 0.613159 0.730101
O4    O     O_R   0.175960 0.594930 0.413930 -0.534385
O5    O     O_R   0.005640 0.416080 0.413300 -0.544585
C2    C     C_R   0.344985 0.617217 0.385178 0.721250
O6    O     O_R   0.505720 0.583920 0.586700 -0.538065
O7    O     O_3   0.339190 0.441320 0.500000 -0.378601
V1    V     V_3+5 0.064350 0.510890 0.500000 1.445861
O8    O     O_R   0.675920 0.405050 0.413920 -0.546017
C3    C     C_R   0.845027 0.382865 0.384925 0.682409
O9    O     O_R   0.675960 0.405070 0.586070 -0.544759
C4    C     C_R   0.844694 0.383086 0.614933 0.694703
V2    V     V_3+5 0.564340 0.489110 0.500000 1.420063
O10   O     O_3   0.839370 0.558680 0.500000 -0.361511
C5    C     C_R   0.997793 0.321725 0.745664 0.076291
C6    C     C_R   0.852168 0.317432 0.685381 -0.097349
C7    C     C_R   0.705599 0.251522 0.697483 -0.148881
H1    H     H_    0.586782 0.246897 0.654115 0.116118
C8    C     C_R   0.717556 0.186769 0.762692 -0.121306
H2    H     H_    0.607273 0.134380 0.767584 0.110846
C9    C     C_R   0.875585 0.186540 0.818023 -0.110626
C10   C     C_R   0.008941 0.258288 0.810241 0.112541
C11   C     C_3   0.224585 0.257607 0.808236 -0.190796
C12   C     C_3   0.211813 0.327677 0.737438 -0.449310
H3    H     H_    0.284694 0.190242 0.788568 0.096639
H4    H     H_    0.263119 0.300391 0.676760 0.169133
H5    H     H_    0.266379 0.397454 0.753163 0.177035
C13   C     C_R   0.046772 0.225272 0.216922 -0.132267
H6    H     H_    0.187457 0.207064 0.192707 0.122006
C14   C     C_R   0.035715 0.288812 0.282187 -0.149341
H7    H     H_    0.168413 0.317751 0.306075 0.118254
C15   C     C_R   0.856213 0.314656 0.315975 -0.045784
C16   C     C_R   0.688059 0.275320 0.282516 -0.149304
H8    H     H_    0.547365 0.293566 0.306692 0.116299
C17   C     C_R   0.699116 0.211776 0.217256 -0.147819
H9    H     H_    0.566410 0.182870 0.193338 0.120034
C18   C     C_R   0.878638 0.185799 0.183580 -0.044812
C19   C     C_R   0.209278 0.758185 0.691940 -0.009326
C20   C     C_R   0.220265 0.817846 0.760784 -0.196490
H10   H     H_    0.108643 0.869126 0.769688 0.139447
C21   C     C_R   0.378582 0.816130 0.815218 -0.071517
C22   C     C_R   0.526281 0.752239 0.800925 -0.094340
H11   H     H_    0.650397 0.749423 0.841718 0.123414
C23   C     C_R   0.513602 0.689760 0.734943 -0.096456
H12   H     H_    0.627939 0.639680 0.727453 0.130453
C24   C     C_R   0.355394 0.690742 0.679941 -0.124619
C25   C     C_R   0.205115 0.689443 0.257112 -0.192558
H13   H     H_    0.082692 0.643564 0.263329 0.145160
C26   C     C_R   0.216954 0.748498 0.187672 -0.017697
C27   C     C_R   0.377744 0.808746 0.179462 -0.112606
C28   C     C_R   0.527132 0.802941 0.238458 -0.101739
H14   H     H_    0.651637 0.847653 0.233859 0.131038
C29   C     C_R   0.517288 0.740711 0.304817 -0.116867
H15   H     H_    0.635485 0.737941 0.348772 0.121189
C30   C     C_R   0.355004 0.684300 0.315537 -0.070089
O11   O     O_R   0.229200 0.915950 0.913350 -0.536142
O12   O     O_R   0.559090 0.905000 0.086080 -0.536397
O13   O     O_R   0.729280 0.083880 0.086680 -0.545515
C31   C     C_R   0.389510 0.880288 0.112973 0.726745
O14   O     O_R   0.558920 0.904980 0.913920 -0.546560
O15   O     O_R   0.729110 0.083860 0.913300 -0.539385
C32   C     C_R   0.389977 0.882885 0.885022 0.713933
O16   O     O_R   0.229360 0.915970 0.086730 -0.534411
O17   O     O_3   0.395680 0.058580 0.000030 -0.369966
V3    V     V_3+5 0.670570 0.989070 0.999990 1.450422
O18   O     O_R   0.058820 0.094950 0.913870 -0.541520
C33   C     C_R   0.889765 0.116760 0.884915 0.710351
O19   O     O_R   0.058990 0.094970 0.086020 -0.538914
C34   C     C_R   0.889862 0.117311 0.114875 0.696724
V4    V     V_3+5 0.170560 0.010930 0.999930 1.463148
O20   O     O_3   0.895590 0.941310 0.999960 -0.365523
C35   C     C_2   0.050932 0.773282 0.631346 0.746671
O21   O     O_2   0.889850 0.794010 0.656100 -0.571630
O22   O     O_R   0.087678 0.768259 0.545848 -0.660908
H16   H     H_    0.968468 0.780453 0.511063 0.289336
C36   C     C_2   0.066585 0.739965 0.122359 0.759762
O23   O     O_2   0.899715 0.723284 0.141924 -0.568142
O24   O     O_R   0.116933 0.746528 0.038230 -0.657665
H17   H     H_    0.002180 0.738588 0.999850 0.294186
C37   C     C_2   0.316372 0.295478 0.886062 0.814800
O25   O     O_2   0.224803 0.300236 0.951070 -0.559453
O26   O     O_R   0.508823 0.323771 0.883653 -0.660532
H18   H     H_    0.556258 0.346833 0.939521 0.295949

loop_
_geom_bond_atom_site_label_1
_geom_bond_atom_site_label_2
_ccdc_geom_bond_type
C29   H15   S    
C20   H10   S    
C9    C33   S    
C7    H1    S    
C1    O6    A    
C28   H14   S    
C22   H11   S    
C35   O22   S    
O14   V3    S    
C5    C12   S    
C7    C8    A    
C6    C7    A    
C27   C31   S    
O5    C3    A    
C13   H6    S    
C36   O24   S    
V2    O10   S    
C25   C30   A    
C15   C16   A    
C4    C6    S    
O14   C32   A    
O12   V3    S    
O8    V2    S    
O26   H18   S    
O17   V4    S    
O15   C33   A    
O13   V3    S    
O18   C33   A    
C25   C26   A    
C9    C10   A    
O19   C34   A    
V3    O20   S    
O7    V1    S    
O17   V3    S    
O9    C4    A    
C20   C21   A    
C22   C23   A    
C21   C32   S    
C23   C24   A    
C28   C29   A    
O11   C32   A    
O15   V3    S    
O12   C31   A    
C5    C10   A    
C35   O21   D    
C26   C27   A    
C10   C11   S    
O4    C2    A    
C36   O23   D    
O24   H17   S    
O13   C34   A    
C11   C12   S    
C16   H8    S    
C14   C15   A    
O2    C1    A    
C21   C22   A    
C17   H9    S    
O18   V4    S    
C5    C6    A    
C29   C30   A    
O22   H16   S    
O3    C4    A    
O1    V2    S    
C19   C20   A    
C25   H13   S    
O6    V2    S    
C37   O26   S    
O9    V2    S    
C11   C37   S    
C3    C15   S    
O2    V1    S    
C27   C28   A    
C1    C24   S    
C19   C24   A    
C23   H12   S    
C16   C17   A    
O1    C2    A    
V4    O20   S    
O5    V1    S    
O8    C3    A    
C11   H3    S    
O16   V4    S    
C12   H4    S    
C14   H7    S    
C8    C9    A    
O7    V2    S    
C26   C36   S    
O4    V1    S    
C17   C18   A    
O3    V1    S    
V1    O10   S    
C13   C14   A    
O11   V4    S    
C19   C35   S    
C13   C18   A    
C31   O16   A    
C12   H5    S    
C37   O25   D    
C18   C34   S    
O19   V4    S    
C8    H2    S    
C2    C30   S    
