data_mof_unit_49284.cif
_audit_creation_date              2012-12-10T18:09:04-0500
_audit_creation_method            fapswitch 2.2
_symmetry_space_group_name_H-M    P1
_symmetry_Int_Tables_number       1
_space_group_crystal_system       triclinic
_cell_length_a                    12.600909
_cell_length_b                    13.208126
_cell_length_c                    13.659307
_cell_angle_alpha                 91.657451
_cell_angle_beta                  96.26373
_cell_angle_gamma                 96.874443
_cell_volume                      2241.52971997

loop_
_atom_site_label
_atom_site_type_symbol
_atom_type_description
_atom_site_fract_x
_atom_site_fract_y
_atom_site_fract_z
_atom_type_partial_charge
C1    C     C_R   0.559076 0.691241 0.513315 0.854241
C2    C     C_1   0.527843 0.492585 0.217089 -0.186542
C3    C     C_R   0.271450 0.060071 0.520548 0.177455
C4    C     C_R   0.404068 0.200671 0.489400 -0.083976
C5    C     C_R   0.690039 0.831355 0.471947 -0.226421
C6    C     C_R   0.702277 0.923108 0.425330 -0.190463
C7    C     C_R   0.619446 0.985620 0.417786 0.110336
C8    C     C_R   0.532170 0.964309 0.477019 0.062031
C9    C     C_R   0.519750 0.869882 0.522679 0.062919
C10   C     C_R   0.454250 0.030707 0.489872 0.026959
C11   C     C_R   0.353705 0.995054 0.522663 0.142365
C12   C     C_R   0.516982 0.496370 0.318225 0.896802
C13   C     C_R   0.343551 0.900569 0.566158 -0.249781
C14   C     C_R   0.429354 0.843761 0.573952 -0.189744
C15   C     C_R   0.480769 0.134461 0.485136 -0.265970
C16   C     C_R   0.297705 0.163110 0.500875 -0.257761
C17   C     C_R   0.594242 0.800304 0.511307 -0.112933
C18   C     C_R   0.897292 0.346831 0.632348 -0.307883
C19   C     C_R   0.212488 0.629373 0.387208 0.027490
C20   C     C_R   0.110933 0.658772 0.364696 -0.266829
C21   C     C_R   0.024776 0.610013 0.407753 -0.192093
C22   C     C_R   0.040333 0.531166 0.473884 0.017750
C23   C     C_R   0.440417 0.309044 0.490188 0.876499
C24   C     C_R   0.145610 0.504556 0.494707 0.234954
C25   C     C_R   0.956325 0.478160 0.520258 -0.014735
C26   C     C_R   0.979194 0.400147 0.586244 0.195887
C27   C     C_R   0.083510 0.376142 0.605699 -0.297763
C28   C     C_R   0.165527 0.428032 0.560756 -0.212588
C29   C     C_R   0.849662 0.498920 0.503773 -0.049745
C30   C     C_R   0.793549 0.371110 0.612740 0.012156
C31   C     C_R   0.482922 0.503379 0.681760 0.876561
C32   C     C_1   0.471432 0.505452 0.782787 -0.180102
C33   C     C_2   0.456412 0.507955 0.970943 -0.163782
C34   C     C_2   0.541666 0.486927 0.028739 -0.162283
C35   C     C_1   0.536745 0.489273 0.131445 0.003304
C36   C     C_1   0.461914 0.507128 0.868331 0.004280
H1    H     H_    0.614391 0.468859 0.999530 0.158620
H2    H     H_    0.422375 0.776677 0.617631 0.166479
H3    H     H_    0.728645 0.330656 0.647229 0.135678
H4    H     H_    0.101940 0.317034 0.656051 0.151639
H5    H     H_    0.913340 0.287131 0.682696 0.143302
H6    H     H_    0.824113 0.556033 0.454949 0.124344
H7    H     H_    0.280114 0.667163 0.354442 0.142346
H8    H     H_    0.947713 0.635894 0.388025 0.135153
H9    H     H_    0.099042 0.719255 0.314319 0.150928
H10   H     H_    0.243969 0.406769 0.579449 0.212699
H11   H     H_    0.383771 0.526232 0.000171 0.158712
H12   H     H_    0.237584 0.215163 0.502112 0.159054
H13   H     H_    0.273019 0.872765 0.600513 0.161149
H14   H     H_    0.564355 0.164597 0.488261 0.170604
H15   H     H_    0.749290 0.779198 0.465339 0.160183
H16   H     H_    0.771968 0.939519 0.385842 0.138286
N1    N     N_R   0.773270 0.445590 0.549770 -0.102812
N2    N     N_R   0.227520 0.553880 0.450750 -0.131041
O1    O     O_R   0.631100 0.627590 0.523760 -0.615120
O2    O     O_R   0.455900 0.662370 0.491970 -0.617989
O3    O     O_R   0.600200 0.480080 0.377830 -0.610777
O4    O     O_R   0.425000 0.514870 0.346040 -0.608763
O5    O     O_R   0.544100 0.337630 0.508030 -0.624294
O6    O     O_R   0.368900 0.372410 0.476240 -0.636799
O7    O     O_R   0.575000 0.485130 0.653960 -0.605458
O8    O     O_R   0.399800 0.519920 0.622170 -0.633441
Zn1   Zn    Zn3+2 0.616980 0.476780 0.521230 0.938119
Zn2   Zn    Zn3+2 0.383020 0.523220 0.478770 0.928458
C37   C     C_3   0.157742 0.023869 0.541844 -0.426449
C38   C     C_3   0.098806 0.949167 0.460746 -0.867593
H17   H     H_    0.095774 0.985913 0.388522 0.259919
H18   H     H_    0.139405 0.879451 0.455646 0.263448
H19   H     H_    0.015150 0.926185 0.477336 0.248252
H20   H     H_    0.158548 0.988404 0.614530 0.197259
H21   H     H_    0.110488 0.089409 0.546687 0.206400
C39   C     C_3   0.619999 0.059774 0.333758 -0.429303
C40   C     C_3   0.519884 0.035788 0.258108 -0.327359
C41   C     C_3   0.523270 0.108547 0.173354 -0.873369
H22   H     H_    0.525374 0.188608 0.201623 0.265920
H23   H     H_    0.595312 0.101825 0.134587 0.259889
H24   H     H_    0.450275 0.089191 0.119813 0.249599
H25   H     H_    0.515604 0.956114 0.227892 0.221914
H26   H     H_    0.445509 0.042727 0.293061 0.234383
H27   H     H_    0.630751 0.140687 0.359435 0.200179
H28   H     H_    0.691126 0.053464 0.293349 0.197058

loop_
_geom_bond_atom_site_label_1
_geom_bond_atom_site_label_2
_ccdc_geom_bond_type
C2    C35   T    
C38   H18   S    
C29   H6    S    
C34   H1    S    
C11   C13   A    
C40   C41   S    
C31   O7    A    
C19   C20   A    
C18   C26   A    
C2    C12   S    
C16   H12   S    
C7    C8    A    
C23   O5    A    
C28   H10   S    
C26   C27   A    
C41   H23   S    
C32   C36   T    
C1    O2    A    
C10   C15   A    
C5    C6    A    
C38   H19   S    
C5    C17   A    
C24   N2    A    
C37   H20   S    
C33   C36   S    
C34   C35   S    
C15   H14   S    
O7    Zn1   S    
O8    Zn2   S    
C8    C9    A    
C41   H24   S    
O1    Zn1   S    
C40   H25   S    
O2    Zn2   S    
C18   C30   A    
C39   H28   S    
C12   O4    A    
C38   H17   S    
C13   C14   A    
C25   C29   A    
C31   O8    A    
C3    C37   S    
C19   H7    S    
O3    Zn1   S    
O4    Zn2   S    
C23   O6    A    
C30   N1    A    
C41   H22   S    
C18   H5    S    
C7    C39   S    
C4    C23   S    
C25   C26   A    
C37   H21   S    
C22   C25   A    
C29   N1    A    
C4    C16   A    
C9    C14   A    
C14   H2    S    
C21   H8    S    
C31   C32   S    
C27   H4    S    
C33   C34   D    
C40   H26   S    
C13   H13   S    
C12   O3    A    
C19   N2    A    
C9    C17   A    
C33   H11   S    
C22   C24   A    
C20   H9    S    
C1    C17   S    
C24   C28   A    
C39   C40   S    
C6    C7    A    
O5    Zn1   S    
O6    Zn2   S    
C4    C15   A    
C1    O1    A    
C39   H27   S    
N1    Zn1   S    
N2    Zn2   S    
C30   H3    S    
C3    C11   A    
C10   C11   A    
C20   C21   A    
C8    C10   A    
C37   C38   S    
C27   C28   A    
C5    H15   S    
C6    H16   S    
C21   C22   A    
C3    C16   A    
