data_mof_unit_64076.cif
_audit_creation_date              2012-12-10T20:33:50-0500
_audit_creation_method            fapswitch 2.2
_symmetry_space_group_name_H-M    P1
_symmetry_Int_Tables_number       1
_space_group_crystal_system       tetragonal
_cell_length_a                    28.170105
_cell_length_b                    28.170105
_cell_length_c                    27.722881
_cell_angle_alpha                 90.0
_cell_angle_beta                  90.0
_cell_angle_gamma                 90.0
_cell_volume                      21999.6257229

loop_
_atom_site_label
_atom_site_type_symbol
_atom_type_description
_atom_site_fract_x
_atom_site_fract_y
_atom_site_fract_z
_atom_type_partial_charge
C1    C     C_R   0.198929 0.698929 0.750000 -0.085861
C2    C     C_R   0.801071 0.698929 0.750000 -0.085861
C3    C     C_R   0.795932 0.341210 0.220923 -0.081464
C4    C     C_R   0.341210 0.204068 0.779077 -0.081463
C5    C     C_R   0.658790 0.795932 0.220923 -0.081463
C6    C     C_R   0.795932 0.341210 0.779077 -0.081463
C7    C     C_R   0.204068 0.658790 0.220923 -0.081464
C8    C     C_R   0.123628 0.669140 0.720769 0.343772
C9    C     C_R   0.876372 0.330860 0.279231 0.343772
C10   C     C_R   0.669140 0.876372 0.720770 0.343771
C11   C     C_R   0.330859 0.123628 0.279230 0.343771
C12   C     C_R   0.876372 0.330860 0.720769 0.343772
C13   C     C_R   0.698929 0.198929 0.250000 -0.085861
C14   C     C_R   0.123628 0.669140 0.279231 0.343772
C15   C     C_R   0.330859 0.123628 0.720770 0.343772
C16   C     C_R   0.669140 0.876372 0.279230 0.343772
C17   C     C_R   0.123628 0.330859 0.279230 0.343771
C18   C     C_R   0.876372 0.669140 0.720770 0.343771
C19   C     C_R   0.669140 0.123628 0.279231 0.343772
C20   C     C_R   0.330860 0.876372 0.720769 0.343772
C21   C     C_R   0.876372 0.669140 0.279230 0.343772
C22   C     C_R   0.123628 0.330859 0.720770 0.343772
C23   C     C_R   0.330860 0.876372 0.279231 0.343772
C24   C     C_R   0.301071 0.801071 0.750000 -0.085861
C25   C     C_R   0.669140 0.123628 0.720769 0.343772
C26   C     C_R   0.623628 0.169140 0.220769 0.343772
C27   C     C_R   0.376372 0.830860 0.779231 0.343772
C28   C     C_R   0.169140 0.376372 0.220770 0.343771
C29   C     C_R   0.830859 0.623628 0.779230 0.343771
C30   C     C_R   0.376372 0.830860 0.220769 0.343772
C31   C     C_R   0.623628 0.169140 0.779231 0.343772
C32   C     C_R   0.830859 0.623628 0.220770 0.343772
C33   C     C_R   0.169140 0.376372 0.779230 0.343772
C34   C     C_R   0.623628 0.830859 0.779230 0.343771
C35   C     C_R   0.801071 0.698929 0.250000 -0.085861
C36   C     C_R   0.376372 0.169140 0.220770 0.343771
C37   C     C_R   0.169140 0.623628 0.779231 0.343772
C38   C     C_R   0.830860 0.376372 0.220769 0.343772
C39   C     C_R   0.376372 0.169140 0.779230 0.343772
C40   C     C_R   0.623628 0.830859 0.220770 0.343772
C41   C     C_R   0.830860 0.376372 0.779231 0.343772
C42   C     C_R   0.169140 0.623628 0.220769 0.343772
C43   C     C_R   0.128329 0.628329 0.750000 0.034595
C44   C     C_R   0.871671 0.371671 0.250000 0.034595
C45   C     C_R   0.628329 0.871671 0.750000 0.034596
C46   C     C_R   0.198929 0.301071 0.750000 -0.085861
C47   C     C_R   0.371671 0.128329 0.250000 0.034596
C48   C     C_R   0.871671 0.371671 0.750000 0.034595
C49   C     C_R   0.128329 0.628329 0.250000 0.034595
C50   C     C_R   0.371671 0.128329 0.750000 0.034595
C51   C     C_R   0.628329 0.871671 0.250000 0.034595
C52   C     C_R   0.128329 0.371671 0.250000 0.034596
C53   C     C_R   0.871671 0.628329 0.750000 0.034596
C54   C     C_R   0.628329 0.128329 0.250000 0.034595
C55   C     C_R   0.371671 0.871671 0.750000 0.034595
C56   C     C_R   0.871671 0.628329 0.250000 0.034595
C57   C     C_R   0.301071 0.801071 0.250000 -0.085861
C58   C     C_R   0.128329 0.371671 0.750000 0.034595
C59   C     C_R   0.371671 0.871671 0.250000 0.034595
C60   C     C_R   0.628329 0.128329 0.750000 0.034595
C61   C     C_R   0.698929 0.198929 0.750000 -0.085861
C62   C     C_1   0.234912 0.734912 0.750000 0.019311
C63   C     C_1   0.765088 0.265088 0.250000 0.019311
C64   C     C_1   0.734912 0.765088 0.750000 0.019310
C65   C     C_R   0.801071 0.301071 0.250000 -0.085861
C66   C     C_1   0.265088 0.234912 0.250000 0.019310
C67   C     C_1   0.765088 0.265088 0.750000 0.019311
C68   C     C_1   0.234912 0.734912 0.250000 0.019311
C69   C     C_1   0.265088 0.234912 0.750000 0.019310
C70   C     C_1   0.734912 0.765088 0.250000 0.019310
C71   C     C_1   0.234912 0.265088 0.250000 0.019310
C72   C     C_1   0.765088 0.734912 0.750000 0.019310
C73   C     C_1   0.734912 0.234912 0.250000 0.019311
C74   C     C_1   0.265088 0.765088 0.750000 0.019311
C75   C     C_1   0.765088 0.734912 0.250000 0.019310
C76   C     C_R   0.698929 0.801071 0.750000 -0.085861
C77   C     C_1   0.234912 0.265088 0.750000 0.019310
C78   C     C_1   0.265088 0.765088 0.250000 0.019311
C79   C     C_1   0.734912 0.234912 0.750000 0.019311
C80   C     C_1   0.500000 0.000000 0.930953 0.052920
C81   C     C_1   0.500000 0.000000 0.069047 0.052920
C82   C     C_1   0.000000 0.500000 0.930953 0.052920
C83   C     C_1   0.000000 0.500000 0.069047 0.052920
C84   C     C_1   0.000000 0.500000 0.430953 0.052920
C85   C     C_1   1.000000 0.500000 0.569047 0.052920
C86   C     C_1   0.500000 0.000000 0.430953 0.052920
C87   C     C_R   0.301071 0.198929 0.250000 -0.085861
C88   C     C_1   0.500000 0.000000 0.569047 0.052920
C89   C     C_1   0.500000 0.000000 0.974493 0.006352
C90   C     C_1   0.500000 0.000000 0.025507 0.006352
C91   C     C_1   1.000000 0.500000 0.974493 0.006352
C92   C     C_1   0.000000 0.500000 0.025507 0.006352
C93   C     C_1   0.000000 0.500000 0.474493 0.006352
C94   C     C_1   0.000000 0.500000 0.525507 0.006352
C95   C     C_1   0.500000 0.000000 0.474493 0.006352
C96   C     C_1   0.500000 1.000000 0.525507 0.006352
C97   C     C_R   0.500000 0.000000 0.620900 0.503857
C98   C     C_R   0.801071 0.301071 0.750000 -0.085861
C99   C     C_R   0.500000 0.000000 0.379100 0.503857
C100  C     C_R   1.000000 0.500000 0.620900 0.503857
C101  C     C_R   0.000000 0.500000 0.379100 0.503857
C102  C     C_R   0.000000 0.500000 0.120900 0.503857
C103  C     C_R   1.000000 0.500000 0.879100 0.503857
C104  C     C_R   0.500000 0.000000 0.120900 0.503857
C105  C     C_R   0.500000 1.000000 0.879100 0.503857
C106  C     C_R   0.591119 0.908881 0.750000 0.549853
C107  C     C_R   0.408881 0.091119 0.250000 0.549853
C108  C     C_R   0.908881 0.408881 0.750000 0.549853
C109  C     C_R   0.198929 0.698929 0.250000 -0.085861
C110  C     C_R   0.091119 0.591119 0.250000 0.549853
C111  C     C_R   0.408881 0.091119 0.750000 0.549853
C112  C     C_R   0.591119 0.908881 0.250000 0.549853
C113  C     C_R   0.091119 0.591119 0.750000 0.549853
C114  C     C_R   0.908881 0.408881 0.250000 0.549853
C115  C     C_R   0.591119 0.091119 0.250000 0.549853
C116  C     C_R   0.408881 0.908881 0.750000 0.549853
C117  C     C_R   0.908881 0.591119 0.250000 0.549853
C118  C     C_R   0.091119 0.408881 0.750000 0.549853
C119  C     C_R   0.408881 0.908881 0.250000 0.549853
C120  C     C_R   0.301071 0.198929 0.750000 -0.085861
C121  C     C_R   0.591119 0.091119 0.750000 0.549853
C122  C     C_R   0.091119 0.408881 0.250000 0.549853
C123  C     C_R   0.908881 0.591119 0.750000 0.549853
C124  C     C_R   0.158790 0.704068 0.720923 -0.081464
C125  C     C_R   0.841210 0.295932 0.279077 -0.081463
C126  C     C_R   0.704068 0.841210 0.720923 -0.081463
C127  C     C_R   0.295932 0.158790 0.279077 -0.081463
C128  C     C_R   0.841210 0.295932 0.720923 -0.081464
C129  C     C_R   0.158790 0.704068 0.279077 -0.081463
C130  C     C_R   0.295932 0.158790 0.720923 -0.081463
C131  C     C_R   0.698929 0.801071 0.250000 -0.085861
C132  C     C_R   0.704068 0.841210 0.279077 -0.081463
C133  C     C_R   0.158790 0.295932 0.279077 -0.081463
C134  C     C_R   0.841210 0.704068 0.720923 -0.081463
C135  C     C_R   0.704068 0.158790 0.279077 -0.081463
C136  C     C_R   0.295932 0.841210 0.720923 -0.081464
C137  C     C_R   0.841210 0.704068 0.279077 -0.081463
C138  C     C_R   0.158790 0.295932 0.720923 -0.081463
C139  C     C_R   0.295932 0.841210 0.279077 -0.081463
C140  C     C_R   0.704068 0.158790 0.720923 -0.081463
C141  C     C_R   0.658790 0.204068 0.220923 -0.081464
C142  C     C_R   0.198929 0.301071 0.250000 -0.085861
C143  C     C_R   0.341210 0.795932 0.779077 -0.081463
C144  C     C_R   0.204068 0.341210 0.220923 -0.081463
C145  C     C_R   0.795932 0.658790 0.779077 -0.081463
C146  C     C_R   0.341210 0.795932 0.220923 -0.081464
C147  C     C_R   0.658790 0.204068 0.779077 -0.081463
C148  C     C_R   0.795932 0.658790 0.220923 -0.081463
C149  C     C_R   0.204068 0.341210 0.779077 -0.081463
C150  C     C_R   0.658790 0.795932 0.779077 -0.081463
C151  C     C_R   0.341210 0.204068 0.220923 -0.081463
C152  C     C_R   0.204068 0.658790 0.779077 -0.081463
F1    F     F_    0.085119 0.675593 0.692073 -0.562680
F2    F     F_    0.914881 0.675594 0.692073 -0.562680
F3    F     F_    0.675593 0.085119 0.307927 -0.562680
F4    F     F_    0.324406 0.914880 0.692073 -0.562680
F5    F     F_    0.914880 0.675594 0.307927 -0.562680
F6    F     F_    0.085119 0.324406 0.692073 -0.562680
F7    F     F_    0.324406 0.914880 0.307927 -0.562680
F8    F     F_    0.675593 0.085119 0.692073 -0.562680
F9    F     F_    0.585119 0.175594 0.192073 -0.562680
F10   F     F_    0.414880 0.824406 0.807927 -0.562680
F11   F     F_    0.175594 0.414881 0.192073 -0.562680
F12   F     F_    0.914880 0.324406 0.307927 -0.562680
F13   F     F_    0.824406 0.585119 0.807927 -0.562680
F14   F     F_    0.414880 0.824406 0.192073 -0.562680
F15   F     F_    0.585119 0.175594 0.807927 -0.562680
F16   F     F_    0.824406 0.585119 0.192073 -0.562680
F17   F     F_    0.175594 0.414880 0.807927 -0.562680
F18   F     F_    0.585119 0.824406 0.807927 -0.562680
F19   F     F_    0.414881 0.175594 0.192073 -0.562680
F20   F     F_    0.175594 0.585119 0.807927 -0.562680
F21   F     F_    0.824406 0.414880 0.192073 -0.562680
F22   F     F_    0.414880 0.175594 0.807927 -0.562680
F23   F     F_    0.675594 0.914881 0.692073 -0.562680
F24   F     F_    0.585119 0.824406 0.192073 -0.562680
F25   F     F_    0.824406 0.414880 0.807927 -0.562680
F26   F     F_    0.175594 0.585119 0.192073 -0.562680
F27   F     F_    0.324406 0.085119 0.307927 -0.562680
F28   F     F_    0.914880 0.324406 0.692073 -0.562680
F29   F     F_    0.085119 0.675593 0.307927 -0.562680
F30   F     F_    0.324406 0.085119 0.692073 -0.562680
F31   F     F_    0.675594 0.914880 0.307927 -0.562680
F32   F     F_    0.085119 0.324406 0.307927 -0.562680
H1    H     H_    0.154662 0.735185 0.698320 0.173610
H2    H     H_    0.845338 0.735185 0.698320 0.173610
H3    H     H_    0.735185 0.154662 0.301680 0.173610
H4    H     H_    0.264815 0.845338 0.698320 0.173610
H5    H     H_    0.845338 0.735185 0.301680 0.173610
H6    H     H_    0.154662 0.264815 0.698320 0.173610
H7    H     H_    0.264815 0.845338 0.301680 0.173610
H8    H     H_    0.735185 0.154662 0.698320 0.173610
H9    H     H_    0.654662 0.235185 0.198320 0.173610
H10   H     H_    0.345338 0.764815 0.801680 0.173610
H11   H     H_    0.235185 0.345338 0.198320 0.173610
H12   H     H_    0.845338 0.264815 0.301680 0.173610
H13   H     H_    0.764815 0.654662 0.801680 0.173610
H14   H     H_    0.345338 0.764815 0.198320 0.173610
H15   H     H_    0.654662 0.235185 0.801680 0.173610
H16   H     H_    0.764815 0.654662 0.198320 0.173610
H17   H     H_    0.235185 0.345338 0.801680 0.173610
H18   H     H_    0.654662 0.764815 0.801680 0.173610
H19   H     H_    0.345338 0.235185 0.198320 0.173610
H20   H     H_    0.235185 0.654662 0.801680 0.173610
H21   H     H_    0.764815 0.345338 0.198320 0.173610
H22   H     H_    0.345338 0.235185 0.801680 0.173610
H23   H     H_    0.735185 0.845338 0.698320 0.173610
H24   H     H_    0.654662 0.764815 0.198320 0.173610
H25   H     H_    0.764815 0.345338 0.801680 0.173610
H26   H     H_    0.235185 0.654662 0.198320 0.173610
H27   H     H_    0.264815 0.154662 0.301680 0.173610
H28   H     H_    0.845338 0.264815 0.698320 0.173610
H29   H     H_    0.154662 0.735185 0.301680 0.173610
H30   H     H_    0.264815 0.154662 0.698320 0.173610
H31   H     H_    0.735185 0.845338 0.301680 0.173610
H32   H     H_    0.154662 0.264815 0.301680 0.173610
O1    O     O_3   0.500000 0.000000 0.750000 -0.512893
O2    O     O_R   0.460660 0.000000 0.356100 -0.517505
O3    O     O_R   1.000000 0.460660 0.643900 -0.517505
O4    O     O_R   0.000000 0.539340 0.356100 -0.517505
O5    O     O_R   0.960660 0.500000 0.143900 -0.517505
O6    O     O_R   0.039340 0.500000 0.856100 -0.517505
O7    O     O_R   0.500000 0.039340 0.143900 -0.517505
O8    O     O_R   0.500000 0.960660 0.856100 -0.517505
O9    O     O_R   0.039340 0.500000 0.143900 -0.517505
O10   O     O_R   0.960660 0.500000 0.856100 -0.517505
O11   O     O_R   0.500000 0.960660 0.143900 -0.517505
O12   O     O_3   0.500000 0.000000 0.250000 -0.512893
O13   O     O_R   0.500000 0.039340 0.856100 -0.517505
O14   O     O_R   0.594350 0.944820 0.722300 -0.471616
O15   O     O_R   0.405650 0.055180 0.277700 -0.471616
O16   O     O_R   0.944820 0.405650 0.722300 -0.471616
O17   O     O_R   0.055180 0.594350 0.277700 -0.471616
O18   O     O_R   0.405650 0.055180 0.722300 -0.471616
O19   O     O_R   0.594350 0.944820 0.277700 -0.471616
O20   O     O_R   0.055180 0.594350 0.722300 -0.471616
O21   O     O_R   0.944820 0.405650 0.277700 -0.471616
O22   O     O_R   0.594350 0.055180 0.277700 -0.471616
O23   O     O_3   0.000000 0.500000 0.750000 -0.512893
O24   O     O_R   0.405650 0.944820 0.722300 -0.471616
O25   O     O_R   0.944820 0.594350 0.277700 -0.471616
O26   O     O_R   0.055180 0.405650 0.722300 -0.471616
O27   O     O_R   0.405650 0.944820 0.277700 -0.471616
O28   O     O_R   0.594350 0.055180 0.722300 -0.471616
O29   O     O_R   0.055180 0.405650 0.277700 -0.471616
O30   O     O_R   0.944820 0.594350 0.722300 -0.471616
O31   O     O_R   0.094350 0.444820 0.222300 -0.471616
O32   O     O_R   0.905650 0.555180 0.777700 -0.471616
O33   O     O_R   0.444820 0.905650 0.222300 -0.471616
O34   O     O_3   0.000000 0.500000 0.250000 -0.512893
O35   O     O_R   0.555180 0.094350 0.777700 -0.471616
O36   O     O_R   0.905650 0.555180 0.222300 -0.471616
O37   O     O_R   0.094350 0.444820 0.777700 -0.471616
O38   O     O_R   0.555180 0.094350 0.222300 -0.471616
O39   O     O_R   0.444820 0.905650 0.777700 -0.471616
O40   O     O_R   0.094350 0.555180 0.777700 -0.471616
O41   O     O_R   0.905650 0.444820 0.222300 -0.471616
O42   O     O_R   0.444820 0.094350 0.777700 -0.471616
O43   O     O_R   0.555180 0.905650 0.222300 -0.471616
O44   O     O_R   0.905650 0.444820 0.777700 -0.471616
O45   O     O_R   0.460660 1.000000 0.643900 -0.517505
O46   O     O_R   0.094350 0.555180 0.222300 -0.471616
O47   O     O_R   0.555180 0.905650 0.777700 -0.471616
O48   O     O_R   0.444820 0.094350 0.222300 -0.471616
O49   O     O_R   0.539340 0.000000 0.356100 -0.517505
O50   O     O_R   0.000000 0.539340 0.643900 -0.517505
O51   O     O_R   1.000000 0.460660 0.356100 -0.517505
O52   O     O_R   0.539340 1.000000 0.643900 -0.517505
Zn1   Zn    Zn3+2 0.500000 0.943960 0.789960 1.043022
Zn2   Zn    Zn3+2 1.000000 0.556040 0.710040 1.043023
Zn3   Zn    Zn3+2 0.443960 1.000000 0.289960 1.043022
Zn4   Zn    Zn3+2 0.556040 0.000000 0.710040 1.043023
Zn5   Zn    Zn3+2 0.000000 0.556040 0.289960 1.043022
Zn6   Zn    Zn3+2 0.000000 0.443960 0.710040 1.043023
Zn7   Zn    Zn3+2 0.556040 1.000000 0.289960 1.043022
Zn8   Zn    Zn3+2 0.443960 0.000000 0.710040 1.043023
Zn9   Zn    Zn3+2 0.500000 0.056040 0.210040 1.043023
Zn10  Zn    Zn3+2 0.943960 0.500000 0.789960 1.043022
Zn11  Zn    Zn3+2 0.056040 0.500000 0.210040 1.043023
Zn12  Zn    Zn3+2 0.500000 0.056040 0.789960 1.043022
Zn13  Zn    Zn3+2 0.500000 0.943960 0.210040 1.043023
Zn14  Zn    Zn3+2 0.056040 0.500000 0.789960 1.043022
Zn15  Zn    Zn3+2 0.943960 0.500000 0.210040 1.043023
Zn16  Zn    Zn3+2 0.000000 0.443960 0.289960 1.043022

loop_
_geom_bond_atom_site_label_1
_geom_bond_atom_site_label_2
_ccdc_geom_bond_type
O12   Zn13  S    
C113  O20   A    
C88   C96   T    
C37   C43   A    
C51   C112  S    
C83   C102  S    
C107  O15   A    
C121  O28   A    
C76   C126  A    
C56   C117  S    
C134  H2    S    
C147  H15   S    
C95   C96   S    
C101  O4    A    
C8    C43   A    
C21   C137  A    
C123  O32   A    
O6    Zn14  S    
C33   F17   S    
C1    C62   S    
C7    H26   S    
C37   F20   S    
C63   C65   S    
C12   C128  A    
C34   C150  A    
C16   F31   S    
C35   C137  A    
O25   Zn5   S    
C6    H25   S    
C3    C65   A    
C45   C106  S    
C2    C145  A    
C38   C44   A    
C83   C92   T    
C15   C130  A    
C35   C75   S    
C133  C142  A    
C93   C94   S    
C99   O2    A    
O33   Zn13  S    
C1    C152  A    
C120  C130  A    
C6    C98   A    
C41   F25   S    
C61   C79   S    
C139  H7    S    
C119  O33   A    
C103  O6    A    
O39   Zn1   S    
C124  H1    S    
O38   Zn9   S    
C27   C55   A    
O34   Zn5   S    
C14   C49   A    
C55   C116  S    
C24   C143  A    
C19   C135  A    
O23   Zn10  S    
O11   Zn13  S    
C87   C127  A    
C58   C118  S    
C111  O18   A    
O18   Zn8   S    
C57   C139  A    
C36   C47   A    
O10   Zn10  S    
C7    C42   A    
C29   F13   S    
C80   C89   T    
O21   Zn16  S    
O35   Zn12  S    
C106  O47   A    
C18   C53   A    
O8    Zn1   S    
O14   Zn4   S    
C11   C47   A    
O49   Zn7   S    
O1    Zn12  S    
O52   Zn4   S    
C3    C38   A    
C9    C44   A    
C6    C41   A    
O15   Zn3   S    
O23   Zn6   S    
C27   C143  A    
C82   C103  S    
C16   C51   A    
C130  H30   S    
C107  O48   A    
C28   C144  A    
C25   C60   A    
C13   C141  A    
C26   C141  A    
C53   C123  S    
C104  O7    A    
O32   Zn10  S    
C88   C97   S    
C18   F2    S    
C110  O17   A    
C12   C48   A    
C46   C138  A    
C31   C147  A    
C24   C136  A    
C98   C128  A    
C101  O51   A    
C44   C114  S    
C113  O40   A    
C87   C151  A    
C57   C146  A    
C136  H4    S    
C129  H29   S    
C84   C101  S    
C13   C135  A    
C21   C56   A    
C138  H6    S    
O34   Zn16  S    
C25   F8    S    
C20   C55   A    
C2    C72   S    
C26   C54   A    
C17   C52   A    
C135  H3    S    
C67   C98   S    
C117  O36   A    
C30   C146  A    
C68   C78   T    
O23   Zn14  S    
C118  O26   A    
C3    H21   S    
C10   C126  A    
O16   Zn6   S    
O5    Zn15  S    
C25   C140  A    
C67   C79   T    
C35   C148  A    
C100  O3    A    
O13   Zn12  S    
O50   Zn2   S    
O36   Zn15  S    
C151  H19   S    
C91   C92   S    
C40   F24   S    
C8    C124  A    
C38   F21   S    
O7    Zn9   S    
C22   F6    S    
C125  H12   S    
C143  H10   S    
C80   C105  S    
O3    Zn6   S    
C9    C125  A    
C82   C91   T    
O24   Zn8   S    
C23   F7    S    
C29   C53   A    
C65   C125  A    
C31   C60   A    
C146  H14   S    
C9    F12   S    
C11   C127  A    
C23   C59   A    
C145  H13   S    
C86   C99   S    
C118  O37   A    
C115  O22   A    
O44   Zn10  S    
C85   C94   T    
C97   O52   A    
C4    C120  A    
C66   C71   T    
C4    C39   A    
O43   Zn13  S    
C126  H23   S    
C111  O42   A    
C62   C74   T    
O17   Zn5   S    
C54   C115  S    
C46   C149  A    
O29   Zn16  S    
O20   Zn2   S    
O48   Zn9   S    
C64   C76   S    
C36   C151  A    
C132  H31   S    
C141  H9    S    
C50   C111  S    
C20   C136  A    
C8    F1    S    
C122  O31   A    
C123  O30   A    
C30   F14   S    
C34   C45   A    
C71   C142  S    
C137  H5    S    
C81   C90   T    
C14   C129  A    
C19   C54   A    
C127  H27   S    
C27   F10   S    
C12   F28   S    
C13   C73   S    
C68   C109  S    
O1    Zn8   S    
C47   C107  S    
C114  O21   A    
O42   Zn12  S    
C19   F3    S    
C140  H8    S    
C144  H11   S    
C142  C144  A    
C108  O44   A    
C11   F27   S    
C150  H18   S    
C37   C152  A    
O22   Zn7   S    
O1    Zn4   S    
C149  H17   S    
C66   C87   S    
C14   F29   S    
O37   Zn14  S    
C104  O11   A    
C108  O16   A    
C23   C139  A    
C10   F23   S    
C22   C138  A    
C99   O49   A    
C36   F19   S    
C59   C119  S    
C15   F30   S    
C20   F4    S    
O23   Zn2   S    
O4    Zn5   S    
O28   Zn4   S    
C133  H32   S    
C21   F5    S    
C57   C78   S    
C105  O8    A    
C148  H16   S    
O45   Zn8   S    
C31   F15   S    
O30   Zn2   S    
O12   Zn3   S    
C34   F18   S    
C22   C58   A    
C46   C77   S    
C52   C122  S    
C2    C134  A    
C61   C140  A    
C4    H22   S    
C32   C148  A    
C97   O45   A    
O12   Zn9   S    
O9    Zn11  S    
C40   C51   A    
C63   C73   T    
C116  O24   A    
C69   C120  S    
O2    Zn3   S    
C69   C77   T    
O40   Zn14  S    
C33   C58   A    
C26   F9    S    
O34   Zn11  S    
C10   C45   A    
C32   F16   S    
O19   Zn7   S    
C61   C147  A    
C1    C124  A    
C102  O9    A    
C112  O43   A    
C85   C100  S    
C33   C149  A    
C128  H28   S    
O26   Zn6   S    
C29   C145  A    
C28   C52   A    
C17   F32   S    
C24   C74   S    
C48   C108  S    
C115  O38   A    
C100  O50   A    
O51   Zn16  S    
C42   F26   S    
O34   Zn15  S    
O1    Zn1   S    
O46   Zn11  S    
C70   C131  S    
C41   C48   A    
C32   C56   A    
C18   C134  A    
C84   C93   T    
C64   C72   T    
O31   Zn11  S    
C60   C121  S    
C16   C132  A    
C114  O41   A    
O27   Zn3   S    
C110  O46   A    
C122  O29   A    
C121  O35   A    
C86   C95   T    
C42   C49   A    
C15   C50   A    
C106  O14   A    
C5    C131  A    
C39   C50   A    
C76   C150  A    
C28   F11   S    
C5    C40   A    
C103  O10   A    
C70   C75   T    
O41   Zn15  S    
C30   C59   A    
C17   C133  A    
C152  H20   S    
C39   F22   S    
C7    C109  A    
O12   Zn7   S    
C89   C90   S    
O47   Zn1   S    
C109  C129  A    
C119  O27   A    
C116  O39   A    
C112  O19   A    
C43   C113  S    
C131  C132  A    
C102  O5    A    
C105  O13   A    
C49   C110  S    
C5    H24   S    
C81   C104  S    
C117  O25   A    
