data_mof_unit_57594.cif
_audit_creation_date              2013-03-05T16:19:44-0500
_audit_creation_method            fapswitch 2.2
_symmetry_space_group_name_H-M    P1
_symmetry_Int_Tables_number       1
_space_group_crystal_system       triclinic
_cell_length_a                    10.621325
_cell_length_b                    9.707013
_cell_length_c                    27.725046
_cell_angle_alpha                 89.930911
_cell_angle_beta                  89.51195
_cell_angle_gamma                 90.072396
_cell_volume                      2858.38129073

loop_
_atom_site_label
_atom_site_type_symbol
_atom_site_description
_atom_site_fract_x
_atom_site_fract_y
_atom_site_fract_z
_atom_type_partial_charge
O1    O     O_R   0.314910 0.616040 0.499990 -0.616475
O2    O     O_R   0.314910 0.383960 0.499990 -0.608985
C1    C     C_R   0.257607 0.499711 0.499781 0.845825
O3    O     O_R   0.500140 0.616020 0.428740 -0.628360
O4    O     O_R   0.500140 0.383980 0.428740 -0.628389
C2    C     C_R   0.500070 0.500085 0.405963 0.869904
Zn1   Zn    Zn3+2 0.500150 0.654960 0.499980 0.922057
Zn2   Zn    Zn3+2 0.500150 0.345040 0.499980 0.922085
O5    O     O_R   0.685320 0.616040 0.499970 -0.636201
O6    O     O_R   0.685320 0.383960 0.499970 -0.635982
O7    O     O_R   0.500090 0.616050 0.571230 -0.605835
O8    O     O_R   0.500090 0.383950 0.571230 -0.617702
C3    C     C_R   0.742528 0.499805 0.499530 0.840500
C4    C     C_R   0.501913 0.499890 0.593995 0.865722
C5    C     C_R   0.395857 0.484137 0.177172 0.502433
O9    O     O_2   0.286334 0.470084 0.201766 -0.554971
N1    N     N_R   0.506010 0.500191 0.201548 -0.358818
C6    C     C_R   0.618800 0.515354 0.178151 0.502938
C7    C     C_R   0.514745 0.624708 0.277797 -0.102489
C8    C     C_R   0.513091 0.624886 0.327899 -0.225742
C9    C     C_R   0.488759 0.375824 0.327953 -0.225438
C10   C     C_R   0.490015 0.376101 0.277859 -0.103569
C11   C     C_R   0.503314 0.500395 0.252870 0.326628
C12   C     C_R   0.511595 0.497628 0.101675 -0.054249
C13   C     C_R   0.396441 0.483007 0.126738 -0.020132
C14   C     C_R   0.284951 0.466658 0.101094 -0.137454
C15   C     C_R   0.623841 0.513981 0.127738 -0.020768
C16   C     C_R   0.500442 0.500293 0.353301 -0.042903
H1    H     H_    0.478587 0.278511 0.346730 0.147993
H2    H     H_    0.481283 0.279976 0.258378 0.135041
H3    H     H_    0.195571 0.452541 0.119589 0.189700
C17   C     C_R   0.509056 0.499404 0.646583 -0.045357
C18   C     C_R   0.403044 0.495873 0.973890 0.058382
C19   C     C_R   0.634691 0.491683 0.974961 0.015657
C20   C     C_R   0.520784 0.493653 0.949032 0.068109
C21   C     C_R   0.291739 0.509081 0.946892 -0.222497
C22   C     C_R   0.295469 0.512910 0.897103 -0.163777
C23   C     C_R   0.410032 0.503335 0.872335 -0.002257
C24   C     C_R   0.524188 0.493711 0.897896 -0.077605
C25   C     C_R   0.640670 0.484728 0.872336 -0.055982
C26   C     C_R   0.636757 0.489382 0.821263 0.484583
N2    N     N_R   0.524200 0.497607 0.798098 -0.353530
C27   C     C_R   0.412406 0.504376 0.822167 0.497210
C28   C     C_R   0.527370 0.623202 0.721887 -0.106581
C29   C     C_R   0.521047 0.623940 0.671866 -0.232957
C30   C     C_R   0.506712 0.374073 0.671940 -0.234431
C31   C     C_R   0.513146 0.373661 0.721931 -0.116386
C32   C     C_R   0.522776 0.498156 0.746793 0.348790
O10   O     O_2   0.303787 0.512219 0.797314 -0.574815
C33   C     C_R   0.400133 0.486878 0.024851 0.044245
C34   C     C_R   0.514482 0.495990 0.050632 0.071925
C35   C     C_R   0.631681 0.503675 0.025901 0.055882
C36   C     C_R   0.286501 0.468362 0.051079 -0.221021
H4    H     H_    0.526092 0.721577 0.653090 0.151312
H5    H     H_    0.535208 0.719419 0.741366 0.127303
H6    H     H_    0.207414 0.523964 0.878039 0.182683
H7    H     H_    0.199955 0.520956 0.963203 0.134903
H8    H     H_    0.197109 0.451192 0.033997 0.138028
O11   O     O_2   0.725539 0.530693 0.203699 -0.554711
C37   C     C_R   0.738055 0.529664 0.103080 -0.137903
H9    H     H_    0.522457 0.722131 0.346641 0.148572
H10   H     H_    0.524960 0.720817 0.258269 0.135194
H11   H     H_    0.825206 0.545705 0.122328 0.190817
C38   C     C_R   0.748525 0.474564 0.949358 -0.244122
C39   C     C_R   0.754253 0.470855 0.898972 0.121882
O12   O     O_2   0.742893 0.487103 0.794383 -0.582017
C40   C     C_R   0.742113 0.525181 0.053095 -0.222192
H12   H     H_    0.835273 0.457311 0.968298 0.136004
H13   H     H_    0.499936 0.276566 0.653276 0.151276
H14   H     H_    0.509863 0.276998 0.741447 0.124833
H15   H     H_    0.833098 0.543221 0.036736 0.138939
C41   C     C_3   0.070917 0.566743 0.546327 -0.404543
C42   C     C_3   0.071104 0.348774 0.496713 -0.401436
H16   H     H_    0.103868 0.675193 0.548715 0.183802
H17   H     H_    0.108096 0.296012 0.463872 0.168412
H18   H     H_    0.106598 0.510806 0.578518 0.161292
H19   H     H_    0.102032 0.289581 0.528786 0.189666
C43   C     C_3   0.926519 0.564866 0.546581 -0.402252
C44   C     C_3   0.928368 0.348783 0.495767 -0.402297
H20   H     H_    0.891517 0.505174 0.578300 0.165330
H21   H     H_    0.892163 0.285687 0.526509 0.170434
H22   H     H_    0.890716 0.672150 0.550275 0.168877
H23   H     H_    0.895838 0.299700 0.461764 0.171766
H24   H     H_    0.109154 0.688299 0.455843 0.168015
H25   H     H_    0.108730 0.531953 0.421221 0.166360
H26   H     H_    0.895501 0.690552 0.457108 0.171048
H27   H     H_    0.893513 0.536565 0.421225 0.165086
C45   C     C_3   0.073521 0.580391 0.455118 -0.401175
C46   C     C_3   0.121206 0.498924 0.499455 0.178834
C47   C     C_3   0.878738 0.498960 0.499296 0.185202
C48   C     C_3   0.928976 0.581992 0.455380 -0.396165
C49   C     C_3   0.430942 0.081295 0.456897 -0.266084
C50   C     C_3   0.427722 0.919216 0.457708 -0.273767
H28   H     H_    0.477348 0.115917 0.422865 0.158624
H29   H     H_    0.468102 0.880248 0.423214 0.162470
H30   H     H_    0.334005 0.123426 0.455308 0.144113
H31   H     H_    0.328992 0.881990 0.458365 0.136863
H32   H     H_    0.678331 0.122148 0.463097 0.173270
H33   H     H_    0.673887 0.882846 0.460203 0.169834
C51   C     C_3   0.629684 0.081420 0.495839 -0.325194
C52   C     C_3   0.629492 0.918860 0.494430 -0.320177
C53   C     C_3   0.441360 0.081769 0.544128 0.158243
C54   C     C_3   0.446082 0.917671 0.544914 0.154092
N3    N     N_3   0.499750 0.138610 0.498940 -0.057117
N4    N     N_3   0.499750 0.861390 0.498940 -0.058367
H34   H     H_    0.499432 0.118392 0.574875 0.102339
H35   H     H_    0.511732 0.887919 0.574328 0.096163
H36   H     H_    0.685722 0.117218 0.527154 0.145676
H37   H     H_    0.689423 0.878656 0.523982 0.150052
C55   C     C_3   0.884032 0.447783 0.876605 -0.347760
C56   C     C_3   0.899099 0.298835 0.858847 -0.324835
C57   C     C_3   0.027015 0.277165 0.834564 -0.807807
H38   H     H_    0.038524 0.348245 0.803400 0.293855
H39   H     H_    0.103907 0.295399 0.860688 0.255077
H40   H     H_    0.034112 0.169523 0.821325 0.243220
H41   H     H_    0.890662 0.227376 0.890088 0.208859
H42   H     H_    0.824035 0.271662 0.832923 0.253318
H43   H     H_    0.904754 0.524646 0.848038 0.249255
H44   H     H_    0.958965 0.466603 0.903638 0.159476
N5    N     N_2   0.314021 0.135335 0.550679 -0.256789
H45   H     H_    0.244721 0.099787 0.528104 0.198452
C58   C     C_3   0.272795 0.175113 0.598658 -0.776350
H46   H     H_    0.284220 0.287887 0.603110 0.253907
H47   H     H_    0.326779 0.121033 0.627043 0.224923
H48   H     H_    0.171497 0.149847 0.603654 0.216808
N6    N     N_2   0.324496 0.854132 0.555823 -0.253107
H49   H     H_    0.251552 0.867544 0.532075 0.205781
C59   C     C_3   0.287788 0.833169 0.605778 -0.774771
H50   H     H_    0.278327 0.721135 0.612896 0.249612
H51   H     H_    0.195282 0.882647 0.612849 0.228235
H52   H     H_    0.357469 0.876947 0.631151 0.218603

loop_
_geom_bond_atom_site_label_1
_geom_bond_atom_site_label_2
_geom_bond_distance
_ccdc_geom_bond_type
C59   H52   1.109949 S    
N6    H49   1.029289 S    
H27   C48   1.113420 S    
C3    C47   1.446720 S    
C17   C29   1.404328 A    
C20   C24   1.417920 A    
C56   C57   1.526079 S    
C12   C15   1.408246 A    
C49   H30   1.109536 S    
C41   H18   1.113596 S    
C59   H50   1.109322 S    
C55   H43   1.107972 S    
C57   H39   1.110382 S    
C43   C47   1.548552 S    
Zn1   O7    2.010744 S    
N1    C11   1.422947 S    
C37   H11   1.083575 S    
C38   H12   1.077575 S    
C21   C22   1.381110 A    
C15   C37   1.395476 A    
C23   C24   1.412746 A    
O7    C4    1.291769 A    
C43   H20   1.113531 S    
C5    C13   1.398313 A    
C7    H10   1.082943 S    
C52   H37   1.112451 S    
C5    O9    1.350043 S    
C51   N3    1.490034 S    
C18   C21   1.410516 A    
C5    N1    1.364969 A    
C19   C20   1.412698 A    
C26   N2    1.364276 A    
C8    H9    1.082962 S    
C54   N6    1.459628 S    
O5    C3    1.282205 A    
C55   C56   1.536040 S    
C49   C50   1.573760 S    
C44   C47   1.553688 S    
C41   C43   1.533739 S    
C50   N4    1.490497 S    
C22   H6    1.083570 S    
C2    C16   1.460055 S    
C7    C8    1.389045 A    
C37   C40   1.386879 A    
C30   H13   1.081862 S    
Zn1   N4    2.004003 S    
C56   H41   1.111967 S    
C12   C34   1.415344 A    
N5    H45   1.029723 S    
C14   H3    1.083587 S    
C50   H29   1.111725 S    
C9    C10   1.388825 A    
C42   H17   1.114114 S    
O3    Zn1   2.011425 S    
C19   C38   1.406957 A    
C57   H38   1.110904 S    
N5    C58   1.449840 S    
C33   C34   1.417221 A    
C52   N4    1.490229 S    
C51   H36   1.112546 S    
C33   C36   1.414893 A    
C34   C35   1.417873 A    
C12   C13   1.408473 A    
C41   H16   1.111186 S    
C21   H7    1.077514 S    
C24   C25   1.423353 A    
C44   H21   1.114446 S    
C27   O10   1.351002 S    
C8    C16   1.404523 A    
C18   C33   1.415545 A    
C9    H1    1.082859 S    
O1    C1    1.282148 A    
C7    C11   1.396988 A    
C31   H14   1.082957 S    
C22   C23   1.395354 A    
C43   H22   1.113651 S    
C31   C32   1.396044 A    
C45   C48   1.535313 S    
Zn2   O8    2.011639 S    
C49   H28   1.112212 S    
N1    C6    1.365169 A    
C42   C44   1.516502 S    
C54   N4    1.496040 S    
N2    C32   1.422657 S    
C53   N3    1.497632 S    
Zn2   N3    2.004061 S    
C35   C40   1.415141 A    
O3    C2    1.291109 A    
C25   C26   1.417629 A    
H33   C52   1.112943 S    
C9    C16   1.404354 A    
O8    C4    1.291199 A    
C29   H4    1.081819 S    
H32   C51   1.112630 S    
C25   C39   1.426277 A    
N2    C27   1.358800 A    
C58   H47   1.109570 S    
C14   C36   1.386721 A    
C50   H31   1.108714 S    
C53   N5    1.459600 S    
C28   C29   1.389041 A    
H25   C45   1.113404 S    
Zn1   O5    2.003174 S    
C30   C31   1.388266 A    
N6    C59   1.449685 S    
C10   H2    1.082958 S    
O1    Zn1   2.002967 S    
C17   C30   1.404453 A    
O2    Zn2   2.003904 S    
C6    C15   1.398363 A    
H24   C45   1.113551 S    
C4    C17   1.460647 S    
O6    C3    1.277494 A    
C59   H51   1.110240 S    
C55   H44   1.112956 S    
O4    Zn2   2.010529 S    
C36   H8    1.077490 S    
C26   O12   1.346285 S    
C19   C35   1.417327 A    
C56   H42   1.109737 S    
C1    C46   1.448880 S    
C38   C39   1.398261 A    
C58   H48   1.110708 S    
O2    C1    1.278562 A    
C13   C14   1.395372 A    
C42   C46   1.553147 S    
C23   C27   1.390937 A    
C44   H23   1.114164 S    
C41   C46   1.548753 S    
C28   H5    1.082901 S    
C47   C48   1.549941 S    
O4    C2    1.291226 A    
C51   C52   1.578501 S    
C18   C20   1.422940 A    
C53   H34   1.114747 S    
C40   H15   1.078029 S    
C53   C54   1.593882 S    
C39   C55   1.523591 S    
C49   N3    1.489107 S    
C6    O11   1.350051 S    
C45   C46   1.549888 S    
Zn2   O6    2.002237 S    
H26   C48   1.113537 S    
C42   H19   1.110409 S    
C10   C11   1.396969 A    
C54   H35   1.115484 S    
C58   H46   1.108409 S    
C57   H40   1.110325 S    
C28   C32   1.396356 A    
