data_mof_unit_32000.cif
_audit_creation_date              2013-03-05T16:12:11-0500
_audit_creation_method            fapswitch 2.2
_symmetry_space_group_name_H-M    P1
_symmetry_Int_Tables_number       1
_space_group_crystal_system       triclinic
_cell_length_a                    10.724415
_cell_length_b                    9.493244
_cell_length_c                    27.575818
_cell_angle_alpha                 89.837135
_cell_angle_beta                  92.842316
_cell_angle_gamma                 89.985816
_cell_volume                      2804.01458216

loop_
_atom_site_label
_atom_site_type_symbol
_atom_site_description
_atom_site_fract_x
_atom_site_fract_y
_atom_site_fract_z
_atom_type_partial_charge
O1    O     O_R   0.317570 0.620260 0.500030 -0.569886
O2    O     O_R   0.317570 0.379740 0.500030 -0.568753
C1    C     C_R   0.260090 0.499992 0.501896 0.797875
O3    O     O_R   0.499900 0.620250 0.430280 -0.557601
O4    O     O_R   0.499900 0.379750 0.430280 -0.558901
C2    C     C_R   0.500118 0.500149 0.407460 0.884760
Cu1   Cu    Cu3+1 0.499860 0.642410 0.500020 0.934752
Cu2   Cu    Cu3+1 0.499860 0.357590 0.500020 0.933052
O5    O     O_R   0.682190 0.620260 0.500010 -0.599585
O6    O     O_R   0.682190 0.379740 0.500010 -0.601338
O7    O     O_R   0.499860 0.620280 0.569750 -0.585776
O8    O     O_R   0.499860 0.379720 0.569750 -0.586525
C3    C     C_R   0.739857 0.499964 0.502524 0.741990
C4    C     C_R   0.501809 0.499762 0.592407 0.788151
C5    C     C_R   0.580650 0.367433 0.181687 0.586684
O9    O     O_2   0.550265 0.250401 0.206386 -0.517327
N1    N     N_R   0.602731 0.490802 0.206154 -0.451037
C6    C     C_R   0.638941 0.609731 0.182560 0.609463
C7    C     C_R   0.670318 0.499291 0.292142 -0.101212
C8    C     C_R   0.644076 0.500240 0.341041 -0.250139
C9    C     C_R   0.421278 0.500570 0.319531 0.058978
C10   C     C_R   0.447455 0.501829 0.269758 -0.009381
C11   C     C_R   0.573347 0.499294 0.256379 0.304873
C12   C     C_R   0.616275 0.486059 0.105519 -0.033550
C13   C     C_R   0.585288 0.363274 0.130886 -0.051101
C14   C     C_R   0.548769 0.242682 0.105052 -0.146711
C15   C     C_R   0.646026 0.609772 0.131800 -0.012687
C16   C     C_R   0.520510 0.500353 0.355166 -0.056390
H1    H     H_    0.516408 0.150921 0.124204 0.214704
C17   C     C_R   0.514775 0.498695 0.645332 -0.054677
C18   C     C_R   0.593650 0.360962 0.976707 0.056700
C19   C     C_R   0.621107 0.618539 0.977457 0.049793
C20   C     C_R   0.602135 0.490907 0.951600 0.074201
C21   C     C_R   0.601275 0.235913 0.949637 -0.163253
C22   C     C_R   0.590526 0.237617 0.899158 -0.124436
C23   C     C_R   0.580945 0.365635 0.874011 -0.021439
C24   C     C_R   0.592599 0.492637 0.900049 -0.046231
C25   C     C_R   0.595257 0.621013 0.874503 -0.020597
C26   C     C_R   0.582235 0.620217 0.823546 0.580180
N2    N     N_R   0.562169 0.496220 0.799058 -0.462956
C27   C     C_R   0.563279 0.369873 0.823240 0.557902
C28   C     C_R   0.438512 0.561787 0.723737 0.224476
C29   C     C_R   0.425724 0.564435 0.673001 -0.256546
C30   C     C_R   0.617983 0.431935 0.668369 -0.220941
C31   C     C_R   0.633688 0.433418 0.718807 -0.118998
C32   C     C_R   0.544481 0.497891 0.746961 0.294111
O10   O     O_2   0.546103 0.248748 0.798284 -0.514253
C33   C     C_R   0.584464 0.360342 0.027933 -0.006318
C34   C     C_R   0.613905 0.486395 0.053964 0.049106
C35   C     C_R   0.636671 0.614375 0.028905 0.059514
C36   C     C_R   0.542166 0.241587 0.054462 0.117647
H2    H     H_    0.344871 0.614382 0.655183 0.147173
H3    H     H_    0.591328 0.138248 0.879952 0.187002
H4    H     H_    0.619940 0.135848 0.967074 0.159933
O11   O     O_2   0.663623 0.728681 0.207934 -0.509008
C37   C     C_R   0.677100 0.732054 0.106823 -0.116342
H5    H     H_    0.720701 0.499893 0.368116 0.135804
H6    H     H_    0.766500 0.497019 0.281921 0.164071
H7    H     H_    0.702665 0.827779 0.126176 0.192320
C38   C     C_R   0.623022 0.746061 0.950762 -0.179789
C39   C     C_R   0.610203 0.746982 0.900295 -0.120706
O12   O     O_2   0.589751 0.742291 0.798652 -0.508110
C40   C     C_R   0.672635 0.734556 0.056382 -0.169850
H8    H     H_    0.630769 0.847753 0.967898 0.148254
H9    H     H_    0.687601 0.381135 0.647214 0.137288
H10   H     H_    0.611357 0.847436 0.881569 0.185583
H11   H     H_    0.715250 0.383819 0.736169 0.161258
H12   H     H_    0.699188 0.832408 0.039882 0.148088
C41   C     C_3   0.075426 0.631940 0.530462 -0.379074
C42   C     C_3   0.075435 0.367088 0.530195 -0.376912
H13   H     H_    0.106481 0.729971 0.512415 0.189911
H14   H     H_    0.106395 0.269676 0.511915 0.190018
H15   H     H_    0.115600 0.633059 0.568462 0.155624
H16   H     H_    0.115708 0.364607 0.568174 0.157760
C43   C     C_3   0.931788 0.632059 0.530595 -0.369521
C44   C     C_3   0.931814 0.367039 0.530400 -0.372069
H17   H     H_    0.901845 0.633477 0.568666 0.158483
H18   H     H_    0.901974 0.364596 0.568484 0.153010
H19   H     H_    0.895998 0.730043 0.512537 0.171891
H20   H     H_    0.895961 0.269567 0.512232 0.172141
H21   H     H_    0.094727 0.595880 0.431372 0.212184
H22   H     H_    0.094973 0.406674 0.431131 0.211264
H23   H     H_    0.883114 0.595490 0.431468 0.169781
H24   H     H_    0.883351 0.406236 0.431381 0.168674
C45   C     C_3   0.063796 0.500854 0.450994 -0.329042
C46   C     C_3   0.121897 0.499972 0.503461 0.127914
C47   C     C_3   0.877937 0.499931 0.503798 0.158957
C48   C     C_3   0.920480 0.500670 0.451116 -0.393023
C49   C     C_3   0.625243 0.083181 0.515044 -0.265225
C50   C     C_3   0.625260 0.916530 0.515015 -0.263427
H25   H     H_    0.657213 0.122285 0.551576 0.164475
H26   H     H_    0.657330 0.876731 0.551524 0.168041
H27   H     H_    0.695017 0.120373 0.489400 0.151271
H28   H     H_    0.694983 0.879809 0.489335 0.150751
H29   H     H_    0.437400 0.120688 0.573131 0.161484
H30   H     H_    0.437618 0.878423 0.573174 0.160663
C51   C     C_3   0.412358 0.083055 0.535774 -0.198137
C52   C     C_3   0.412425 0.916471 0.535805 -0.199939
C53   C     C_3   0.463217 0.084143 0.452022 0.149121
C54   C     C_3   0.463198 0.916647 0.452036 0.148717
N3    N     N_3   0.500250 0.143650 0.501060 -0.151301
N4    N     N_3   0.500250 0.856350 0.501060 -0.151395
H31   H     H_    0.533799 0.117917 0.426110 0.113174
H32   H     H_    0.533621 0.883032 0.426092 0.113389
H33   H     H_    0.316023 0.121364 0.527081 0.165632
H34   H     H_    0.316098 0.878213 0.527196 0.165031
I1    I     I_    0.232570 0.504021 0.340235 -0.354987
C55   C     C_2   0.343399 0.505335 0.231997 0.446554
H35   H     H_    0.254310 0.457202 0.238705 0.110826
O13   O     O_2   0.355019 0.564115 0.193048 -0.520999
I2    I     I_    0.291557 0.176504 0.419117 -0.308837
I3    I     I_    0.291456 0.825193 0.419350 -0.303181
I4    I     I_    0.291476 0.647421 0.763080 -0.290177
I5    I     I_    0.429995 0.071845 0.025669 -0.352833

loop_
_geom_bond_atom_site_label_1
_geom_bond_atom_site_label_2
_geom_bond_distance
_ccdc_geom_bond_type
C53   H31   1.113016 S    
C47   C48   1.544137 S    
C22   H3    1.083397 S    
C7    C8    1.391112 A    
C12   C15   1.410098 A    
C51   C52   1.581420 S    
C23   C27   1.403947 A    
Cu1   Cu2   2.703865 S    
C31   C32   1.403090 A    
Cu1   O7    1.933711 S    
N1    C11   1.438039 S    
C23   C24   1.407450 A    
C44   H18   1.113131 S    
O4    C2    1.303240 A    
O7    C4    1.301691 A    
C29   H2    1.083667 S    
C5    C13   1.404896 A    
C5    O9    1.349921 S    
C54   H32   1.113032 S    
C55   H35   1.083100 S    
Cu1   O5    1.966618 S    
C21   C22   1.391096 A    
C28   C32   1.412406 A    
C41   H13   1.112931 S    
O5    C3    1.298613 A    
C50   N4    1.490745 S    
C39   H10   1.083538 S    
C33   C36   1.428415 A    
C2    C16   1.469215 S    
C22   C23   1.398739 A    
Cu1   N4    2.031271 S    
H30   C52   1.111587 S    
C42   H16   1.113082 S    
C18   C20   1.418042 A    
C41   H15   1.113140 S    
C49   H25   1.112720 S    
Cu2   N3    2.031106 S    
C25   C39   1.398307 A    
C51   H33   1.109890 S    
H23   C48   1.113509 S    
C9    C10   1.414521 A    
C1    C46   1.484805 S    
C35   C40   1.414462 A    
C17   C30   1.399267 A    
C30   H9    1.083946 S    
C4    C17   1.459180 S    
O3    Cu1   1.935225 S    
C50   H28   1.111720 S    
C7    H6    1.082932 S    
C37   C40   1.389544 A    
C36   I5    2.141881 S    
C44   H20   1.113006 S    
C12   C13   1.406080 A    
O3    C2    1.303896 A    
C26   N2    1.370464 A    
C15   C37   1.396931 A    
C8    C16   1.399648 A    
C13   C14   1.395936 A    
C45   C46   1.546641 S    
C20   C24   1.420191 A    
C38   C39   1.391639 A    
O1    C1    1.299752 A    
C7    C11   1.397277 A    
C31   H11   1.083061 S    
C24   C25   1.406927 A    
C28   I4    2.120966 S    
C50   H26   1.112665 S    
C53   C54   1.590078 S    
Cu2   O8    1.934898 S    
C53   I2    2.193229 S    
C3    C47   1.479498 S    
C54   N4    1.501781 S    
N1    C6    1.367443 A    
C27   O10   1.349709 S    
C18   C21   1.408630 A    
C43   H17   1.113079 S    
C44   C47   1.554320 S    
C19   C35   1.420682 A    
C9    I1    2.130119 S    
C6    O11   1.349481 S    
C43   C47   1.554431 S    
N2    C27   1.370446 A    
C53   N3    1.502227 S    
C9    C16   1.412265 A    
O8    C4    1.300861 A    
C21   H4    1.077700 S    
C18   C33   1.420885 A    
C42   C44   1.540539 S    
C17   C29   1.399424 A    
C28   C29   1.399164 A    
N2    C32   1.439782 S    
C42   C46   1.553902 S    
C30   C31   1.392825 A    
C45   C48   1.537144 S    
C12   C34   1.420649 A    
C5    N1    1.368106 A    
C26   O12   1.349706 S    
C40   H12   1.077778 S    
C33   C34   1.424611 A    
C49   N3    1.490706 S    
O1    Cu1   1.966296 S    
O2    Cu2   1.966193 S    
C6    C15   1.405566 A    
H24   C48   1.113495 S    
O6    C3    1.298627 A    
O4    Cu2   1.934036 S    
H29   C51   1.111603 S    
C54   I3    2.190685 S    
H22   C45   1.109949 S    
C52   H34   1.109866 S    
C37   H7    1.083589 S    
C38   H8    1.077459 S    
C19   C20   1.417240 A    
O2    C1    1.299611 A    
C8    H5    1.082540 S    
C52   N4    1.491038 S    
C14   C36   1.393436 A    
C25   C26   1.405246 A    
C10   C55   1.488381 S    
C55   O13   1.220826 D    
C41   C43   1.540621 S    
C49   H27   1.111693 S    
H21   C45   1.109850 S    
C14   H1    1.083483 S    
Cu2   O6    1.966721 S    
C34   C35   1.423147 A    
C19   C38   1.415741 A    
C10   C11   1.417373 A    
C42   H14   1.112934 S    
C49   C50   1.582056 S    
C43   H19   1.113010 S    
C51   N3    1.490759 S    
C41   C46   1.553747 S    
