data_mof_unit_65094.cif
_audit_creation_date              2013-03-05T16:36:31-0500
_audit_creation_method            fapswitch 2.2
_symmetry_space_group_name_H-M    P1
_symmetry_Int_Tables_number       1
_space_group_crystal_system       triclinic
_cell_length_a                    26.061871
_cell_length_b                    36.254019
_cell_length_c                    36.231478
_cell_angle_alpha                 90.006345
_cell_angle_beta                  89.991945
_cell_angle_gamma                 90.003669
_cell_volume                      34233.2231974

loop_
_atom_site_label
_atom_site_type_symbol
_atom_site_description
_atom_site_fract_x
_atom_site_fract_y
_atom_site_fract_z
_atom_type_partial_charge
Zn1   Zn    Zn3+2 0.793780 0.469480 0.719490 1.033876
Zn2   Zn    Zn3+2 0.793780 0.469480 0.280510 1.066291
Zn3   Zn    Zn3+2 0.206220 0.469480 0.719490 1.031939
Zn4   Zn    Zn3+2 0.206220 0.469480 0.280510 1.026057
Zn5   Zn    Zn3+2 0.293780 0.969480 0.719490 1.041712
Zn6   Zn    Zn3+2 0.293780 0.969480 0.280510 1.016798
Zn7   Zn    Zn3+2 0.706220 0.969480 0.719490 1.031516
Zn8   Zn    Zn3+2 0.706220 0.969480 0.280510 1.072146
Zn9   Zn    Zn3+2 0.293780 0.469480 0.219490 1.042593
Zn10  Zn    Zn3+2 0.293780 0.469480 0.780510 1.014191
Zn11  Zn    Zn3+2 0.706220 0.469480 0.219490 1.032059
Zn12  Zn    Zn3+2 0.706220 0.469480 0.780510 1.072807
Zn13  Zn    Zn3+2 0.793780 0.969480 0.219490 1.033333
Zn14  Zn    Zn3+2 0.793780 0.969480 0.780510 1.065218
Zn15  Zn    Zn3+2 0.206220 0.969480 0.219490 1.032646
Zn16  Zn    Zn3+2 0.206220 0.969480 0.780510 1.025607
Zn17  Zn    Zn3+2 0.706220 0.530510 0.719480 1.078631
Zn18  Zn    Zn3+2 0.706220 0.530510 0.280520 1.042101
Zn19  Zn    Zn3+2 0.293780 0.530510 0.719480 1.007417
Zn20  Zn    Zn3+2 0.293780 0.530510 0.280520 1.027725
Zn21  Zn    Zn3+2 0.206220 0.030510 0.719480 1.048950
Zn22  Zn    Zn3+2 0.206220 0.030510 0.280520 1.031847
Zn23  Zn    Zn3+2 0.793780 0.030510 0.719480 1.030865
Zn24  Zn    Zn3+2 0.793780 0.030510 0.280520 1.038894
Zn25  Zn    Zn3+2 0.206220 0.530510 0.219480 1.047142
Zn26  Zn    Zn3+2 0.206220 0.530510 0.780520 1.037054
Zn27  Zn    Zn3+2 0.793780 0.530510 0.219480 1.029833
Zn28  Zn    Zn3+2 0.793780 0.530510 0.780520 1.038365
Zn29  Zn    Zn3+2 0.706220 0.030510 0.219480 1.079521
Zn30  Zn    Zn3+2 0.706220 0.030510 0.780520 1.042989
Zn31  Zn    Zn3+2 0.293780 0.030510 0.219480 1.007687
Zn32  Zn    Zn3+2 0.293780 0.030510 0.780520 1.028068
O1    O     O_3   0.750000 0.500000 0.750000 -0.523278
O2    O     O_3   0.750000 0.500000 0.250000 -0.512889
O3    O     O_3   0.250000 0.500000 0.750000 -0.507014
O4    O     O_3   0.250000 0.500000 0.250000 -0.512119
O5    O     O_3   0.250000 0.000000 0.750000 -0.512383
O6    O     O_3   0.250000 0.000000 0.250000 -0.506453
O7    O     O_3   0.750000 0.000000 0.750000 -0.513035
O8    O     O_3   0.750000 0.000000 0.250000 -0.523363
O9    O     O_R   0.633160 0.478640 0.771350 -0.603931
O10   O     O_R   0.633160 0.478640 0.228650 -0.646789
O11   O     O_R   0.366840 0.478640 0.771350 -0.661057
O12   O     O_R   0.366840 0.478640 0.228650 -0.646488
O13   O     O_R   0.133160 0.978640 0.771350 -0.641116
O14   O     O_R   0.133160 0.978640 0.228650 -0.645029
O15   O     O_R   0.866840 0.978640 0.771350 -0.613975
O16   O     O_R   0.866840 0.978640 0.228650 -0.647052
O17   O     O_R   0.133160 0.478640 0.271350 -0.641214
O18   O     O_R   0.133160 0.478640 0.728650 -0.645347
O19   O     O_R   0.866840 0.478640 0.271350 -0.613555
O20   O     O_R   0.866840 0.478640 0.728650 -0.647116
O21   O     O_R   0.633160 0.978640 0.271350 -0.603925
O22   O     O_R   0.633160 0.978640 0.728650 -0.646789
O23   O     O_R   0.366840 0.978640 0.271350 -0.661432
O24   O     O_R   0.366840 0.978640 0.728650 -0.646350
O25   O     O_R   0.719360 0.521340 0.668540 -0.614245
O26   O     O_R   0.719360 0.521340 0.331460 -0.607335
O27   O     O_R   0.280640 0.521340 0.668540 -0.609220
O28   O     O_R   0.280640 0.521340 0.331460 -0.625979
O29   O     O_R   0.219360 0.021340 0.668540 -0.602003
O30   O     O_R   0.219360 0.021340 0.331460 -0.606274
O31   O     O_R   0.780640 0.021340 0.668540 -0.620405
O32   O     O_R   0.780640 0.021340 0.331460 -0.630078
O33   O     O_R   0.219360 0.521340 0.168540 -0.605658
O34   O     O_R   0.219360 0.521340 0.831460 -0.598289
O35   O     O_R   0.780640 0.521340 0.168540 -0.621306
O36   O     O_R   0.780640 0.521340 0.831460 -0.631053
O37   O     O_R   0.719360 0.021340 0.168540 -0.613232
O38   O     O_R   0.719360 0.021340 0.831460 -0.606217
O39   O     O_R   0.280640 0.021340 0.168540 -0.608764
O40   O     O_R   0.280640 0.021340 0.831460 -0.625493
O41   O     O_R   0.719340 0.581460 0.728640 -0.621716
O42   O     O_R   0.719340 0.581460 0.271360 -0.639146
O43   O     O_R   0.280660 0.581460 0.728640 -0.633619
O44   O     O_R   0.280660 0.581460 0.271360 -0.619734
O45   O     O_R   0.219340 0.081460 0.728640 -0.640088
O46   O     O_R   0.219340 0.081460 0.271360 -0.638222
O47   O     O_R   0.780660 0.081460 0.728640 -0.623262
O48   O     O_R   0.780660 0.081460 0.271360 -0.622535
O49   O     O_R   0.219340 0.581460 0.228640 -0.640345
O50   O     O_R   0.219340 0.581460 0.771360 -0.636228
O51   O     O_R   0.780660 0.581460 0.228640 -0.623754
O52   O     O_R   0.780660 0.581460 0.771360 -0.622489
O53   O     O_R   0.719340 0.081460 0.228640 -0.621412
O54   O     O_R   0.719340 0.081460 0.771360 -0.639068
O55   O     O_R   0.280660 0.081460 0.228640 -0.632949
O56   O     O_R   0.280660 0.081460 0.771360 -0.620080
O57   O     O_R   0.719390 0.418540 0.771360 -0.608140
O58   O     O_R   0.719390 0.418540 0.228640 -0.606000
O59   O     O_R   0.280610 0.418540 0.771360 -0.617185
O60   O     O_R   0.280610 0.418540 0.228640 -0.640273
O61   O     O_R   0.219390 0.918540 0.771360 -0.601291
O62   O     O_R   0.219390 0.918540 0.228640 -0.601611
O63   O     O_R   0.780610 0.918540 0.771360 -0.607246
O64   O     O_R   0.780610 0.918540 0.228640 -0.642288
O65   O     O_R   0.219390 0.418540 0.271360 -0.601341
O66   O     O_R   0.219390 0.418540 0.728640 -0.601344
O67   O     O_R   0.780610 0.418540 0.271360 -0.607157
O68   O     O_R   0.780610 0.418540 0.728640 -0.642146
O69   O     O_R   0.719390 0.918540 0.271360 -0.608290
O70   O     O_R   0.719390 0.918540 0.728640 -0.606105
O71   O     O_R   0.280610 0.918540 0.271360 -0.616250
O72   O     O_R   0.280610 0.918540 0.728640 -0.640448
O73   O     O_R   0.780640 0.478630 0.668540 -0.607618
O74   O     O_R   0.780640 0.478630 0.331460 -0.632819
O75   O     O_R   0.219360 0.478630 0.668540 -0.643960
O76   O     O_R   0.219360 0.478630 0.331460 -0.640635
O77   O     O_R   0.280640 0.978630 0.668540 -0.608244
O78   O     O_R   0.280640 0.978630 0.331460 -0.639391
O79   O     O_R   0.719360 0.978630 0.668540 -0.643092
O80   O     O_R   0.719360 0.978630 0.331460 -0.608826
O81   O     O_R   0.280640 0.478630 0.168540 -0.607098
O82   O     O_R   0.280640 0.478630 0.831460 -0.642832
O83   O     O_R   0.719360 0.478630 0.168540 -0.642648
O84   O     O_R   0.719360 0.478630 0.831460 -0.608211
O85   O     O_R   0.780640 0.978630 0.168540 -0.608116
O86   O     O_R   0.780640 0.978630 0.831460 -0.633607
O87   O     O_R   0.219360 0.978630 0.168540 -0.644265
O88   O     O_R   0.219360 0.978630 0.831460 -0.640934
O89   O     O_R   0.633140 0.521350 0.728640 -0.602695
O90   O     O_R   0.633140 0.521350 0.271360 -0.616765
O91   O     O_R   0.366860 0.521350 0.728640 -0.626808
O92   O     O_R   0.366860 0.521350 0.271360 -0.614243
O93   O     O_R   0.133140 0.021350 0.728640 -0.613128
O94   O     O_R   0.133140 0.021350 0.271360 -0.613765
O95   O     O_R   0.866860 0.021350 0.728640 -0.635796
O96   O     O_R   0.866860 0.021350 0.271360 -0.616890
O97   O     O_R   0.133140 0.521350 0.228640 -0.613054
O98   O     O_R   0.133140 0.521350 0.771360 -0.613044
O99   O     O_R   0.866860 0.521350 0.228640 -0.636555
O100  O     O_R   0.866860 0.521350 0.771360 -0.616884
O101  O     O_R   0.633140 0.021350 0.228640 -0.602591
O102  O     O_R   0.633140 0.021350 0.771360 -0.616525
O103  O     O_R   0.366860 0.021350 0.228640 -0.626849
O104  O     O_R   0.366860 0.021350 0.771360 -0.614135
C1    C     C_R   0.608616 0.499906 0.750193 0.962341
C2    C     C_R   0.608626 0.499939 0.249743 0.838039
C3    C     C_R   0.391361 0.500242 0.750501 0.742855
C4    C     C_R   0.391374 0.499724 0.249956 0.841797
C5    C     C_R   0.108616 0.000130 0.750422 0.827235
C6    C     C_R   0.108625 0.999939 0.249742 0.841336
C7    C     C_R   0.891345 0.999220 0.749443 0.903038
C8    C     C_R   0.891374 0.999725 0.249956 0.839402
C9    C     C_R   0.108616 0.500125 0.250418 0.827354
C10   C     C_R   0.108626 0.499940 0.749741 0.841044
C11   C     C_R   0.891345 0.499219 0.249444 0.903784
C12   C     C_R   0.891374 0.499726 0.749955 0.839713
C13   C     C_R   0.608616 0.999906 0.250193 0.962416
C14   C     C_R   0.608626 0.999939 0.749743 0.838126
C15   C     C_R   0.391361 0.000242 0.250501 0.742406
C16   C     C_R   0.391374 0.999724 0.749956 0.841961
C17   C     C_R   0.750017 0.500008 0.651082 0.847790
C18   C     C_R   0.750012 0.499996 0.348918 0.848203
C19   C     C_R   0.249987 0.500010 0.651081 0.818294
C20   C     C_R   0.249984 0.499995 0.348919 0.809090
C21   C     C_R   0.250013 0.000005 0.651082 0.857325
C22   C     C_R   0.250011 0.999996 0.348919 0.839557
C23   C     C_R   0.749994 0.000005 0.651081 0.808974
C24   C     C_R   0.749983 0.999996 0.348919 0.826712
C25   C     C_R   0.250014 0.499991 0.151082 0.859191
C26   C     C_R   0.250004 0.500008 0.848918 0.836352
C27   C     C_R   0.749993 0.500006 0.151082 0.809338
C28   C     C_R   0.749981 0.499997 0.848919 0.827030
C29   C     C_R   0.750017 0.000008 0.151082 0.847403
C30   C     C_R   0.750010 0.999995 0.848918 0.847736
C31   C     C_R   0.249987 0.000010 0.151081 0.818067
C32   C     C_R   0.249985 0.999995 0.848919 0.808978
C33   C     C_R   0.749999 0.598899 0.750003 0.857043
C34   C     C_R   0.749999 0.598901 0.250000 0.833517
C35   C     C_R   0.250003 0.598900 0.750002 0.812993
C36   C     C_R   0.250006 0.598899 0.249998 0.835513
C37   C     C_R   0.250006 0.098899 0.749998 0.835926
C38   C     C_R   0.250003 0.098900 0.250002 0.813102
C39   C     C_R   0.749999 0.098901 0.750000 0.833755
C40   C     C_R   0.749999 0.098899 0.250003 0.857213
C41   C     C_R   0.749995 0.401089 0.749997 0.829974
C42   C     C_R   0.749999 0.401090 0.249998 0.864873
C43   C     C_R   0.249997 0.401090 0.749999 0.844730
C44   C     C_R   0.249999 0.401088 0.249999 0.835940
C45   C     C_R   0.249999 0.901088 0.749999 0.835347
C46   C     C_R   0.249997 0.901090 0.249999 0.845611
C47   C     C_R   0.749999 0.901090 0.749997 0.864610
C48   C     C_R   0.749995 0.901089 0.249997 0.829671
H1    H     H_    0.667920 0.285081 0.750415 0.201111
H2    H     H_    0.667974 0.285080 0.251920 0.200859
H3    H     H_    0.331831 0.285095 0.754391 0.199459
H4    H     H_    0.332024 0.285089 0.251968 0.199831
H5    H     H_    0.168042 0.785080 0.747385 0.198133
H6    H     H_    0.167963 0.785080 0.251067 0.201207
H7    H     H_    0.831924 0.785090 0.746827 0.195631
H8    H     H_    0.832022 0.785094 0.250610 0.199776
H9    H     H_    0.168005 0.285080 0.248052 0.198240
H10   H     H_    0.168179 0.285078 0.745589 0.201248
H11   H     H_    0.831998 0.285090 0.248072 0.195651
H12   H     H_    0.832025 0.285094 0.749555 0.199769
H13   H     H_    0.667922 0.785081 0.249360 0.201035
H14   H     H_    0.668049 0.785080 0.753164 0.200727
H15   H     H_    0.332045 0.785095 0.248913 0.198915
H16   H     H_    0.331988 0.785089 0.752637 0.199763
C49   C     C_R   0.702830 0.230915 0.750231 -0.019291
C50   C     C_R   0.702866 0.230913 0.251111 -0.022017
C51   C     C_R   0.297027 0.230922 0.752516 -0.018351
C52   C     C_R   0.297137 0.230918 0.251140 -0.018511
C53   C     C_R   0.202915 0.730913 0.748505 -0.017069
C54   C     C_R   0.202871 0.730914 0.250611 -0.017976
C55   C     C_R   0.797069 0.730919 0.748182 -0.016503
C56   C     C_R   0.797121 0.730923 0.250345 -0.017454
C57   C     C_R   0.202894 0.230913 0.248887 -0.016956
C58   C     C_R   0.202994 0.230913 0.747464 -0.017993
C59   C     C_R   0.797111 0.230919 0.248897 -0.016392
C60   C     C_R   0.797123 0.230922 0.749738 -0.017489
C61   C     C_R   0.702832 0.730915 0.249624 -0.019186
C62   C     C_R   0.702910 0.730913 0.751825 -0.021841
C63   C     C_R   0.297149 0.730923 0.249371 -0.018188
C64   C     C_R   0.297116 0.730918 0.751525 -0.018352
C65   C     C_R   0.749978 0.211408 0.749986 -0.019626
C66   C     C_R   0.749990 0.211405 0.250007 -0.019315
C67   C     C_R   0.250013 0.211406 0.749991 -0.019838
C68   C     C_R   0.250015 0.211405 0.250013 -0.019787
C69   C     C_R   0.250015 0.711405 0.750015 -0.019645
C70   C     C_R   0.250012 0.711407 0.249992 -0.019763
C71   C     C_R   0.749991 0.711405 0.750006 -0.019374
C72   C     C_R   0.749978 0.711408 0.249986 -0.019690
C73   C     C_R   0.796389 0.269661 0.749742 -0.121346
C74   C     C_R   0.796379 0.269658 0.248909 -0.122911
C75   C     C_R   0.203719 0.269651 0.747501 -0.117243
C76   C     C_R   0.203624 0.269652 0.248903 -0.119723
C77   C     C_R   0.296386 0.769657 0.751498 -0.121050
C78   C     C_R   0.296414 0.769661 0.249381 -0.120707
C79   C     C_R   0.703638 0.769652 0.751789 -0.116462
C80   C     C_R   0.703560 0.769654 0.249631 -0.116390
C81   C     C_R   0.296406 0.269657 0.251118 -0.121056
C82   C     C_R   0.296293 0.269661 0.752479 -0.120760
C83   C     C_R   0.703595 0.269652 0.251086 -0.116055
C84   C     C_R   0.703559 0.269653 0.750228 -0.115997
C85   C     C_R   0.796387 0.769661 0.250339 -0.121639
C86   C     C_R   0.796337 0.769658 0.748205 -0.123168
C87   C     C_R   0.203597 0.769653 0.250600 -0.116525
C88   C     C_R   0.203645 0.769652 0.748526 -0.119598
C89   C     C_R   0.749973 0.288821 0.749986 0.051370
C90   C     C_R   0.749986 0.288820 0.249995 0.053298
C91   C     C_R   0.250004 0.288820 0.749990 0.051302
C92   C     C_R   0.250014 0.288818 0.250009 0.052723
C93   C     C_R   0.250015 0.788818 0.750010 0.052841
C94   C     C_R   0.250004 0.788821 0.249991 0.051598
C95   C     C_R   0.749987 0.788820 0.749994 0.053305
C96   C     C_R   0.749972 0.788821 0.249985 0.051342
C97   C     C_1   0.749983 0.171550 0.749991 -0.115507
C98   C     C_1   0.749993 0.171547 0.250009 -0.115052
C99   C     C_1   0.250016 0.171549 0.749995 -0.115644
C100  C     C_1   0.250014 0.171548 0.250011 -0.116882
C101  C     C_1   0.250014 0.671548 0.750012 -0.116327
C102  C     C_1   0.250015 0.671549 0.249995 -0.115452
C103  C     C_1   0.749994 0.671547 0.750008 -0.115296
C104  C     C_1   0.749982 0.671550 0.249991 -0.115749
C105  C     C_1   0.749974 0.328439 0.749988 -0.013593
C106  C     C_1   0.749988 0.328439 0.249993 -0.014230
C107  C     C_1   0.249999 0.328439 0.749992 -0.011790
C108  C     C_1   0.250011 0.328437 0.250005 -0.014803
C109  C     C_1   0.250011 0.828437 0.750005 -0.014902
C110  C     C_1   0.249999 0.828439 0.249992 -0.011103
C111  C     C_1   0.749988 0.828439 0.749992 -0.014619
C112  C     C_1   0.749973 0.828439 0.249988 -0.013957
C113  C     C_1   0.749983 0.361630 0.749991 -0.073702
C114  C     C_1   0.749993 0.361631 0.249994 -0.078739
C115  C     C_1   0.249996 0.361631 0.749994 -0.079451
C116  C     C_1   0.250005 0.361629 0.250001 -0.081718
C117  C     C_1   0.250005 0.861629 0.750002 -0.081928
C118  C     C_1   0.249996 0.861631 0.249994 -0.078719
C119  C     C_1   0.749993 0.861631 0.749994 -0.079108
C120  C     C_1   0.749983 0.861630 0.249991 -0.074109
C121  C     C_1   0.749990 0.138352 0.749995 -0.106211
C122  C     C_1   0.749997 0.138349 0.250008 -0.102401
C123  C     C_1   0.250014 0.138350 0.749997 -0.106964
C124  C     C_1   0.250009 0.138350 0.250007 -0.107452
C125  C     C_1   0.250009 0.638350 0.750008 -0.106341
C126  C     C_1   0.250014 0.638351 0.249998 -0.107233
C127  C     C_1   0.749997 0.638349 0.750008 -0.102774
C128  C     C_1   0.749990 0.638352 0.249995 -0.106767
C129  C     C_3   0.969202 0.459486 0.763575 -0.204504
C130  C     C_3   0.969771 0.462063 0.228565 -0.204785
C131  C     C_3   0.031083 0.457923 0.759668 -0.139242
C132  C     C_3   0.031060 0.459392 0.235807 -0.148292
C133  C     C_3   0.469202 0.959507 0.763646 -0.204792
C134  C     C_3   0.468745 0.957595 0.246740 -0.156489
C135  C     C_3   0.531084 0.957937 0.759742 -0.141039
C136  C     C_3   0.530815 0.957854 0.242722 -0.238718
C137  C     C_3   0.469202 0.459505 0.263641 -0.205015
C138  C     C_3   0.468745 0.457596 0.746732 -0.156615
C139  C     C_3   0.531084 0.457936 0.259736 -0.141586
C140  C     C_3   0.530816 0.457855 0.742714 -0.239375
C141  C     C_3   0.969202 0.959502 0.263631 -0.204211
C142  C     C_3   0.969767 0.961896 0.728873 -0.204783
C143  C     C_3   0.031084 0.957934 0.259726 -0.142269
C144  C     C_3   0.031056 0.959273 0.736161 -0.147178
C145  C     C_3   0.968920 0.509504 0.707883 -0.123409
C146  C     C_3   0.968942 0.502183 0.292430 -0.111194
C147  C     C_3   0.030796 0.513416 0.709434 -0.183209
C148  C     C_3   0.030278 0.508983 0.291668 -0.189283
C149  C     C_3   0.468920 0.009432 0.707870 -0.123497
C150  C     C_3   0.469154 0.020199 0.288486 -0.160030
C151  C     C_3   0.530796 0.013345 0.709414 -0.182092
C152  C     C_3   0.531092 0.015664 0.290617 -0.144494
C153  C     C_3   0.468920 0.509437 0.207871 -0.123432
C154  C     C_3   0.469154 0.520192 0.788489 -0.160401
C155  C     C_3   0.530795 0.513351 0.209416 -0.182089
C156  C     C_3   0.531092 0.515657 0.790620 -0.144400
C157  C     C_3   0.968920 0.009448 0.207873 -0.123423
C158  C     C_3   0.968933 0.002559 0.792400 -0.110693
C159  C     C_3   0.030796 0.013361 0.209419 -0.182665
C160  C     C_3   0.030276 0.009346 0.791586 -0.189096
C161  C     C_3   0.970837 0.529319 0.775265 -0.327139
C162  C     C_3   0.970725 0.532502 0.228831 -0.353677
C163  C     C_3   0.029157 0.525327 0.779273 -0.319484
C164  C     C_3   0.029184 0.528861 0.223989 -0.334605
C165  C     C_3   0.470837 0.029360 0.775218 -0.326757
C166  C     C_3   0.470625 0.022090 0.218179 -0.344976
C167  C     C_3   0.529157 0.025374 0.779233 -0.321466
C168  C     C_3   0.529039 0.025551 0.220831 -0.337192
C169  C     C_3   0.470837 0.529357 0.275222 -0.327018
C170  C     C_3   0.470625 0.522096 0.718183 -0.345198
C171  C     C_3   0.529157 0.525370 0.279236 -0.322107
C172  C     C_3   0.529039 0.525556 0.720835 -0.337572
C173  C     C_3   0.970837 0.029351 0.275229 -0.326719
C174  C     C_3   0.970730 0.032334 0.728547 -0.353389
C175  C     C_3   0.029157 0.025364 0.279242 -0.321818
C176  C     C_3   0.029188 0.028644 0.723739 -0.333439
C177  C     C_3   0.949024 0.498986 0.748622 -0.075299
C178  C     C_3   0.948947 0.498225 0.250314 -0.058993
C179  C     C_3   0.050975 0.498602 0.749008 -0.080080
C180  C     C_3   0.050951 0.498719 0.250849 -0.060858
C181  C     C_3   0.449025 0.998982 0.748626 -0.076738
C182  C     C_3   0.449039 0.999484 0.251740 -0.057138
C183  C     C_3   0.550975 0.998598 0.749013 -0.077613
C184  C     C_3   0.550960 0.999347 0.251523 -0.045290
C185  C     C_3   0.449025 0.498982 0.248626 -0.076367
C186  C     C_3   0.449039 0.499484 0.751740 -0.057127
C187  C     C_3   0.550975 0.498598 0.249013 -0.077199
C188  C     C_3   0.550960 0.499347 0.751523 -0.044956
C189  C     C_3   0.949025 0.998983 0.248625 -0.074875
C190  C     C_3   0.948948 0.998241 0.750318 -0.060229
C191  C     C_3   0.050975 0.998599 0.249012 -0.079302
C192  C     C_3   0.050950 0.998731 0.750861 -0.061667
H17   H     H_    0.961929 0.557475 0.765285 0.255318
H18   H     H_    0.961631 0.558608 0.243295 0.261734
H19   H     H_    0.047200 0.553048 0.778196 0.220570
H20   H     H_    0.047269 0.556267 0.228448 0.202895
H21   H     H_    0.461929 0.057499 0.765190 0.255357
H22   H     H_    0.453555 0.050070 0.216298 0.225018
H23   H     H_    0.547201 0.053093 0.778108 0.219930
H24   H     H_    0.538976 0.054720 0.226539 0.254834
H25   H     H_    0.461929 0.557497 0.265198 0.255292
H26   H     H_    0.453555 0.550076 0.716307 0.224808
H27   H     H_    0.547201 0.553089 0.278115 0.219715
H28   H     H_    0.538976 0.554724 0.726548 0.254702
H29   H     H_    0.961929 0.057494 0.265211 0.255175
H30   H     H_    0.961641 0.058562 0.742788 0.262028
H31   H     H_    0.047201 0.053083 0.278128 0.219882
H32   H     H_    0.047270 0.056087 0.727960 0.203443
H33   H     H_    0.952793 0.528334 0.803007 0.225679
H34   H     H_    0.952876 0.535929 0.201187 0.214414
H35   H     H_    0.038062 0.515445 0.807480 0.261963
H36   H     H_    0.038356 0.522162 0.194897 0.270383
H37   H     H_    0.452795 0.028422 0.802962 0.225832
H38   H     H_    0.460116 0.010118 0.191252 0.252399
H39   H     H_    0.538062 0.015540 0.807456 0.261227
H40   H     H_    0.545763 0.020458 0.193204 0.242421
H41   H     H_    0.452795 0.528414 0.302966 0.225505
H42   H     H_    0.460115 0.510129 0.691254 0.252372
H43   H     H_    0.538062 0.515532 0.307458 0.260875
H44   H     H_    0.545763 0.520468 0.693207 0.242228
H45   H     H_    0.952794 0.028402 0.302972 0.225588
H46   H     H_    0.952880 0.035529 0.700875 0.214395
H47   H     H_    0.038062 0.015519 0.307461 0.261043
H48   H     H_    0.038364 0.021691 0.694707 0.270800
H49   H     H_    0.670893 0.499021 0.966145 0.182617
H50   H     H_    0.670799 0.500345 0.033734 0.182383
H51   H     H_    0.328854 0.493740 0.966261 0.180823
H52   H     H_    0.328553 0.492398 0.033851 0.183464
H53   H     H_    0.171028 0.995501 0.966140 0.184903
H54   H     H_    0.170817 0.996837 0.033731 0.183292
H55   H     H_    0.829120 0.998574 0.966118 0.182297
H56   H     H_    0.829245 0.999897 0.033709 0.183877
H57   H     H_    0.170912 0.497144 0.466140 0.184885
H58   H     H_    0.170754 0.498477 0.533731 0.183282
H59   H     H_    0.828996 0.502463 0.466119 0.181783
H60   H     H_    0.828997 0.503773 0.533709 0.183485
H61   H     H_    0.671119 0.994885 0.466145 0.182707
H62   H     H_    0.670894 0.996216 0.533735 0.182416
H63   H     H_    0.329071 0.000910 0.466122 0.180817
H64   H     H_    0.329119 0.002222 0.533711 0.182909
C193  C     C_R   0.707120 0.499968 0.019165 -0.194483
C194  C     C_R   0.707172 0.499027 0.980765 -0.191242
C195  C     C_R   0.292518 0.495432 0.019234 -0.189693
C196  C     C_R   0.292719 0.496384 0.980834 -0.195224
C197  C     C_R   0.207101 0.998075 0.019162 -0.193075
C198  C     C_R   0.207236 0.997127 0.980762 -0.190490
C199  C     C_R   0.792919 0.999730 0.019151 -0.189333
C200  C     C_R   0.792846 0.998791 0.980750 -0.192705
C201  C     C_R   0.207072 0.498964 0.519162 -0.193073
C202  C     C_R   0.207170 0.498017 0.480762 -0.190479
C203  C     C_R   0.792770 0.501836 0.519151 -0.189176
C204  C     C_R   0.792786 0.500905 0.480751 -0.192626
C205  C     C_R   0.707157 0.997724 0.519165 -0.194544
C206  C     C_R   0.707303 0.996780 0.480765 -0.191173
C207  C     C_R   0.292832 0.000987 0.519153 -0.189728
C208  C     C_R   0.292814 0.000054 0.480753 -0.195500
C209  C     C_R   0.753377 0.500197 0.038674 -0.015987
C210  C     C_R   0.753482 0.498435 0.961318 -0.016905
C211  C     C_R   0.246425 0.498690 0.038684 -0.016712
C212  C     C_R   0.246809 0.500480 0.961330 -0.015002
C213  C     C_R   0.253249 0.000372 0.038671 -0.016866
C214  C     C_R   0.253512 0.998591 0.961316 -0.017530
C215  C     C_R   0.746671 0.000228 0.038674 -0.017439
C216  C     C_R   0.746526 0.998465 0.961318 -0.015611
C217  C     C_R   0.253293 0.500301 0.538671 -0.016844
C218  C     C_R   0.253485 0.498523 0.461316 -0.017479
C219  C     C_R   0.746582 0.500068 0.538675 -0.017292
C220  C     C_R   0.746602 0.498323 0.461318 -0.015338
C221  C     C_R   0.753271 0.000365 0.538673 -0.015982
C222  C     C_R   0.753552 0.998593 0.461318 -0.017112
C223  C     C_R   0.246594 0.000116 0.538676 -0.016686
C224  C     C_R   0.246552 0.998369 0.461319 -0.014643
C225  C     C_R   0.800637 0.499454 0.019569 0.219380
C226  C     C_R   0.800691 0.498700 0.980487 0.218610
C227  C     C_R   0.199577 0.502896 0.019520 0.215888
C228  C     C_R   0.199750 0.503667 0.980441 0.218919
C229  C     C_R   0.300483 0.001732 0.019566 0.219257
C230  C     C_R   0.300605 0.000965 0.980486 0.218883
C231  C     C_R   0.699400 0.999761 0.019583 0.218052
C232  C     C_R   0.699327 0.999004 0.980503 0.218047
C233  C     C_R   0.300561 0.500683 0.519566 0.219196
C234  C     C_R   0.300653 0.499918 0.480487 0.218909
C235  C     C_R   0.699464 0.497300 0.519584 0.217929
C236  C     C_R   0.699461 0.496552 0.480502 0.217971
C237  C     C_R   0.800482 0.002075 0.519567 0.219188
C238  C     C_R   0.800611 0.001315 0.480487 0.218736
C239  C     C_R   0.199389 0.998260 0.519585 0.215963
C240  C     C_R   0.199360 0.997512 0.480503 0.218320
C241  C     C_1   0.751541 0.499947 0.078381 0.061042
C242  C     C_1   0.751760 0.499036 0.921611 0.063427
C243  C     C_1   0.248222 0.499142 0.078391 0.065703
C244  C     C_1   0.248576 0.500094 0.921621 0.063845
C245  C     C_1   0.251449 0.000043 0.078379 0.063112
C246  C     C_1   0.251756 0.999107 0.921610 0.062683
C247  C     C_1   0.748506 0.999965 0.078382 0.066230
C248  C     C_1   0.748239 0.999054 0.921611 0.064578
C249  C     C_1   0.251477 0.500007 0.578379 0.063118
C250  C     C_1   0.251749 0.499077 0.421610 0.062783
C251  C     C_1   0.748444 0.499885 0.578382 0.066129
C252  C     C_1   0.748263 0.498993 0.421611 0.064784
C253  C     C_1   0.751472 0.000030 0.578381 0.061155
C254  C     C_1   0.751781 0.999104 0.421611 0.062974
C255  C     C_1   0.248449 0.999904 0.578383 0.065936
C256  C     C_1   0.248239 0.999011 0.421612 0.062968
C257  C     C_1   0.750673 0.499529 0.888403 -0.059561
C258  C     C_1   0.750472 0.499867 0.111594 -0.068575
C259  C     C_1   0.249585 0.499927 0.888407 -0.068384
C260  C     C_1   0.249338 0.499553 0.111599 -0.062073
C261  C     C_1   0.250662 0.999551 0.888402 -0.063284
C262  C     C_1   0.250420 0.999909 0.111592 -0.066244
C263  C     C_1   0.749318 0.999538 0.888402 -0.068713
C264  C     C_1   0.749562 0.999875 0.111594 -0.058356
C265  C     C_1   0.250664 0.499542 0.388402 -0.063272
C266  C     C_1   0.250434 0.499896 0.611592 -0.066294
C267  C     C_1   0.749318 0.499522 0.388402 -0.068774
C268  C     C_1   0.749529 0.499846 0.611594 -0.058526
C269  C     C_1   0.750671 0.999548 0.388403 -0.059632
C270  C     C_1   0.750437 0.999898 0.611594 -0.068379
C271  C     C_1   0.249311 0.999525 0.388403 -0.069337
C272  C     C_1   0.249529 0.999849 0.611595 -0.061470
N1    N     N_R   0.848224 0.498127 0.039626 0.237808
O105  O     O_R   0.883110 0.473935 0.031007 -0.270458
O106  O     O_R   0.856674 0.520736 0.066850 -0.330526
N2    N     N_R   0.848355 0.499612 0.960493 0.240096
O107  O     O_R   0.883661 0.523458 0.969195 -0.266535
O108  O     O_R   0.856433 0.477005 0.933208 -0.334522
N3    N     N_R   0.152384 0.507759 0.039520 0.240049
O109  O     O_R   0.121181 0.534407 0.030858 -0.270991
O110  O     O_R   0.140699 0.485945 0.066773 -0.314517
N4    N     N_R   0.152269 0.506337 0.960389 0.240284
O111  O     O_R   0.113702 0.485222 0.968994 -0.261120
O112  O     O_R   0.147526 0.529529 0.933197 -0.325099
N5    N     N_R   0.348091 0.002547 0.039623 0.238970
O113  O     O_R   0.385002 0.979956 0.031020 -0.264450
O114  O     O_R   0.354579 0.025527 0.066814 -0.329808
N6    N     N_R   0.348100 0.003987 0.960493 0.240237
O115  O     O_R   0.381276 0.029371 0.969176 -0.270809
O116  O     O_R   0.358125 0.981756 0.933232 -0.329821
N7    N     N_R   0.651805 0.998716 0.039655 0.239629
O117  O     O_R   0.616645 0.974723 0.031058 -0.265477
O118  O     O_R   0.643614 0.021392 0.066866 -0.325690
N8    N     N_R   0.651670 0.000187 0.960524 0.239935
O119  O     O_R   0.616638 0.024236 0.969233 -0.268385
O120  O     O_R   0.643331 0.977621 0.933246 -0.317691
N9    N     N_R   0.348181 0.500507 0.539624 0.238969
O121  O     O_R   0.384167 0.477156 0.531022 -0.264702
O122  O     O_R   0.355588 0.523339 0.566819 -0.329751
N10   N     N_R   0.348251 0.501955 0.460494 0.240261
O123  O     O_R   0.382435 0.526636 0.469182 -0.270686
O124  O     O_R   0.357374 0.479532 0.433226 -0.330415
N11   N     N_R   0.652080 0.493925 0.539655 0.239686
O125  O     O_R   0.619275 0.468266 0.531056 -0.267043
O126  O     O_R   0.641764 0.516139 0.566873 -0.324513
N12   N     N_R   0.651801 0.495410 0.460524 0.239991
O127  O     O_R   0.614570 0.517680 0.469247 -0.266553
O128  O     O_R   0.645620 0.472506 0.433230 -0.319065
N13   N     N_R   0.848080 0.003234 0.539623 0.237558
O129  O     O_R   0.885317 0.980927 0.531003 -0.266746
O130  O     O_R   0.854232 0.026233 0.566839 -0.331871
N14   N     N_R   0.848058 0.004699 0.460491 0.240259
O131  O     O_R   0.880860 0.030332 0.469176 -0.270193
O132  O     O_R   0.858401 0.982552 0.433223 -0.331752
N15   N     N_R   0.151894 0.995803 0.539657 0.240299
O133  O     O_R   0.118133 0.970796 0.531049 -0.265976
O134  O     O_R   0.142420 0.018200 0.566883 -0.318050
N16   N     N_R   0.151676 0.997296 0.460524 0.239817
O135  O     O_R   0.115297 0.020286 0.469245 -0.266538
O136  O     O_R   0.144634 0.974518 0.433233 -0.318129
C273  C     C_2   0.652677 0.211276 0.750489 0.460018
H65   H     H_    0.651065 0.181387 0.750495 0.084369
O137  O     O_2   0.612247 0.228312 0.750698 -0.518730
C274  C     C_2   0.652739 0.211274 0.252295 0.465255
H66   H     H_    0.651127 0.181385 0.252344 0.094120
O138  O     O_2   0.612329 0.228309 0.253237 -0.515258
C275  C     C_2   0.347047 0.211294 0.755197 0.462502
H67   H     H_    0.348665 0.181406 0.755274 0.092669
O139  O     O_2   0.387362 0.228339 0.757372 -0.519084
C276  C     C_2   0.347264 0.211284 0.252342 0.462193
H68   H     H_    0.348877 0.181396 0.252386 0.084694
O140  O     O_2   0.387672 0.228325 0.253306 -0.515123
C277  C     C_2   0.152809 0.711276 0.746899 0.458753
H69   H     H_    0.151197 0.681388 0.746853 0.085682
O141  O     O_2   0.112420 0.728313 0.745600 -0.522900
C278  C     C_2   0.152725 0.711275 0.251271 0.459428
H70   H     H_    0.151114 0.681387 0.251286 0.081009
O142  O     O_2   0.112301 0.728311 0.251809 -0.517820
C279  C     C_2   0.847154 0.711288 0.746246 0.459606
H71   H     H_    0.848767 0.681400 0.746191 0.092378
O143  O     O_2   0.887524 0.728330 0.744679 -0.524161
C280  C     C_2   0.847275 0.711294 0.250727 0.462731
H72   H     H_    0.848892 0.681406 0.250734 0.089715
O144  O     O_2   0.887701 0.728337 0.251041 -0.517169
C281  C     C_2   0.152766 0.211276 0.247689 0.457591
H73   H     H_    0.151152 0.181388 0.247653 0.085552
O145  O     O_2   0.112359 0.228313 0.246721 -0.523087
C282  C     C_2   0.152978 0.211275 0.744780 0.459417
H74   H     H_    0.151366 0.181386 0.744698 0.082120
O146  O     O_2   0.112660 0.228312 0.742608 -0.518191
C283  C     C_2   0.847242 0.211288 0.247723 0.459823
H75   H     H_    0.848857 0.181400 0.247689 0.092344
O147  O     O_2   0.887649 0.228330 0.246771 -0.524231
C284  C     C_2   0.847279 0.211293 0.749476 0.463276
H76   H     H_    0.848896 0.181405 0.749464 0.089950
O148  O     O_2   0.887706 0.228337 0.749267 -0.517235
C285  C     C_2   0.652681 0.711275 0.249238 0.459346
H77   H     H_    0.651069 0.681387 0.249226 0.084193
O149  O     O_2   0.612252 0.728311 0.248925 -0.518902
C286  C     C_2   0.652828 0.711274 0.753768 0.464511
H78   H     H_    0.651219 0.681385 0.753838 0.094025
O150  O     O_2   0.612455 0.728310 0.755327 -0.515574
C287  C     C_2   0.347298 0.711292 0.248709 0.462296
H79   H     H_    0.348914 0.681404 0.248688 0.092637
O151  O     O_2   0.387719 0.728335 0.248173 -0.519188
C288  C     C_2   0.347221 0.711284 0.753135 0.462332
H80   H     H_    0.348833 0.681396 0.753190 0.084566
O152  O     O_2   0.387611 0.728325 0.754431 -0.515319
C289  C     C_2   0.944986 0.425794 0.744518 0.226459
H81   H     H_    0.920658 0.427812 0.720583 0.149754
O153  O     O_2   0.953454 0.394741 0.756220 -0.530127
C290  C     C_2   0.943464 0.425019 0.237639 0.218032
H82   H     H_    0.965644 0.400060 0.241530 0.124132
O154  O     O_2   0.896943 0.421182 0.236365 -0.558907
C291  C     C_2   0.048852 0.429705 0.730485 0.403284
H83   H     H_    0.028217 0.425885 0.705104 0.063121
O155  O     O_2   0.086798 0.410322 0.735005 -0.527003
C292  C     C_2   0.044790 0.429456 0.264170 0.243529
H84   H     H_    0.020304 0.424109 0.287565 0.085422
O156  O     O_2   0.083771 0.410814 0.261506 -0.526299
C293  C     C_2   0.444981 0.925786 0.744646 0.226219
H85   H     H_    0.420619 0.927768 0.720726 0.149241
O157  O     O_2   0.453469 0.894750 0.756387 -0.529801
C294  C     C_2   0.452552 0.933857 0.280242 0.351886
H86   H     H_    0.464292 0.941022 0.307646 0.048436
O158  O     O_2   0.428228 0.905169 0.277193 -0.542581
C295  C     C_2   0.548859 0.929671 0.730609 0.402818
H87   H     H_    0.528203 0.925780 0.705248 0.063106
O159  O     O_2   0.586843 0.910330 0.735148 -0.527986
C296  C     C_2   0.556285 0.928597 0.268157 0.405497
H88   H     H_    0.547269 0.926524 0.297069 0.079798
O160  O     O_2   0.587807 0.906331 0.256667 -0.539557
C297  C     C_2   0.444981 0.425787 0.244636 0.226295
H89   H     H_    0.420622 0.427772 0.220715 0.149211
O161  O     O_2   0.453468 0.394749 0.256374 -0.529589
C298  C     C_2   0.452551 0.433851 0.780229 0.351889
H90   H     H_    0.464290 0.441011 0.807635 0.048297
O162  O     O_2   0.428230 0.405164 0.777174 -0.542676
C299  C     C_2   0.548859 0.429673 0.230600 0.402931
H91   H     H_    0.528204 0.425789 0.205237 0.063186
O163  O     O_2   0.586839 0.410329 0.235138 -0.527768
C300  C     C_2   0.556286 0.428594 0.768145 0.405615
H92   H     H_    0.547266 0.426514 0.797056 0.079971
O164  O     O_2   0.587813 0.406334 0.756651 -0.539373
C301  C     C_2   0.944982 0.925788 0.244618 0.226234
H93   H     H_    0.920628 0.927778 0.220694 0.149602
O165  O     O_2   0.953466 0.894748 0.256350 -0.529905
C302  C     C_2   0.943359 0.924957 0.738273 0.220008
H94   H     H_    0.965440 0.900103 0.742985 0.123808
O166  O     O_2   0.896876 0.921043 0.736514 -0.559072
C303  C     C_2   0.048858 0.929678 0.230582 0.402953
H95   H     H_    0.028207 0.925804 0.205217 0.063271
O167  O     O_2   0.086832 0.910328 0.235118 -0.526783
C304  C     C_2   0.044763 0.929588 0.764797 0.244395
H96   H     H_    0.020407 0.924593 0.788335 0.084836
O168  O     O_2   0.083556 0.910737 0.762185 -0.526192
C305  C     C_2   0.948924 0.455423 0.803603 0.441499
H97   H     H_    0.911849 0.442489 0.808362 0.086037
O169  O     O_2   0.971099 0.468200 0.830413 -0.535950
C306  C     C_2   0.953633 0.466777 0.187588 0.421709
H98   H     H_    0.913712 0.462452 0.180048 0.117575
O170  O     O_2   0.982555 0.477065 0.163172 -0.521861
C307  C     C_2   0.054960 0.443032 0.795675 0.616756
H99   H     H_    0.042202 0.416421 0.805980 0.117688
O171  O     O_2   0.088363 0.459278 0.812829 -0.567363
C308  C     C_2   0.058116 0.446366 0.200360 0.620541
H100  H     H_    0.047979 0.419590 0.189028 0.075734
O172  O     O_2   0.090207 0.464790 0.184144 -0.541392
C309  C     C_2   0.448924 0.955511 0.803680 0.442422
H101  H     H_    0.411851 0.942583 0.808462 0.086757
O173  O     O_2   0.471098 0.968335 0.830469 -0.534542
C310  C     C_2   0.440221 0.940359 0.212973 0.398077
H102  H     H_    0.407187 0.922589 0.217013 0.143492
O174  O     O_2   0.450075 0.948212 0.180983 -0.574656
C311  C     C_2   0.554959 0.943106 0.795775 0.619170
H103  H     H_    0.542203 0.916511 0.806122 0.118851
O175  O     O_2   0.588358 0.959382 0.812905 -0.563062
C312  C     C_2   0.547841 0.945250 0.203808 0.612734
H104  H     H_    0.533898 0.919053 0.193266 0.128541
O176  O     O_2   0.580229 0.961365 0.185574 -0.581261
C313  C     C_2   0.448924 0.455504 0.303675 0.442753
H105  H     H_    0.411850 0.442576 0.308454 0.086994
O177  O     O_2   0.471098 0.468324 0.330465 -0.534498
C314  C     C_2   0.440221 0.440367 0.712962 0.398320
H106  H     H_    0.407184 0.422599 0.716998 0.143641
O178  O     O_2   0.450077 0.448224 0.680973 -0.573897
C315  C     C_2   0.554959 0.443100 0.295768 0.619856
H107  H     H_    0.542203 0.416504 0.306111 0.119224
O179  O     O_2   0.588359 0.459374 0.312900 -0.562652
C316  C     C_2   0.547842 0.445258 0.703798 0.613443
H108  H     H_    0.533899 0.419062 0.693252 0.128699
O180  O     O_2   0.580228 0.461376 0.685566 -0.580155
C317  C     C_2   0.948924 0.955492 0.303663 0.441651
H109  H     H_    0.911850 0.942562 0.308440 0.085506
O181  O     O_2   0.971098 0.968306 0.330457 -0.534958
C318  C     C_2   0.953681 0.966300 0.687843 0.422077
H110  H     H_    0.913734 0.962057 0.680331 0.117052
O182  O     O_2   0.982674 0.976267 0.663337 -0.522901
C319  C     C_2   0.054959 0.943090 0.295754 0.620783
H111  H     H_    0.042203 0.916492 0.306092 0.118708
O183  O     O_2   0.088359 0.959360 0.312890 -0.561083
C320  C     C_2   0.058147 0.945945 0.700839 0.619767
H112  H     H_    0.048007 0.919079 0.689723 0.076002
O184  O     O_2   0.090269 0.964225 0.684492 -0.544905
C321  C     C_2   0.951168 0.480241 0.679746 0.395617
H113  H     H_    0.971771 0.454843 0.676054 0.063350
O185  O     O_2   0.913285 0.484717 0.660278 -0.534947
C322  C     C_2   0.953695 0.467893 0.315039 0.317860
H114  H     H_    0.937845 0.443624 0.302424 0.132397
O186  O     O_2   0.957636 0.467271 0.348671 -0.520003
C323  C     C_2   0.055009 0.494258 0.675781 0.220194
H115  H     H_    0.079281 0.470313 0.677870 0.149749
O187  O     O_2   0.046579 0.505874 0.644674 -0.546906
C324  C     C_2   0.056250 0.487977 0.323566 0.368588
H116  H     H_    0.076426 0.462319 0.319819 0.144871
O188  O     O_2   0.053333 0.499534 0.355226 -0.522003
C325  C     C_2   0.451174 0.980118 0.679782 0.394867
H117  H     H_    0.471755 0.954701 0.676161 0.062847
O189  O     O_2   0.413330 0.984575 0.660271 -0.535915
C326  C     C_2   0.443479 0.007576 0.324478 0.186947
H118  H     H_    0.413980 0.986755 0.325337 0.149603
O190  O     O_2   0.454801 0.022237 0.353772 -0.551727
C327  C     C_2   0.555003 0.994131 0.675790 0.220239
H119  H     H_    0.579241 0.970172 0.677914 0.149679
O191  O     O_2   0.546593 0.005708 0.644666 -0.547730
C328  C     C_2   0.548546 0.990944 0.322842 0.345396
H120  H     H_    0.523419 0.971028 0.335499 0.096114
O192  O     O_2   0.591707 0.993287 0.335915 -0.541199
C329  C     C_2   0.451174 0.480128 0.179779 0.394754
H121  H     H_    0.471757 0.454712 0.176153 0.062901
O193  O     O_2   0.413327 0.484586 0.160272 -0.536143
C330  C     C_2   0.443480 0.507563 0.824480 0.187502
H122  H     H_    0.413983 0.486741 0.825336 0.149463
O194  O     O_2   0.454802 0.522219 0.853776 -0.551027
C331  C     C_2   0.555004 0.494141 0.175790 0.220155
H123  H     H_    0.579244 0.470183 0.177911 0.149757
O195  O     O_2   0.546592 0.505722 0.144667 -0.547724
C332  C     C_2   0.548546 0.490932 0.822840 0.345378
H124  H     H_    0.523420 0.471011 0.835492 0.096064
O196  O     O_2   0.591705 0.493275 0.835917 -0.541140
C333  C     C_2   0.951173 0.980145 0.179774 0.395666
H125  H     H_    0.971758 0.954732 0.176138 0.063045
O197  O     O_2   0.913321 0.984607 0.160272 -0.535035
C334  C     C_2   0.953661 0.968473 0.815304 0.317727
H126  H     H_    0.937825 0.944092 0.802896 0.131043
O198  O     O_2   0.957576 0.968144 0.848942 -0.520191
C335  C     C_2   0.055004 0.994159 0.175788 0.220282
H127  H     H_    0.079250 0.970203 0.177905 0.149654
O199  O     O_2   0.046590 0.005745 0.144668 -0.546913
C336  C     C_2   0.056262 0.988618 0.823657 0.366673
H128  H     H_    0.076605 0.963001 0.820108 0.144606
O200  O     O_2   0.053219 0.000391 0.855232 -0.521678
C337  C     C_2   0.945036 0.545440 0.692865 0.604767
H129  H     H_    0.957794 0.555652 0.666204 0.111393
O201  O     O_2   0.911629 0.562635 0.709066 -0.592077
C338  C     C_2   0.942219 0.533542 0.313752 0.553262
H130  H     H_    0.953359 0.538703 0.342186 0.141835
O202  O     O_2   0.909330 0.553339 0.300193 -0.602778
C339  C     C_2   0.051070 0.553404 0.705238 0.419561
H131  H     H_    0.088146 0.558118 0.692282 0.079077
O203  O     O_2   0.028889 0.580239 0.717935 -0.570099
C340  C     C_2   0.047878 0.549187 0.299152 0.435535
H132  H     H_    0.087400 0.554083 0.307431 0.059680
O204  O     O_2   0.020589 0.576148 0.294451 -0.556232
C341  C     C_2   0.445034 0.045342 0.692793 0.605212
H133  H     H_    0.457793 0.055511 0.666115 0.111323
O205  O     O_2   0.411625 0.062562 0.708965 -0.590349
C342  C     C_2   0.449683 0.060590 0.286187 0.444294
H134  H     H_    0.411240 0.067116 0.295909 0.070792
O206  O     O_2   0.474064 0.085518 0.271796 -0.562306
C343  C     C_2   0.551070 0.053327 0.705152 0.419049
H135  H     H_    0.588148 0.058018 0.692189 0.078753
O207  O     O_2   0.528888 0.080184 0.717801 -0.570478
C344  C     C_2   0.555670 0.052910 0.300924 0.585124
H136  H     H_    0.543857 0.066236 0.326416 0.115626
O208  O     O_2   0.588345 0.068074 0.282143 -0.591941
C345  C     C_2   0.445034 0.545349 0.192799 0.605279
H137  H     H_    0.457793 0.555522 0.166123 0.111540
O209  O     O_2   0.411625 0.562568 0.208973 -0.590630
C346  C     C_2   0.449683 0.560584 0.786198 0.444569
H138  H     H_    0.411240 0.567108 0.795921 0.071397
O210  O     O_2   0.474064 0.585515 0.771812 -0.562385
C347  C     C_2   0.551069 0.553333 0.205159 0.419126
H139  H     H_    0.588148 0.558026 0.192197 0.078558
O211  O     O_2   0.528887 0.580188 0.217812 -0.570419
C348  C     C_2   0.555671 0.552902 0.800933 0.584952
H140  H     H_    0.543858 0.566223 0.826427 0.115700
O212  O     O_2   0.588346 0.568068 0.782155 -0.592118
C349  C     C_2   0.945035 0.045364 0.192809 0.604939
H141  H     H_    0.957793 0.055543 0.166136 0.111538
O213  O     O_2   0.911625 0.062579 0.208988 -0.592028
C350  C     C_2   0.942214 0.034106 0.813447 0.552863
H142  H     H_    0.953364 0.039520 0.841832 0.142054
O214  O     O_2   0.909316 0.053779 0.799720 -0.602409
C351  C     C_2   0.051069 0.053345 0.205171 0.419416
H143  H     H_    0.088147 0.058041 0.192210 0.079286
O215  O     O_2   0.028887 0.080197 0.217831 -0.570453
C352  C     C_2   0.047880 0.049610 0.798730 0.435629
H144  H     H_    0.087397 0.054575 0.806982 0.059652
O216  O     O_2   0.020600 0.076533 0.793784 -0.556395

loop_
_geom_bond_atom_site_label_1
_geom_bond_atom_site_label_2
_geom_bond_distance
_ccdc_geom_bond_type
C160  C352  1.551836 S    
Zn29  O101  1.961556 S    
C299  H91   1.074297 S    
Zn4   O4    1.935939 S    
C312  H104  1.086228 S    
Zn5   O5    1.935883 S    
O98   C10   1.274407 A    
O40   C32   1.279501 A    
C225  C226  1.416235 A    
C170  C172  1.530563 S    
C151  C183  1.619047 S    
C154  C330  1.535436 S    
C227  C228  1.416186 A    
C291  O155  1.224262 D    
C167  C183  1.569771 S    
C237  C238  1.416205 A    
C159  C191  1.619050 S    
C327  O191  1.223150 D    
C72   C104  1.445002 S    
C51   C275  1.488426 S    
C141  C189  1.618988 S    
Zn21  O5    1.936205 S    
C319  O183  1.221096 D    
C12   C177  1.503487 S    
C309  O173  1.221547 D    
C280  H72   1.084378 S    
C165  H21   1.107587 S    
C311  O175  1.221099 D    
Zn28  O52   1.907681 S    
C216  C232  1.412939 A    
C153  C345  1.543108 S    
C351  H143  1.087730 S    
Zn22  O6    1.935880 S    
O15   C7    1.262723 A    
C306  H98   1.087091 S    
O16   C8    1.260554 A    
C290  O154  1.221241 D    
C276  H68   1.084397 S    
C140  C300  1.554169 S    
C59   C66   1.417800 A    
C21   C272  1.430751 S    
O60   C44   1.278857 A    
C44   C116  1.430569 S    
C37   C123  1.430265 S    
C252  C267  1.203657 T    
O61   C45   1.278847 A    
Zn18  O26   1.906431 S    
C19   C266  1.430789 S    
C38   C124  1.430228 S    
C224  C240  1.412973 A    
Zn7   O70   1.907501 S    
C86   C95   1.395017 A    
C17   C268  1.430771 S    
C33   C127  1.430246 S    
Zn11  O83   1.906554 S    
O97   C9    1.274037 A    
Zn26  O98   1.961635 S    
C171  H27   1.110211 S    
C220  C252  1.439503 S    
Zn2   O2    1.936204 S    
C326  O190  1.223125 D    
C161  H33   1.110208 S    
C215  C231  1.413040 A    
H58   C201  1.083840 S    
Zn25  O49   1.907567 S    
C66   C98   1.445005 S    
C284  O148  1.221406 D    
C62   C79   1.404586 A    
N2    O108  1.301216 A    
C346  H138  1.088004 S    
C176  C192  1.569653 S    
C330  O194  1.223124 D    
Zn26  O50   1.907622 S    
H52   C195  1.083850 S    
C324  O188  1.223527 D    
C212  C244  1.439520 S    
C158  C160  1.617787 S    
C146  C178  1.618869 S    
Zn31  O55   1.907593 S    
C136  C296  1.554168 S    
C287  H79   1.084385 S    
C172  C188  1.570342 S    
C105  C113  1.203322 T    
C298  H90   1.070960 S    
Zn22  O46   1.907622 S    
C283  O147  1.221405 D    
C53   C277  1.488406 S    
N13   O130  1.301200 A    
C139  C187  1.610240 S    
C32   C261  1.430746 S    
C318  H110  1.087035 S    
N12   O127  1.301260 A    
C285  H77   1.084385 S    
C144  C304  1.537098 S    
H51   C196  1.083847 S    
O100  C12   1.274372 A    
H10   C75   1.084269 S    
C56   C85   1.404547 A    
C9    C180  1.503777 S    
C27   C258  1.430762 S    
C221  C253  1.439486 S    
Zn4   O76   1.906577 S    
C25   C260  1.430732 S    
C149  C341  1.543110 S    
C323  H115  1.076825 S    
C166  H38   1.102351 S    
C219  C251  1.439502 S    
N14   O131  1.301294 A    
C218  C250  1.439467 S    
Zn25  O33   1.906267 S    
C347  O211  1.221544 D    
C226  N2    1.438311 S    
O95   C7    1.272531 A    
C278  H70   1.084378 S    
C135  C183  1.610238 S    
O96   C8    1.274369 A    
O48   C40   1.279582 A    
O69   C48   1.278817 A    
C132  C308  1.539254 S    
O67   C42   1.278964 A    
C60   C73   1.404547 A    
C286  H78   1.084397 S    
C303  O167  1.224260 D    
C142  C190  1.622996 S    
Zn10  O59   1.907388 S    
C155  C331  1.538512 S    
C277  O141  1.221407 D    
C3    C186  1.504131 S    
C88   C93   1.395009 A    
C173  H45   1.110207 S    
H16   C77   1.084256 S    
C332  O196  1.223541 D    
C132  C180  1.611937 S    
O87   C31   1.279832 A    
Zn14  O63   1.907388 S    
C283  H75   1.084388 S    
C154  C186  1.615925 S    
C193  C194  1.391685 A    
H13   C80   1.084258 S    
C315  O179  1.221099 D    
O55   C38   1.279452 A    
O50   C35   1.279470 A    
O80   C24   1.279487 A    
C79   C95   1.395032 A    
C294  H86   1.070960 S    
O65   C44   1.278848 A    
Zn16  O13   1.961182 S    
C235  N11   1.438273 S    
C174  H30   1.107436 S    
O23   C15   1.261852 A    
N16   O135  1.301272 A    
Zn7   O79   1.906554 S    
C305  H97   1.087740 S    
Zn23  O95   1.961688 S    
C148  C340  1.551852 S    
C140  C316  1.546994 S    
Zn4   O17   1.961182 S    
C152  C184  1.619890 S    
C282  O146  1.221435 D    
C169  H25   1.107588 S    
C133  C135  1.619920 S    
Zn19  O3    1.935937 S    
C205  C206  1.391704 A    
C250  C265  1.203638 T    
C134  C136  1.624214 S    
Zn3   O66   1.907501 S    
O63   C47   1.278964 A    
C209  C241  1.439486 S    
Zn27  O51   1.907593 S    
N6    O115  1.301300 A    
C317  O181  1.221547 D    
O86   C30   1.279521 A    
H55   C200  1.083840 S    
C98   C122  1.203568 T    
O83   C27   1.279832 A    
C8    C189  1.503489 S    
H56   C199  1.083838 S    
C328  O192  1.223541 D    
O82   C26   1.279883 A    
C316  H108  1.086229 S    
Zn25  O4    1.936205 S    
C147  C339  1.550487 S    
C100  C124  1.203557 T    
C134  C182  1.613345 S    
C31   C262  1.430785 S    
Zn26  O3    1.935880 S    
C85   C96   1.395004 A    
C314  O178  1.220813 D    
C329  H121  1.074263 S    
C30   C263  1.430776 S    
O33   C25   1.279518 A    
Zn7   O7    1.935984 S    
C336  O200  1.223522 D    
Zn8   O8    1.935939 S    
N9    O122  1.301200 A    
Zn12  O1    1.935939 S    
C254  C269  1.203650 T    
N12   O128  1.301226 A    
C95   C111  1.436348 S    
H4    C81   1.084258 S    
C213  C229  1.413040 A    
C96   C112  1.436301 S    
C139  C315  1.543098 S    
C84   C89   1.395016 A    
C146  C322  1.540907 S    
C55   C71   1.417795 A    
C18   C267  1.430788 S    
C203  C204  1.391687 A    
C135  C295  1.542246 S    
C92   C108  1.436326 S    
C143  C191  1.610238 S    
C93   C109  1.436326 S    
C256  C271  1.203671 T    
Zn15  O62   1.907501 S    
C201  C202  1.391710 A    
C249  C266  1.203663 T    
Zn19  O43   1.907593 S    
O22   C14   1.260525 A    
C229  C230  1.416170 A    
Zn19  O91   1.961688 S    
Zn15  O6    1.935984 S    
C131  C291  1.542277 S    
C87   C94   1.395005 A    
C202  C218  1.397646 A    
C322  H114  1.074057 S    
Zn28  O36   1.906331 S    
C278  O142  1.221408 D    
C4    C185  1.503491 S    
O54   C39   1.279466 A    
Zn16  O88   1.906577 S    
C61   C72   1.417800 A    
C296  O160  1.224632 D    
C161  C163  1.533724 S    
C170  C186  1.570569 S    
C199  C200  1.391707 A    
Zn32  O56   1.907681 S    
O91   C3    1.273193 A    
C16   C181  1.503491 S    
N10   O123  1.301277 A    
C210  C226  1.412974 A    
C165  C167  1.533727 S    
O89   C1    1.273828 A    
C173  C175  1.533726 S    
C171  H43   1.107594 S    
C166  C168  1.530561 S    
C55   C86   1.404568 A    
C142  C318  1.552882 S    
O93   C5    1.274022 A    
Zn30  O102  1.961635 S    
Zn9   O4    1.935883 S    
Zn6   O6    1.936204 S    
O99   C11   1.272565 A    
C10   C179  1.503504 S    
C57   C76   1.404554 A    
C195  C211  1.397644 A    
C200  C216  1.397648 A    
Zn29  O53   1.907567 S    
C26   C259  1.430788 S    
C77   C93   1.395034 A    
C111  C119  1.203347 T    
C20   C265  1.430754 S    
O20   C12   1.260548 A    
O39   C31   1.279161 A    
Zn4   O65   1.907413 S    
C141  C317  1.550502 S    
O21   C13   1.261545 A    
C145  C147  1.619815 S    
C293  H85   1.076832 S    
C134  C310  1.562001 S    
C198  C214  1.397650 A    
Zn9   O60   1.907442 S    
C297  O161  1.223150 D    
Zn3   O18   1.961079 S    
C310  O174  1.220813 D    
C281  H73   1.084385 S    
C45   C117  1.430565 S    
C157  C159  1.619790 S    
C29   C264  1.430767 S    
C223  C239  1.413050 A    
C47   C119  1.430558 S    
Zn13  O64   1.907442 S    
C63   C287  1.488399 S    
C255  C272  1.203655 T    
Zn26  O34   1.906431 S    
C2    C187  1.503499 S    
C209  C225  1.413053 A    
C131  C307  1.543080 S    
C51   C82   1.404573 A    
C94   C110  1.436323 S    
C142  C302  1.543684 S    
Zn17  O41   1.907567 S    
H14   C79   1.084256 S    
C49   C84   1.404571 A    
Zn19  O27   1.906353 S    
C50   C274  1.488420 S    
C243  C260  1.203639 T    
Zn2   O74   1.906491 S    
C58   C67   1.417828 A    
Zn28  O100  1.961585 S    
C334  O198  1.223077 D    
C241  C258  1.203653 T    
C53   C88   1.404554 A    
C39   C121  1.430257 S    
N5    O113  1.301287 A    
C136  C184  1.624826 S    
C295  O159  1.224261 D    
C144  C320  1.539291 S    
C146  C338  1.540843 S    
C231  C232  1.416202 A    
Zn3   O3    1.935984 S    
H53   C198  1.083854 S    
C302  H94   1.082779 S    
C350  O214  1.221246 D    
C64   C77   1.404575 A    
C193  C209  1.397584 A    
H59   C204  1.083839 S    
Zn17  O1    1.936205 S    
Zn32  O5    1.935978 S    
C304  O168  1.224028 D    
C273  O137  1.221408 D    
C101  C125  1.203554 T    
C338  O202  1.221249 D    
Zn2   O67   1.907388 S    
Zn14  O86   1.906491 S    
C231  N7    1.438282 S    
C55   C279  1.488402 S    
O75   C19   1.279829 A    
C320  O184  1.220961 D    
O81   C25   1.279547 A    
C321  O185  1.224260 D    
C217  C233  1.413036 A    
N15   O133  1.301277 A    
C106  C114  1.203347 T    
C163  C179  1.569771 S    
C229  N5    1.438290 S    
O38   C30   1.279570 A    
C34   C128  1.430261 S    
C136  C312  1.546990 S    
H12   C73   1.084260 S    
C312  O176  1.220696 D    
Zn21  O29   1.906267 S    
H50   C193  1.083844 S    
C274  O138  1.221408 D    
C35   C125  1.430228 S    
Zn8   O21   1.961182 S    
C162  H34   1.111384 S    
C76   C92   1.395012 A    
C42   C114  1.430562 S    
C129  C131  1.619889 S    
O62   C46   1.278959 A    
C244  C259  1.203672 T    
C340  O204  1.220805 D    
C175  H47   1.107594 S    
C147  C323  1.538486 S    
Zn9   O81   1.906655 S    
C50   C66   1.417803 A    
C349  O213  1.221103 D    
C22   C271  1.430796 S    
C138  C314  1.562001 S    
C150  C152  1.624431 S    
C309  H101  1.087738 S    
C280  O144  1.221408 D    
O18   C10   1.260524 A    
C201  C217  1.397596 A    
C54   C70   1.417800 A    
C207  C223  1.397578 A    
Zn29  O8    1.936205 S    
C286  O150  1.221405 D    
C130  C178  1.622947 S    
Zn15  O87   1.906554 S    
Zn30  O7    1.935880 S    
O72   C45   1.278861 A    
C152  C328  1.540668 S    
C247  C264  1.203658 T    
C167  H39   1.107591 S    
C344  H136  1.086760 S    
C213  C245  1.439500 S    
Zn20  O92   1.961585 S    
C160  C336  1.540796 S    
Zn27  O35   1.906353 S    
C62   C71   1.417797 A    
C135  C311  1.543092 S    
C291  H83   1.074288 S    
O35   C27   1.279142 A    
Zn24  O32   1.906331 S    
C333  O197  1.224261 D    
C157  C349  1.543110 S    
C347  H139  1.087731 S    
C339  O203  1.221542 D    
C174  C176  1.539259 S    
C65   C97   1.445002 S    
Zn15  O14   1.961079 S    
C130  C290  1.543286 S    
Zn20  O28   1.906331 S    
C137  C185  1.618985 S    
C11   C178  1.501986 S    
C313  O177  1.221547 D    
C174  C190  1.572316 S    
C220  C236  1.412953 A    
C341  O205  1.221101 D    
C233  N9    1.438280 S    
O58   C42   1.278948 A    
C238  N14   1.438300 S    
O10   C2    1.260525 A    
C63   C78   1.404573 A    
N7    O118  1.301212 A    
C225  N1    1.438323 S    
Zn5   O24   1.961129 S    
C80   C96   1.395016 A    
N3    O109  1.301294 A    
Zn6   O23   1.961050 S    
H64   C207  1.083845 S    
C346  O210  1.221604 D    
C308  H100  1.086578 S    
C141  C301  1.538434 S    
C315  H107  1.086593 S    
O14   C6    1.260528 A    
C143  C319  1.543097 S    
C210  C242  1.439506 S    
O37   C29   1.279207 A    
C325  H117  1.074261 S    
C146  C148  1.617646 S    
C318  O182  1.220528 D    
C52   C68   1.417798 A    
O70   C47   1.278947 A    
C13   C184  1.503522 S    
C298  O162  1.222958 D    
C165  H37   1.110209 S    
O94   C6    1.274402 A    
C168  C184  1.570346 S    
Zn8   O80   1.906577 S    
C288  O152  1.221407 D    
C68   C100  1.444976 S    
N13   O129  1.301284 A    
C217  C249  1.439498 S    
Zn23  O31   1.906353 S    
C160  C192  1.617175 S    
C60   C65   1.417799 A    
C73   C89   1.395005 A    
H63   C208  1.083845 S    
C206  C222  1.397637 A    
O53   C40   1.279551 A    
C340  H132  1.087427 S    
O34   C26   1.279204 A    
Zn11  O10   1.961079 S    
O78   C22   1.279510 A    
C58   C75   1.404567 A    
C162  C164  1.539274 S    
C161  C177  1.569790 S    
C156  C188  1.619892 S    
O79   C23   1.279832 A    
C64   C69   1.417797 A    
Zn13  O8    1.935883 S    
O26   C18   1.279596 A    
O104  C16   1.274369 A    
C50   C83   1.404586 A    
C288  H80   1.084393 S    
C57   C281  1.488411 S    
C214  C230  1.412932 A    
C104  C128  1.203575 T    
C319  H111  1.086594 S    
O85   C29   1.279870 A    
O74   C18   1.279498 A    
C59   C74   1.404565 A    
N14   O132  1.301202 A    
C134  C294  1.546690 S    
C343  O207  1.221545 D    
C323  O187  1.223145 D    
C54   C87   1.404564 A    
O31   C23   1.279142 A    
O24   C16   1.260554 A    
C170  H42   1.102354 S    
Zn8   O69   1.907413 S    
Zn29  O37   1.906267 S    
Zn10  O82   1.906491 S    
C41   C113  1.430536 S    
Zn16  O5    1.935939 S    
C194  C210  1.397633 A    
H7    C86   1.084253 S    
O36   C28   1.279530 A    
O77   C21   1.279868 A    
Zn18  O90   1.961635 S    
C112  C120  1.203322 T    
C67   C99   1.445005 S    
C277  H69   1.084384 S    
C108  C116  1.203336 T    
O13   C5    1.261519 A    
C57   C68   1.417793 A    
C292  O156  1.224009 D    
C164  H36   1.107721 S    
C139  C299  1.542251 S    
C131  C179  1.610246 S    
C24   C269  1.430765 S    
Zn1   O68   1.907442 S    
N2    O107  1.301276 A    
Zn30  O38   1.906431 S    
C153  C155  1.619785 S    
C14   C183  1.503499 S    
C149  C151  1.619782 S    
C147  C179  1.619030 S    
H61   C206  1.083852 S    
Zn1   O1    1.935883 S    
C339  H131  1.087733 S    
C48   C120  1.430533 S    
C234  N10   1.438311 S    
O90   C2    1.274403 A    
C294  O158  1.222958 D    
N4    O112  1.301202 A    
C343  H135  1.087730 S    
C158  C190  1.618870 S    
O101  C13   1.273830 A    
N16   O136  1.301216 A    
C132  C292  1.537002 S    
H62   C205  1.083849 S    
O25   C17   1.279211 A    
C164  C180  1.569579 S    
C290  H82   1.082992 S    
C295  H87   1.074300 S    
C222  C254  1.439501 S    
Zn12  O9    1.961182 S    
O29   C21   1.279198 A    
C110  C118  1.203333 T    
C305  O169  1.221548 D    
Zn18  O42   1.907622 S    
C81   C92   1.395032 A    
C227  N3    1.438307 S    
O76   C20   1.279470 A    
C59   C283  1.488409 S    
C245  C262  1.203662 T    
N11   O125  1.301257 A    
O73   C17   1.279865 A    
O32   C24   1.279501 A    
N6    O116  1.301198 A    
C156  C348  1.540450 S    
C307  O171  1.221094 D    
C91   C107  1.436330 S    
Zn6   O71   1.907388 S    
C168  H24   1.108176 S    
Zn14  O15   1.961050 S    
C159  C351  1.550485 S    
C172  H44   1.107187 S    
O88   C32   1.279483 A    
C197  C213  1.397598 A    
C326  H118  1.077821 S    
C46   C118  1.430547 S    
C351  O215  1.221545 D    
C348  O212  1.220760 D    
C248  C263  1.203658 T    
C56   C72   1.417795 A    
C284  H76   1.084382 S    
C352  H144  1.087428 S    
O41   C33   1.279552 A    
C63   C70   1.417795 A    
C155  C187  1.619049 S    
C330  H122  1.077818 S    
Zn32  O104  1.961585 S    
C324  H116  1.077119 S    
C275  O139  1.221433 D    
C175  H31   1.110210 S    
N1    O106  1.301211 A    
Zn24  O8    1.935978 S    
O45   C37   1.279574 A    
C289  O153  1.223150 D    
C130  C132  1.621629 S    
C166  C182  1.570566 S    
C341  H133  1.086592 S    
C342  O206  1.221603 D    
N15   O134  1.301207 A    
C40   C122  1.430243 S    
Zn13  O85   1.906655 S    
C195  C196  1.391726 A    
C173  H29   1.107590 S    
H54   C197  1.083847 S    
C61   C285  1.488401 S    
Zn31  O6    1.935937 S    
C170  H26   1.109757 S    
C168  H40   1.107184 S    
C331  O195  1.223147 D    
C221  C237  1.413054 A    
C251  C268  1.203664 T    
C23   C270  1.430758 S    
C211  C243  1.439478 S    
C102  C126  1.203583 T    
O47   C39   1.279470 A    
C144  C192  1.612040 S    
H8    C85   1.084260 S    
C49   C273  1.488405 S    
C7    C190  1.501986 S    
O103  C15   1.273193 A    
C64   C288  1.488421 S    
C58   C282  1.488418 S    
N10   O124  1.301215 A    
O30   C22   1.279591 A    
C133  C293  1.538429 S    
C137  C297  1.538434 S    
C333  H125  1.074263 S    
C129  C305  1.550504 S    
Zn1   O20   1.961129 S    
C218  C234  1.412932 A    
H3    C82   1.084266 S    
C107  C115  1.203340 T    
Zn2   O19   1.961050 S    
C145  C177  1.610222 S    
C335  H127  1.076822 S    
Zn20  O4    1.935978 S    
C157  C333  1.542331 S    
H1    C84   1.084262 S    
C133  C181  1.618984 S    
C141  C143  1.619915 S    
N4    O111  1.301277 A    
C223  C255  1.439498 S    
C157  C189  1.610227 S    
Zn5   O77   1.906655 S    
Zn7   O22   1.961079 S    
C332  H124  1.077229 S    
C197  C198  1.391717 A    
H5    C88   1.084260 S    
C230  N6    1.438312 S    
C36   C126  1.430272 S    
C253  C270  1.203650 T    
Zn17  O25   1.906267 S    
C52   C276  1.488421 S    
C43   C115  1.430555 S    
H49   C194  1.083846 S    
C232  N8    1.438306 S    
C327  H119  1.076818 S    
C171  C187  1.569766 S    
C279  O143  1.221404 D    
O71   C46   1.278952 A    
Zn27  O99   1.961688 S    
C337  H129  1.086594 S    
C56   C280  1.488391 S    
C307  H99   1.086596 S    
C222  C238  1.412960 A    
C239  C240  1.416237 A    
Zn25  O97   1.961556 S    
O28   C20   1.279514 A    
C297  H89   1.076833 S    
C54   C278  1.488394 S    
C311  H103  1.086596 S    
N8    O120  1.301222 A    
C169  C171  1.533726 S    
C150  C326  1.535431 S    
C148  C324  1.540885 S    
Zn16  O61   1.907413 S    
C52   C81   1.404579 A    
C89   C105  1.436304 S    
C158  C334  1.540855 S    
C5    C192  1.503810 S    
C282  H74   1.084382 S    
C156  C332  1.540674 S    
H15   C78   1.084255 S    
C140  C188  1.624819 S    
N9    O121  1.301277 A    
C150  C342  1.552071 S    
C214  C246  1.439465 S    
C15   C182  1.504131 S    
C75   C91   1.395012 A    
Zn22  O94   1.961635 S    
Zn32  O40   1.906331 S    
C78   C94   1.395019 A    
C1    C188  1.503521 S    
C145  C337  1.543105 S    
C275  H67   1.084387 S    
O102  C14   1.274403 A    
O51   C34   1.279469 A    
C167  H23   1.110210 S    
C169  H41   1.110207 S    
Zn20  O44   1.907681 S    
C74   C90   1.395020 A    
O44   C36   1.279579 A    
C143  C303  1.542254 S    
O49   C36   1.279576 A    
C153  C185  1.610230 S    
C148  C180  1.617310 S    
C328  H120  1.077229 S    
C246  C261  1.203637 T    
C281  O145  1.221404 D    
C154  C346  1.552069 S    
O43   C35   1.279452 A    
Zn24  O48   1.907681 S    
C300  H92   1.076165 S    
C314  H106  1.085163 S    
C329  O193  1.224258 D    
O59   C43   1.278957 A    
C158  C350  1.540843 S    
C207  C208  1.391685 A    
O11   C3    1.261852 A    
C336  H128  1.077121 S    
O57   C41   1.278817 A    
Zn30  O54   1.907622 S    
C273  H65   1.084390 S    
C90   C106  1.436348 S    
C62   C286  1.488415 S    
C82   C91   1.395024 A    
C292  H84   1.078512 S    
Zn5   O72   1.907442 S    
C301  O165  1.223151 D    
Zn6   O78   1.906491 S    
C176  H48   1.107722 S    
C236  N12   1.438314 S    
O64   C48   1.278872 A    
O68   C41   1.278872 A    
C208  C224  1.397641 A    
C276  O140  1.221406 D    
Zn1   O73   1.906655 S    
C6    C191  1.503499 S    
C285  O149  1.221405 D    
C287  O151  1.221407 D    
C164  H20   1.111437 S    
Zn27  O2    1.935937 S    
Zn14  O7    1.936204 S    
C352  O216  1.220809 D    
C28   C257  1.430775 S    
O17   C9    1.261498 A    
C204  C220  1.397644 A    
C228  N4    1.438310 S    
C215  C247  1.439503 S    
Zn12  O57   1.907413 S    
C205  C221  1.397596 A    
C342  H134  1.088005 S    
C216  C248  1.439494 S    
O52   C33   1.279580 A    
C337  O201  1.221100 D    
C165  C181  1.569795 S    
C151  C343  1.550484 S    
C150  C182  1.615924 S    
O27   C19   1.279163 A    
C296  H88   1.076163 S    
C163  H19   1.110207 S    
C176  H32   1.111427 S    
Zn3   O75   1.906554 S    
N1    O105  1.301275 A    
C155  C347  1.550486 S    
C212  C228  1.413053 A    
C163  H35   1.107593 S    
O56   C37   1.279577 A    
O92   C4    1.274369 A    
C242  C257  1.203658 T    
C302  O166  1.221366 D    
C159  C335  1.538508 S    
C172  H28   1.108173 S    
C83   C90   1.395037 A    
C237  N13   1.438338 S    
C211  C227  1.412933 A    
Zn22  O30   1.906431 S    
C162  H18   1.107438 S    
C151  C327  1.538514 S    
C303  H95   1.074298 S    
O19   C11   1.262691 A    
N7    O117  1.301265 A    
C345  H137  1.086593 S    
C70   C102  1.445016 S    
C69   C101  1.444976 S    
C338  H130  1.086566 S    
C344  O208  1.220754 D    
Zn18  O2    1.935880 S    
H57   C202  1.083848 S    
Zn10  O3    1.936204 S    
C61   C80   1.404575 A    
C316  O180  1.220697 D    
C175  C191  1.569769 S    
C138  C298  1.546687 S    
C145  C321  1.542312 S    
C196  C212  1.397605 A    
H2    C83   1.084258 S    
C239  N15   1.438308 S    
C166  H22   1.109756 S    
C219  C235  1.413039 A    
C97   C121  1.203572 T    
C153  C329  1.542336 S    
C99   C123  1.203575 T    
C130  C306  1.552590 S    
C129  C289  1.538455 S    
C149  C325  1.542338 S    
C279  H71   1.084387 S    
C154  C156  1.624430 S    
C173  C189  1.569791 S    
C310  H102  1.085162 S    
C162  C178  1.572342 S    
Zn24  O96   1.961585 S    
C313  H105  1.087740 S    
Zn17  O89   1.961556 S    
O9    C1    1.261547 A    
C331  H123  1.076818 S    
N8    O119  1.301265 A    
Zn9   O12   1.961129 S    
C224  C256  1.439514 S    
H11   C74   1.084256 S    
C103  C127  1.203568 T    
Zn10  O11   1.961050 S    
H60   C203  1.083835 S    
C109  C117  1.203340 T    
O84   C28   1.279466 A    
Zn11  O2    1.935984 S    
H6    C87   1.084259 S    
H9    C76   1.084256 S    
Zn28  O1    1.935978 S    
Zn13  O16   1.961129 S    
C308  O172  1.220932 D    
C240  N16   1.438313 S    
N3    O110  1.301208 A    
C301  H93   1.076831 S    
C199  C215  1.397584 A    
C300  O164  1.224630 D    
C345  O209  1.221098 D    
C293  O157  1.223150 D    
C60   C284  1.488399 S    
C51   C67   1.417820 A    
C306  O170  1.220519 D    
Zn23  O47   1.907593 S    
C334  H126  1.074084 S    
C349  H141  1.086591 S    
C299  O163  1.224260 D    
N11   O126  1.301219 A    
C49   C65   1.417806 A    
C152  C344  1.540448 S    
N5    O114  1.301192 A    
C322  O186  1.223083 D    
C203  C219  1.397574 A    
C317  H109  1.087739 S    
C142  C144  1.621794 S    
Zn11  O58   1.907501 S    
C289  H81   1.076828 S    
C133  C309  1.550504 S    
C174  H46   1.111400 S    
Zn23  O7    1.935937 S    
C169  C185  1.569789 S    
C53   C69   1.417792 A    
C350  H142  1.086567 S    
C137  C139  1.619920 S    
O12   C4    1.260554 A    
C138  C140  1.624219 S    
C304  H96   1.078391 S    
O42   C34   1.279467 A    
Zn31  O103  1.961688 S    
C137  C313  1.550503 S    
C235  C236  1.416226 A    
C71   C103  1.445009 S    
C274  H66   1.084394 S    
C129  C177  1.619000 S    
C325  O189  1.224258 D    
C233  C234  1.416179 A    
C348  H140  1.086756 S    
Zn21  O45   1.907567 S    
O46   C38   1.279470 A    
C320  H112  1.086582 S    
C149  C181  1.610227 S    
C138  C186  1.613343 S    
Zn12  O84   1.906577 S    
C321  H113  1.074271 S    
C161  H17   1.107592 S    
Zn21  O93   1.961556 S    
Zn31  O39   1.906353 S    
C335  O199  1.223148 D    
O66   C43   1.278958 A    
