data_mof_unit_15173.cif
_audit_creation_date              2012-12-10T17:21:42-0500
_audit_creation_method            fapswitch 2.2
_symmetry_space_group_name_H-M    P1
_symmetry_Int_Tables_number       1
_space_group_crystal_system       triclinic
_cell_length_a                    10.741828
_cell_length_b                    10.778862
_cell_length_c                    9.612195
_cell_angle_alpha                 91.341123
_cell_angle_beta                  89.227555
_cell_angle_gamma                 91.293188
_cell_volume                      1112.26325764

loop_
_atom_site_label
_atom_site_type_symbol
_atom_type_description
_atom_site_fract_x
_atom_site_fract_y
_atom_site_fract_z
_atom_type_partial_charge
C1    C     C_R   0.498650 0.262654 0.498553 0.825011
C2    C     C_3   0.877796 0.498818 0.498163 0.150098
C3    C     C_3   0.929357 0.620044 0.567749 -0.389362
C4    C     C_3   0.930238 0.489587 0.347064 -0.364169
C5    C     C_R   0.292681 0.129338 0.630390 -0.179916
C6    C     C_R   0.195288 0.064831 0.695849 -0.128909
C7    C     C_R   0.194722 0.935900 0.697632 -0.116592
C8    C     C_R   0.291522 0.870972 0.633877 -0.157046
C9    C     C_R   0.391266 0.934459 0.567199 0.120088
C10   C     C_R   0.392155 0.065430 0.565280 0.083882
C11   C     C_R   0.491070 0.128529 0.495562 -0.149347
C12   C     C_R   0.259853 0.499148 0.500296 0.722308
C13   C     C_R   0.584075 0.062281 0.423834 0.147870
C14   C     C_R   0.582939 0.934325 0.427818 -0.200198
C15   C     C_R   0.489950 0.870673 0.501281 -0.114760
C16   C     C_R   0.677383 0.650098 0.140383 -0.140010
C17   C     C_R   0.769984 0.709532 0.061201 -0.231848
C18   C     C_R   0.755347 0.718164 0.918191 -0.224261
C19   C     C_R   0.640868 0.681657 0.862532 0.216348
C20   C     C_R   0.575313 0.583638 0.926775 0.155673
C21   C     C_R   0.582618 0.577274 0.074889 0.213911
C22   C     C_R   0.423312 0.423637 0.073066 -0.036124
C23   C     C_R   0.496491 0.737052 0.500972 0.793214
C24   C     C_R   0.425350 0.421728 0.925048 -0.040656
C25   C     C_R   0.739894 0.499369 0.499201 0.760499
C26   C     C_3   0.067669 0.385928 0.579488 -0.402643
C27   C     C_3   0.924070 0.386927 0.580389 -0.350554
C28   C     C_3   0.072921 0.619875 0.568296 -0.386589
C29   C     C_3   0.072802 0.489382 0.347719 -0.363993
C30   C     C_3   0.121493 0.498579 0.499479 0.169370
Cu1   Cu    Cu3+1 0.499990 0.499990 0.640660 0.951713
Cu2   Cu    Cu3+1 0.500010 0.500010 0.359340 0.953803
H1    H     H_    0.101513 0.388103 0.688474 0.168432
H2    H     H_    0.899591 0.569677 0.286271 0.164927
H3    H     H_    0.109401 0.701130 0.509944 0.156566
H4    H     H_    0.897111 0.702000 0.510950 0.151733
H5    H     H_    0.288073 0.229218 0.630026 0.127242
H6    H     H_    0.119755 0.115155 0.744841 0.134405
H7    H     H_    0.118961 0.885945 0.748392 0.131212
H8    H     H_    0.288048 0.771038 0.638185 0.139970
H9    H     H_    0.656573 0.883915 0.374839 0.155124
H10   H     H_    0.360287 0.361257 0.127472 0.135371
H11   H     H_    0.099325 0.298272 0.528521 0.159748
H12   H     H_    0.684027 0.664656 0.249844 0.188297
H13   H     H_    0.847056 0.757774 0.111865 0.164288
H14   H     H_    0.816982 0.780371 0.861405 0.159207
H15   H     H_    0.364121 0.357601 0.869181 0.134638
H16   H     H_    0.887102 0.298467 0.533806 0.184001
H17   H     H_    0.889479 0.392402 0.690006 0.180786
H18   H     H_    0.105874 0.629426 0.677379 0.169297
H19   H     H_    0.893955 0.628705 0.676660 0.174630
H20   H     H_    0.109442 0.569141 0.286672 0.176861
H21   H     H_    0.105702 0.402752 0.295146 0.170986
H22   H     H_    0.894628 0.403356 0.293969 0.205282
N1    N     N_R   0.501200 0.501210 0.147910 -0.190788
N2    N     N_R   0.501250 0.501290 0.852040 -0.199573
O1    O     O_R   0.499990 0.319640 0.618810 -0.576343
O2    O     O_R   0.500000 0.319660 0.381240 -0.550304
O3    O     O_R   0.317680 0.499970 0.618790 -0.596565
O4    O     O_R   0.317700 0.499990 0.381210 -0.589391
O5    O     O_R   0.500000 0.680340 0.618760 -0.564613
O6    O     O_R   0.500010 0.680360 0.381190 -0.590258
O7    O     O_R   0.682300 0.500010 0.618790 -0.583381
O8    O     O_R   0.682320 0.500030 0.381210 -0.596124
I1    I     I_    0.733386 0.147508 0.311311 -0.424229
I2    I     I_    0.539285 0.849040 0.869115 -0.358247

loop_
_geom_bond_atom_site_label_1
_geom_bond_atom_site_label_2
_ccdc_geom_bond_type
C27   H16   S    
C22   H10   S    
C2    C4    S    
C6    H6    S    
C16   C21   A    
C5    H5    S    
Cu1   N2    S    
C24   N2    A    
C8    H8    S    
C9    C10   A    
Cu1   O5    S    
C26   H1    S    
C4    C29   S    
C1    C11   S    
Cu2   O2    S    
C20   N2    A    
C2    C27   S    
C12   C30   S    
Cu1   O1    S    
C19   C20   A    
C15   C23   S    
C17   C18   A    
C9    C15   A    
C22   N1    A    
Cu2   O6    S    
C5    C10   A    
C13   I1    S    
C1    O2    A    
C11   C13   A    
C26   C27   S    
C29   C30   S    
C29   H21   S    
C3    H4    S    
C14   H9    S    
C18   H14   S    
C7    H7    S    
C28   C30   S    
C3    C28   S    
C17   H13   S    
C26   H11   S    
C26   C30   S    
C2    C25   S    
C2    C3    S    
C12   O3    A    
C4    H2    S    
C5    C6    A    
Cu1   Cu2   S    
C22   C24   A    
C10   C11   A    
Cu2   O4    S    
C12   O4    A    
Cu1   O7    S    
C7    C8    A    
C20   C21   A    
Cu2   O8    S    
C19   I2    S    
C18   C19   A    
C25   O7    A    
C23   O5    A    
Cu1   O3    S    
C21   N1    A    
C16   H12   S    
C14   C15   A    
C16   C17   A    
C3    H19   S    
Cu2   N1    S    
C4    H22   S    
C13   C14   A    
C24   H15   S    
C28   H18   S    
C25   O8    A    
C23   O6    A    
C6    C7    A    
C27   H17   S    
C28   H3    S    
C8    C9    A    
C29   H20   S    
C1    O1    A    
