data_mof_unit_13323.cif
_audit_creation_date              2012-12-10T16:38:08-0500
_audit_creation_method            fapswitch 2.2
_symmetry_space_group_name_H-M    P1
_symmetry_Int_Tables_number       1
_space_group_crystal_system       triclinic
_cell_length_a                    28.250376
_cell_length_b                    18.486547
_cell_length_c                    16.886308
_cell_angle_alpha                 89.766089
_cell_angle_beta                  60.98644
_cell_angle_gamma                 89.6163
_cell_volume                      7712.00089127

loop_
_atom_site_label
_atom_site_type_symbol
_atom_type_description
_atom_site_fract_x
_atom_site_fract_y
_atom_site_fract_z
_atom_type_partial_charge
C1    C     C_R   0.700942 0.265934 0.677119 0.916995
C2    C     C_R   0.097592 0.499224 0.502146 0.069215
C3    C     C_R   0.180244 0.233155 0.917779 0.076798
C4    C     C_R   0.619667 0.332942 0.047961 -0.185298
C5    C     C_R   0.342058 0.602291 0.000616 -0.191223
C6    C     C_R   0.345212 0.392929 0.992722 -0.199208
C7    C     C_R   0.615760 0.670543 0.051162 -0.184433
C8    C     C_R   0.116650 0.831127 0.049911 -0.185395
C9    C     C_R   0.884326 0.172062 0.949056 -0.192373
C10   C     C_R   0.840152 0.902111 0.002062 -0.185800
C11   C     C_R   0.114393 0.171514 0.051832 -0.183426
C12   C     C_R   0.651400 0.323744 0.089286 -0.225991
C13   C     C_R   0.420252 0.998851 0.434904 0.075193
C14   C     C_R   0.313620 0.617180 0.954956 -0.223504
C15   C     C_R   0.315656 0.379018 0.949097 -0.224164
C16   C     C_R   0.645840 0.684128 0.094519 -0.228436
C17   C     C_R   0.148187 0.821099 0.091228 -0.230242
C18   C     C_R   0.853766 0.183816 0.905810 -0.232261
C19   C     C_R   0.811523 0.887023 0.956317 -0.219834
C20   C     C_R   0.144521 0.184578 0.095283 -0.226273
C21   C     C_R   0.746696 0.197147 0.790970 -0.188421
C22   C     C_R   0.256492 0.802781 0.202737 -0.173695
C23   C     C_R   0.253804 0.200850 0.205815 -0.185872
C24   C     C_R   0.597963 0.999254 0.500551 0.068981
C25   C     C_R   0.736110 0.816409 0.797798 -0.187983
C26   C     C_R   0.237732 0.685183 0.797086 -0.196049
C27   C     C_R   0.756535 0.306791 0.206543 -0.176763
C28   C     C_R   0.755191 0.701040 0.204240 -0.187597
C29   C     C_R   0.235660 0.315302 0.797596 -0.188396
C30   C     C_R   0.778760 0.185929 0.831710 -0.235838
C31   C     C_R   0.225857 0.816649 0.159676 -0.225203
C32   C     C_R   0.221680 0.188913 0.165252 -0.230322
C33   C     C_R   0.761772 0.838919 0.846312 -0.219799
C34   C     C_R   0.264218 0.664084 0.844890 -0.227029
C35   C     C_R   0.080476 0.373326 0.545355 -0.225029
C36   C     C_R   0.726208 0.320714 0.163271 -0.225607
C37   C     C_R   0.723277 0.688932 0.163427 -0.230390
C38   C     C_R   0.262199 0.336277 0.844869 -0.218835
C39   C     C_R   0.072362 0.102167 0.935954 0.924155
C40   C     C_R   0.920358 0.908978 0.071313 0.934282
C41   C     C_R   0.927832 0.102633 0.063617 0.901580
C42   C     C_R   0.072474 0.897841 0.935998 0.944757
C43   C     C_R   0.572746 0.601937 0.935687 0.941787
C44   C     C_R   0.421390 0.406744 0.070058 0.909311
C45   C     C_R   0.421032 0.592430 0.070634 0.917381
C46   C     C_R   0.928099 0.628011 0.412577 -0.232367
C47   C     C_R   0.572687 0.397804 0.935964 0.938512
C48   C     C_R   0.567269 0.127521 0.445187 0.027098
C49   C     C_R   0.464268 0.866909 0.455178 0.035739
C50   C     C_R   0.475520 0.129164 0.419951 0.040384
C51   C     C_R   0.543852 0.869143 0.510157 0.033408
C52   C     C_R   0.067339 0.627206 0.445571 0.027648
C53   C     C_R   0.963338 0.366965 0.458508 0.035036
C54   C     C_R   0.975434 0.628989 0.420807 0.040329
C55   C     C_R   0.042577 0.369389 0.514314 0.034378
C56   C     C_R   0.548337 0.194103 0.428656 -0.050273
C57   C     C_R   0.923290 0.368414 0.432356 -0.231467
C58   C     C_R   0.482147 0.801039 0.475420 -0.049027
C59   C     C_R   0.503210 0.194577 0.413392 -0.049070
C60   C     C_R   0.521143 0.802349 0.505068 -0.049489
C61   C     C_R   0.048673 0.693696 0.428372 -0.050510
C62   C     C_R   0.980631 0.301252 0.480194 -0.049610
C63   C     C_R   0.003370 0.694292 0.413632 -0.049543
C64   C     C_R   0.019143 0.302732 0.510884 -0.049908
C65   C     C_R   0.493694 0.063933 0.440143 0.011845
C66   C     C_R   0.528729 0.933473 0.483212 0.011467
C67   C     C_R   0.538570 0.063510 0.455122 0.015376
C68   C     C_R   0.115019 0.623343 0.451533 -0.230853
C69   C     C_R   0.486857 0.932891 0.460826 0.013130
C70   C     C_R   0.993397 0.563818 0.441568 0.012088
C71   C     C_R   0.027837 0.433555 0.486310 0.011644
C72   C     C_R   0.038301 0.563360 0.456452 0.015139
C73   C     C_R   0.986034 0.432935 0.463758 0.013283
C74   C     C_R   0.967014 0.498485 0.445754 -0.020290
C75   C     C_R   0.054380 0.498760 0.482085 -0.018672
C76   C     C_R   0.467503 0.998527 0.443768 -0.020432
C77   C     C_R   0.554900 0.998791 0.480055 -0.018587
C78   C     C_R   0.895238 0.433062 0.436169 0.047345
C79   C     C_R   0.581270 0.873049 0.542171 -0.224131
C80   C     C_R   0.127439 0.562745 0.489804 0.043830
C81   C     C_R   0.112269 0.435541 0.531322 0.054788
C82   C     C_R   0.896941 0.564767 0.429512 0.048744
C83   C     C_R   0.395500 0.933118 0.434802 0.047258
C84   C     C_R   0.627522 0.062925 0.489110 0.044419
C85   C     C_R   0.612710 0.935450 0.529402 0.054393
C86   C     C_R   0.397073 0.064835 0.428638 0.048240
C87   C     C_R   0.842955 0.434557 0.442394 -0.116090
C88   C     C_R   0.168556 0.562989 0.516237 -0.101691
C89   C     C_R   0.159670 0.435876 0.541816 -0.114760
C90   C     C_R   0.428166 0.128133 0.411778 -0.232628
C91   C     C_R   0.843569 0.564698 0.440133 -0.119165
C92   C     C_R   0.343008 0.934584 0.441897 -0.117039
C93   C     C_R   0.668554 0.063067 0.515831 -0.102222
C94   C     C_R   0.659816 0.935877 0.540818 -0.113973
C95   C     C_R   0.343580 0.064739 0.439814 -0.119108
C96   C     C_R   0.819073 0.499847 0.441592 -0.299888
C97   C     C_R   0.183580 0.500125 0.542032 -0.309984
C98   C     C_R   0.319008 0.999881 0.441541 -0.299561
C99   C     C_R   0.683540 0.000143 0.541548 -0.310432
C100  C     C_R   0.036360 0.233979 0.535494 0.108174
C101  C     C_R   0.423730 0.868481 0.430123 -0.232457
C102  C     C_R   0.001672 0.198451 0.616748 -0.147143
C103  C     C_R   0.018165 0.134008 0.639954 -0.141695
C104  C     C_R   0.069265 0.104730 0.582236 -0.117816
C105  C     C_R   0.103956 0.139837 0.501186 -0.108315
C106  C     C_R   0.087634 0.204305 0.477754 -0.144167
C107  C     C_R   0.983513 0.763787 0.395903 0.123540
C108  C     C_R   0.952235 0.811116 0.467505 -0.115646
C109  C     C_R   0.932596 0.875765 0.450781 -0.138779
C110  C     C_R   0.943944 0.893329 0.362703 -0.098043
C111  C     C_R   0.975069 0.846387 0.291184 -0.148899
C112  C     C_R   0.299149 0.734337 0.322791 0.877056
C113  C     C_R   0.614900 0.123734 0.451378 -0.232607
C114  C     C_R   0.994918 0.781798 0.307537 -0.206846
C115  C     C_R   0.956523 0.231203 0.475944 0.103877
C116  C     C_R   0.986405 0.182208 0.405555 -0.147169
C117  C     C_R   0.963603 0.116266 0.401747 -0.140750
C118  C     C_R   0.911010 0.098935 0.468165 -0.128661
C119  C     C_R   0.881194 0.147370 0.538624 -0.101867
C120  C     C_R   0.903774 0.213398 0.542619 -0.139386
C121  C     C_R   0.071776 0.763235 0.438137 0.102145
C122  C     C_R   0.096786 0.811421 0.365231 -0.124036
C123  C     C_R   0.116863 0.877453 0.376123 -0.152967
C124  C     C_R   0.719829 0.263739 0.955534 0.019698
C125  C     C_R   0.113158 0.895071 0.459334 -0.116693
C126  C     C_R   0.088835 0.847036 0.532106 -0.106056
C127  C     C_R   0.067908 0.781573 0.521849 -0.143859
C128  C     C_R   0.539963 0.733371 0.526239 0.102641
C129  C     C_R   0.506384 0.695313 0.605987 -0.143382
C130  C     C_R   0.524576 0.630900 0.626125 -0.134853
C131  C     C_R   0.576282 0.604204 0.566865 -0.123459
C132  C     C_R   0.609837 0.641737 0.487179 -0.106456
C133  C     C_R   0.591822 0.706188 0.466821 -0.142893
C134  C     C_R   0.483329 0.263972 0.395463 0.123157
C135  C     C_R   0.270507 0.718485 0.054787 0.019181
C136  C     C_R   0.451814 0.311305 0.466917 -0.115334
C137  C     C_R   0.432235 0.375873 0.449857 -0.138060
C138  C     C_R   0.443897 0.393354 0.361592 -0.097292
C139  C     C_R   0.475258 0.346404 0.290224 -0.149367
C140  C     C_R   0.494994 0.281871 0.306931 -0.208601
C141  C     C_R   0.457868 0.731061 0.471392 0.101665
C142  C     C_R   0.487335 0.682138 0.400693 -0.146425
C143  C     C_R   0.464250 0.616334 0.397220 -0.139871
C144  C     C_R   0.411792 0.599079 0.464267 -0.129573
C145  C     C_R   0.382385 0.647450 0.535028 -0.100412
C146  C     C_R   0.268975 0.283028 0.055450 0.019404
C147  C     C_R   0.405257 0.713322 0.538671 -0.138232
C148  C     C_R   0.570837 0.263692 0.439977 0.103044
C149  C     C_R   0.594707 0.313541 0.368658 -0.126218
C150  C     C_R   0.614228 0.379450 0.381194 -0.158205
C151  C     C_R   0.611270 0.395259 0.464292 -0.117210
C152  C     C_R   0.587998 0.345706 0.535521 -0.105539
C153  C     C_R   0.567485 0.280430 0.523763 -0.144513
C154  C     C_R   0.708568 0.754596 0.966127 0.019776
C155  C     C_R   0.210531 0.748939 0.964068 0.019415
C156  C     C_R   0.784498 0.242174 0.040203 0.019895
C157  C     C_R   0.768352 0.786174 0.056999 0.019665
C158  C     C_R   0.208329 0.253001 0.965725 0.018010
C159  C     C_R   0.768015 0.222368 0.911719 0.052638
C160  C     C_R   0.298815 0.266326 0.322955 0.890023
C161  C     C_R   0.230422 0.772835 0.088146 0.044321
C162  C     C_R   0.227227 0.231308 0.091710 0.049875
C163  C     C_R   0.749790 0.807332 0.930143 0.049444
C164  C     C_R   0.252089 0.696459 0.928239 0.051607
C165  C     C_R   0.736844 0.284423 0.083292 0.046805
C166  C     C_R   0.727859 0.732597 0.091441 0.050403
C167  C     C_R   0.250453 0.304163 0.928420 0.050091
C168  C     C_R   0.801693 0.214491 0.952311 0.053125
C169  C     C_R   0.196984 0.782635 0.047715 0.050799
C170  C     C_R   0.193815 0.221526 0.051100 0.051666
C171  C     C_R   0.700446 0.734953 0.677258 0.893683
C172  C     C_R   0.776944 0.826986 0.979707 0.049213
C173  C     C_R   0.279201 0.677389 0.977835 0.053797
C174  C     C_R   0.703219 0.292509 0.042717 0.050606
C175  C     C_R   0.694544 0.722417 0.050845 0.052378
C176  C     C_R   0.278545 0.322263 0.976559 0.056877
C177  C     C_R   0.639895 0.317645 0.955211 0.071430
C178  C     C_R   0.339876 0.648013 0.068891 0.067446
C179  C     C_R   0.340945 0.350273 0.065498 0.073309
C180  C     C_R   0.635898 0.687097 0.958355 0.071915
C181  C     C_R   0.136326 0.813655 0.957642 0.068634
C182  C     C_R   0.200376 0.764946 0.677355 0.913701
C183  C     C_R   0.862899 0.185708 0.042609 0.071472
C184  C     C_R   0.838387 0.855585 0.070039 0.063801
C185  C     C_R   0.134970 0.187352 0.958716 0.070716
C186  C     C_R   0.613773 0.340746 0.904608 -0.140853
C187  C     C_R   0.374014 0.638976 0.108921 -0.128359
C188  C     C_R   0.374507 0.359848 0.107042 -0.124101
C189  C     C_R   0.612605 0.660122 0.905154 -0.142480
C190  C     C_R   0.112287 0.839607 0.905194 -0.141177
C191  C     C_R   0.887529 0.160494 0.094611 -0.133193
C192  C     C_R   0.872917 0.863388 0.109763 -0.129930
C193  C     C_R   0.799212 0.234215 0.322782 0.879847
C194  C     C_R   0.111868 0.160419 0.905377 -0.138569
C195  C     C_R   0.632138 0.316911 0.817370 -0.310415
C196  C     C_R   0.363649 0.675432 0.186377 -0.309025
C197  C     C_R   0.363215 0.324415 0.185787 -0.316251
C198  C     C_R   0.632044 0.682473 0.816902 -0.304174
C199  C     C_R   0.131371 0.816945 0.817175 -0.306628
C200  C     C_R   0.868313 0.183013 0.182667 -0.309249
C201  C     C_R   0.862797 0.826113 0.186828 -0.312536
C202  C     C_R   0.131489 0.182430 0.816875 -0.305211
C203  C     C_R   0.677558 0.273686 0.775409 -0.127472
C204  C     C_R   0.798896 0.766326 0.322958 0.888906
C205  C     C_R   0.320458 0.722009 0.225793 -0.125048
C206  C     C_R   0.319707 0.278897 0.225902 -0.123901
C207  C     C_R   0.675317 0.728993 0.776544 -0.127120
C208  C     C_R   0.175323 0.771047 0.776470 -0.129378
C209  C     C_R   0.823347 0.227111 0.224133 -0.122727
C210  C     C_R   0.819778 0.779783 0.226158 -0.124189
C211  C     C_R   0.174906 0.228680 0.776507 -0.127994
C212  C     C_R   0.704528 0.249106 0.824435 0.077263
C213  C     C_R   0.292544 0.743581 0.177240 0.072439
C214  C     C_R   0.291252 0.258168 0.178076 0.080726
C215  C     C_R   0.200402 0.234796 0.677234 0.894194
C216  C     C_R   0.697859 0.759923 0.829169 0.075057
C217  C     C_R   0.198724 0.741138 0.828557 0.077857
C218  C     C_R   0.797811 0.253688 0.173767 0.067622
C219  C     C_R   0.791466 0.759536 0.178138 0.082017
C220  C     C_R   0.197362 0.259183 0.829162 0.074914
C221  C     C_R   0.696135 0.127962 0.518447 0.906588
C222  C     C_R   0.308484 0.870656 0.465161 0.899135
C223  C     C_R   0.308858 0.129450 0.464054 0.893451
C224  C     C_R   0.691741 0.870980 0.532274 0.892039
C225  C     C_R   0.196141 0.627949 0.518514 0.905967
C226  C     C_R   0.919943 0.498798 0.436359 0.074723
C227  C     C_R   0.808456 0.370667 0.465315 0.900081
C228  C     C_R   0.808856 0.629430 0.464121 0.892763
C229  C     C_R   0.191678 0.370934 0.532618 0.891948
C230  C     C_R   0.688112 0.276865 0.911658 0.074596
C231  C     C_R   0.301284 0.703915 0.099796 0.073949
C232  C     C_R   0.300633 0.296734 0.099304 0.073033
C233  C     C_R   0.680808 0.733870 0.917756 0.076480
C234  C     C_R   0.181917 0.767925 0.916587 0.076902
C235  C     C_R   0.815103 0.227242 0.085525 0.074384
C236  C     C_R   0.799695 0.799971 0.101192 0.074769
H1    H     H_    0.778660 0.500213 0.449371 0.192781
H2    H     H_    0.416193 0.176715 0.390656 0.188249
H3    H     H_    0.414821 0.818770 0.407227 0.191217
H4    H     H_    0.642366 0.168320 0.422699 0.199343
H5    H     H_    0.612629 0.336157 0.779483 0.188339
H6    H     H_    0.387546 0.663945 0.219541 0.192632
H7    H     H_    0.386834 0.335820 0.219276 0.190554
H8    H     H_    0.615127 0.659567 0.777073 0.195192
H9    H     H_    0.113788 0.839275 0.777728 0.189687
H10   H     H_    0.886794 0.162126 0.221436 0.194473
H11   H     H_    0.886908 0.836573 0.219679 0.190114
H12   H     H_    0.216853 0.500409 0.556980 0.187935
H13   H     H_    0.114649 0.159491 0.776950 0.195299
H14   H     H_    0.578650 0.350285 0.091896 0.167378
H15   H     H_    0.364430 0.552908 0.982032 0.164615
H16   H     H_    0.370289 0.439252 0.967074 0.169466
H17   H     H_    0.576186 0.648495 0.093859 0.175360
H18   H     H_    0.076600 0.851723 0.093532 0.170096
H19   H     H_    0.925403 0.154058 0.906328 0.171167
H20   H     H_    0.862209 0.952304 0.984325 0.181666
H21   H     H_    0.074459 0.150395 0.094461 0.172959
H22   H     H_    0.633436 0.339336 0.159316 0.134342
H23   H     H_    0.278467 0.000238 0.449875 0.192969
H24   H     H_    0.318016 0.578748 0.903909 0.132777
H25   H     H_    0.322062 0.415533 0.894941 0.130893
H26   H     H_    0.628763 0.667509 0.164499 0.135638
H27   H     H_    0.132078 0.840704 0.159522 0.135593
H28   H     H_    0.872656 0.170855 0.834573 0.134998
H29   H     H_    0.815779 0.925104 0.904738 0.138728
H30   H     H_    0.127123 0.168546 0.165504 0.135241
H31   H     H_    0.754748 0.161963 0.735045 0.166864
H32   H     H_    0.252723 0.840749 0.253992 0.169864
H33   H     H_    0.249818 0.162579 0.257147 0.165243
H34   H     H_    0.716637 0.000419 0.556939 0.187995
H35   H     H_    0.745786 0.846402 0.736957 0.170004
H36   H     H_    0.247339 0.654481 0.736942 0.166709
H37   H     H_    0.747938 0.340690 0.263843 0.177946
H38   H     H_    0.752016 0.662192 0.254529 0.163716
H39   H     H_    0.244839 0.346041 0.737467 0.169456
H40   H     H_    0.810612 0.145921 0.801163 0.136968
H41   H     H_    0.200069 0.863919 0.180977 0.138204
H42   H     H_    0.194031 0.143854 0.190208 0.139399
H43   H     H_    0.792053 0.880273 0.814976 0.135880
H44   H     H_    0.295171 0.623212 0.813278 0.134106
H45   H     H_    0.084168 0.327676 0.581948 0.187095
H46   H     H_    0.695740 0.362442 0.191749 0.137084
H47   H     H_    0.696595 0.642809 0.186847 0.140553
H48   H     H_    0.292655 0.377165 0.812557 0.133593
H49   H     H_    0.962071 0.220795 0.662023 0.125192
H50   H     H_    0.991361 0.106828 0.702741 0.117562
H51   H     H_    0.081979 0.054865 0.600320 0.115515
H52   H     H_    0.143511 0.117144 0.456574 0.111837
H53   H     H_    0.114831 0.231147 0.414864 0.137038
H54   H     H_    0.942977 0.797741 0.536017 0.123603
H55   H     H_    0.908427 0.912110 0.506135 0.110669
H56   H     H_    0.916269 0.676548 0.391130 0.187994
H57   H     H_    0.928565 0.943211 0.349817 0.114236
H58   H     H_    0.983614 0.859963 0.223171 0.142377
H59   H     H_    0.018920 0.745704 0.251687 0.139257
H60   H     H_    0.027169 0.195202 0.353789 0.123215
H61   H     H_    0.986669 0.078620 0.347321 0.122602
H62   H     H_    0.893329 0.047998 0.465125 0.109888
H63   H     H_    0.840558 0.133750 0.590023 0.115756
H64   H     H_    0.880310 0.250581 0.597480 0.140898
H65   H     H_    0.100310 0.797641 0.300575 0.127503
H66   H     H_    0.135201 0.915145 0.320252 0.115407
H67   H     H_    0.914690 0.318591 0.409253 0.191792
H68   H     H_    0.128988 0.946004 0.467476 0.108399
H69   H     H_    0.085924 0.860690 0.596602 0.121463
H70   H     H_    0.048606 0.745163 0.579097 0.136630
H71   H     H_    0.466364 0.715730 0.652528 0.130846
H72   H     H_    0.498650 0.601774 0.687792 0.125431
H73   H     H_    0.590342 0.554499 0.582789 0.114327
H74   H     H_    0.649850 0.621002 0.441316 0.114152
H75   H     H_    0.618193 0.734995 0.405046 0.138903
H76   H     H_    0.442342 0.298010 0.535553 0.123420
H77   H     H_    0.407888 0.412235 0.505087 0.109854
H78   H     H_    0.142707 0.667648 0.422270 0.199138
H79   H     H_    0.428587 0.443179 0.348434 0.113905
H80   H     H_    0.484108 0.359932 0.222037 0.143384
H81   H     H_    0.519176 0.245767 0.251195 0.138594
H82   H     H_    0.527981 0.695081 0.348438 0.123747
H83   H     H_    0.486992 0.578737 0.342559 0.122352
H84   H     H_    0.393895 0.548258 0.461481 0.109922
H85   H     H_    0.341836 0.633940 0.586961 0.117151
H86   H     H_    0.382107 0.750480 0.593730 0.140595
H87   H     H_    0.597768 0.301239 0.303944 0.126214
H88   H     H_    0.631616 0.418436 0.326650 0.116907
H89   H     H_    0.584603 0.827235 0.578875 0.188336
H90   H     H_    0.626888 0.445968 0.473502 0.108213
H91   H     H_    0.585592 0.358020 0.599990 0.122875
H92   H     H_    0.548978 0.242857 0.579900 0.137342
O1    O     O_R   0.746490 0.236330 0.638080 -0.644567
O2    O     O_R   0.325830 0.813840 0.483730 -0.634598
O3    O     O_R   0.325830 0.186160 0.483730 -0.624640
O4    O     O_R   0.674170 0.813840 0.516270 -0.632740
O5    O     O_R   0.174170 0.686160 0.516270 -0.640427
O6    O     O_R   0.825830 0.313840 0.483730 -0.634948
O7    O     O_R   0.825830 0.686160 0.483730 -0.624760
O8    O     O_R   0.174170 0.313840 0.516270 -0.632742
O9    O     O_R   0.739960 0.127620 0.525000 -0.636820
O10   O     O_R   0.260040 0.872380 0.475000 -0.630621
O11   O     O_R   0.260040 0.127620 0.475000 -0.634798
O12   O     O_R   0.253510 0.763670 0.361920 -0.639830
O13   O     O_R   0.739960 0.872380 0.525000 -0.629587
O14   O     O_R   0.239960 0.627620 0.525000 -0.638129
O15   O     O_R   0.760040 0.372380 0.475000 -0.631193
O16   O     O_R   0.760040 0.627620 0.475000 -0.634544
O17   O     O_R   0.239960 0.372380 0.525000 -0.629730
O18   O     O_R   0.680700 0.294870 0.629350 -0.621828
O19   O     O_R   0.319300 0.705130 0.370650 -0.620462
O20   O     O_R   0.319300 0.294870 0.370650 -0.614721
O21   O     O_R   0.680700 0.705130 0.629350 -0.615656
O22   O     O_R   0.180700 0.794870 0.629350 -0.621312
O23   O     O_R   0.253510 0.236330 0.361920 -0.643400
O24   O     O_R   0.819300 0.205130 0.370650 -0.622312
O25   O     O_R   0.819300 0.794870 0.370650 -0.614731
O26   O     O_R   0.180700 0.205130 0.629350 -0.616789
O27   O     O_R   0.062020 0.072840 0.007170 -0.630429
O28   O     O_R   0.937980 0.927160 0.992830 -0.632935
O29   O     O_R   0.937980 0.072840 0.992830 -0.646610
O30   O     O_R   0.062020 0.927160 0.007170 -0.631754
O31   O     O_R   0.562020 0.572840 0.007170 -0.629953
O32   O     O_R   0.437980 0.427160 0.992830 -0.646883
O33   O     O_R   0.437980 0.572840 0.992830 -0.643141
O34   O     O_R   0.746490 0.763670 0.638080 -0.634972
O35   O     O_R   0.562020 0.427160 0.007170 -0.631222
O36   O     O_R   0.947860 0.073950 0.109290 -0.626859
O37   O     O_R   0.052140 0.926050 0.890710 -0.613125
O38   O     O_R   0.052140 0.073950 0.890710 -0.622188
O39   O     O_R   0.947860 0.926050 0.109290 -0.636786
O40   O     O_R   0.447860 0.573950 0.109290 -0.629146
O41   O     O_R   0.552140 0.426050 0.890710 -0.612383
O42   O     O_R   0.552140 0.573950 0.890710 -0.611458
O43   O     O_R   0.447860 0.426050 0.109290 -0.638262
O44   O     O_R   0.246490 0.736330 0.638080 -0.642505
O45   O     O_R   0.753510 0.263670 0.361920 -0.643628
O46   O     O_R   0.753510 0.736330 0.361920 -0.643150
O47   O     O_R   0.246490 0.263670 0.638080 -0.634609
O48   O     O_R   0.674170 0.186160 0.516270 -0.640634
Zn1   Zn    Zn3+2 0.792340 0.208750 0.507670 0.934817
Zn2   Zn    Zn3+2 0.494040 0.500000 0.919480 0.916217
Zn3   Zn    Zn3+2 0.005960 0.000000 0.080520 0.904620
Zn4   Zn    Zn3+2 0.994040 0.000000 0.919480 0.912949
Zn5   Zn    Zn3+2 0.207660 0.791250 0.492330 0.944974
Zn6   Zn    Zn3+2 0.207660 0.208750 0.492330 0.933064
Zn7   Zn    Zn3+2 0.792340 0.791250 0.507670 0.951620
Zn8   Zn    Zn3+2 0.292340 0.708750 0.507670 0.934567
Zn9   Zn    Zn3+2 0.707660 0.291250 0.492330 0.942536
Zn10  Zn    Zn3+2 0.707660 0.708750 0.492330 0.935433
Zn11  Zn    Zn3+2 0.292340 0.291250 0.507670 0.951053
Zn12  Zn    Zn3+2 0.505960 0.500000 0.080520 0.905321

loop_
_geom_bond_atom_site_label_1
_geom_bond_atom_site_label_2
_ccdc_geom_bond_type
C78   C226  A    
C20   C170  A    
C31   C161  A    
C126  C127  A    
C188  C197  A    
C6    C179  A    
C10   C184  A    
C96   H1    S    
C39   O27   A    
O16   Zn10  S    
C4    C177  A    
O25   Zn7   S    
O5    Zn5   S    
C211  C220  A    
C12   H22   S    
C50   C59   A    
C135  C173  A    
C102  H49   S    
O27   Zn3   S    
C222  O10   A    
C137  H77   S    
C52   C61   A    
C195  C203  A    
C54   C63   A    
C156  C235  A    
C58   C60   A    
C143  C144  A    
C117  H61   S    
O12   Zn5   S    
C108  C109  A    
C61   C63   A    
O6    Zn1   S    
C143  H83   S    
C110  C111  A    
C120  H64   S    
C62   C64   A    
C144  H84   S    
O38   Zn4   S    
C91   C96   A    
C125  H68   S    
C145  H85   S    
C50   C90   A    
O2    Zn8   S    
C152  H91   S    
C41   O29   A    
C146  C176  A    
C70   C74   A    
C3    C158  A    
C4    C12   A    
C24   C85   A    
C88   C97   A    
C223  O11   A    
C206  C214  A    
C114  H59   S    
C111  H58   S    
C49   C69   A    
C216  C233  A    
C197  C206  A    
C104  C105  A    
C190  C199  A    
C183  C235  A    
C38   C167  A    
C110  H57   S    
C43   O31   A    
C11   C20   A    
C105  H52   S    
C90   H2    S    
O39   Zn3   S    
C60   C128  S    
C147  H86   S    
C86   C90   A    
C106  H53   S    
C71   C73   A    
C118  H62   S    
C179  C188  A    
C193  O24   A    
C82   C91   A    
C51   C66   A    
C52   C72   A    
C221  O48   A    
C181  C190  A    
C155  C169  A    
C40   C192  S    
C22   C31   A    
C44   O32   A    
C45   O40   A    
C164  C173  A    
C191  C200  A    
C47   C186  S    
C163  C172  A    
C15   C176  A    
C16   C175  A    
C225  O14   A    
C221  O9    A    
C148  C153  A    
C79   C85   A    
C12   C174  A    
C105  C106  A    
C208  C217  A    
C66   C77   A    
C57   C78   A    
C204  O46   A    
C8    C17   A    
C44   O43   A    
C144  C145  A    
C139  C140  A    
C215  O47   A    
C222  O2    A    
C186  C195  A    
C99   H34   S    
C100  C106  A    
C200  C209  A    
C56   C59   A    
C130  C131  A    
C80   C88   A    
C129  H71   S    
C58   C141  S    
C42   O30   A    
C207  C216  A    
C182  C208  S    
C84   C93   A    
C48   C67   A    
C86   C95   A    
C141  C147  A    
C160  C206  S    
O42   Zn2   S    
C229  O17   A    
C24   C77   A    
C27   C218  A    
O44   Zn8   S    
C2    C81   A    
C149  C150  A    
C55   C71   A    
C2    C75   A    
C78   C87   A    
C56   C148  S    
C201  H11   S    
C91   C228  S    
C67   C77   A    
C197  H7    S    
C202  C211  A    
C128  C129  A    
C131  H73   S    
C160  O20   A    
C11   H21   S    
C33   C163  A    
C23   H33   S    
C218  C235  A    
C14   C173  A    
C34   C164  A    
C180  C189  A    
C124  C174  A    
C156  C168  A    
C115  C116  A    
C69   C76   A    
C61   C121  S    
C85   C94   A    
C47   O41   A    
C46   C82   A    
C108  H54   S    
C181  C234  A    
O41   Zn2   S    
C3    C220  A    
C32   C162  A    
C29   C38   A    
C107  C108  A    
C213  C231  A    
C27   H37   S    
C161  C169  A    
C87   C96   A    
C94   C224  S    
C135  C161  A    
C9    H19   S    
C72   C75   A    
C3    C185  A    
O3    Zn11  S    
C224  O4    A    
C29   C220  A    
C30   C159  A    
C41   C191  S    
C142  H82   S    
O20   Zn11  S    
C19   C172  A    
C126  H69   S    
C20   H30   S    
C177  C230  A    
C45   C187  S    
C165  C174  A    
C127  H70   S    
O34   Zn7   S    
C95   C223  S    
C210  C219  A    
O9    Zn1   S    
O10   Zn5   S    
C15   H25   S    
C41   O36   A    
C192  C201  A    
C215  O26   A    
C151  H90   S    
C25   H35   S    
C26   H36   S    
C42   O37   A    
O1    Zn1   S    
C141  C142  A    
O13   Zn7   S    
O11   Zn6   S    
C171  C207  S    
C129  C130  A    
C37   H47   S    
C228  O16   A    
C83   C101  A    
C198  C207  A    
C39   O38   A    
C119  H63   S    
C136  C137  A    
C171  O34   A    
O37   Zn4   S    
C59   C134  S    
O17   Zn11  S    
C21   C212  A    
C225  O5    A    
C1    O1    A    
C62   C115  S    
C74   C226  A    
C14   H24   S    
C117  C118  A    
C136  H76   S    
O8    Zn6   S    
C28   C37   A    
C199  C208  A    
C7    C180  A    
C40   O39   A    
C102  C103  A    
C50   C65   A    
C51   C79   A    
C5    C178  A    
C9    C18   A    
C202  H13   S    
C152  C153  A    
C22   C213  A    
C150  C151  A    
C8    C181  A    
C51   C60   A    
C63   C107  S    
C25   C33   A    
C98   H23   S    
C29   H39   S    
C30   H40   S    
C187  C196  A    
C101  H3    S    
C73   C74   A    
C185  C194  A    
C214  C232  A    
C138  H79   S    
C140  H81   S    
C146  C162  A    
C166  C175  A    
C65   C76   A    
O24   Zn1   S    
C10   H20   S    
C121  C127  A    
C199  H9    S    
C47   O35   A    
C49   C101  A    
C123  C125  A    
O32   Zn2   S    
C194  C202  A    
C160  O23   A    
C193  O45   A    
C184  C236  A    
O7    Zn7   S    
O18   Zn9   S    
C113  H4    S    
C65   C67   A    
C158  C167  A    
C151  C152  A    
C184  C192  A    
C79   H89   S    
O31   Zn12  S    
C93   C99   A    
C38   H48   S    
C19   H29   S    
C81   C89   A    
C195  H5    S    
C205  C213  A    
C135  C231  A    
C26   C217  A    
C112  O12   A    
C145  C147  A    
O43   Zn12  S    
O14   Zn8   S    
C123  H66   S    
C53   C57   A    
C155  C234  A    
C224  O13   A    
C35   H45   S    
C196  H6    S    
O28   Zn4   S    
C107  C114  A    
C9    C183  A    
C82   C226  A    
C28   H38   S    
C162  C170  A    
C10   C19   A    
C46   C54   A    
C46   H56   S    
C149  H87   S    
C5    C14   A    
C178  C187  A    
C7    C16   A    
C180  C233  A    
C28   C219  A    
C87   C227  S    
C125  C126  A    
O21   Zn10  S    
C1    C203  S    
C32   H42   S    
C109  H55   S    
C116  H60   S    
C204  O25   A    
O35   Zn12  S    
C217  C234  A    
C112  C205  S    
C119  C120  A    
C157  C236  A    
C27   C36   A    
C21   C30   A    
C13   C83   A    
C23   C32   A    
O15   Zn9   S    
C36   H46   S    
C178  C231  A    
C109  C110  A    
C158  C170  A    
C150  H88   S    
C156  C165  A    
C154  C233  A    
C45   O33   A    
O33   Zn2   S    
C111  C114  A    
C138  C139  A    
C177  C186  A    
C227  O6    A    
C64   C100  S    
C103  C104  A    
C142  C143  A    
C132  H74   S    
C179  C232  A    
C57   H67   S    
C133  H75   S    
C48   C113  A    
C23   C214  A    
C189  C198  A    
C68   C80   A    
C211  C215  S    
C84   C113  A    
C122  H65   S    
C5    H15   S    
C97   H12   S    
C35   C81   A    
C95   C98   A    
C92   C98   A    
C146  C232  A    
C116  C117  A    
C83   C92   A    
C154  C175  A    
O46   Zn10  S    
C209  C218  A    
C171  O21   A    
C112  O19   A    
C157  C172  A    
C134  C140  A    
C17   C169  A    
C182  O22   A    
C66   C69   A    
C124  C159  A    
C159  C168  A    
C196  C205  A    
C42   C190  S    
C118  C119  A    
C36   C165  A    
C6    C15   A    
O4    Zn10  S    
C26   C34   A    
C132  C133  A    
C54   C70   A    
C13   C86   A    
C40   O28   A    
O47   Zn11  S    
O45   Zn9   S    
C52   C68   A    
C16   H26   S    
C7    H17   S    
C227  O15   A    
C228  O7    A    
C39   C194  S    
O29   Zn4   S    
O19   Zn8   S    
C35   C55   A    
O48   Zn9   S    
C154  C163  A    
C148  C149  A    
C200  H10   S    
C18   C168  A    
C134  C136  A    
C198  H8    S    
C49   C58   A    
C89   C97   A    
C182  O44   A    
C17   H27   S    
C103  H50   S    
C18   H28   S    
C1    O18   A    
C229  O8    A    
C212  C230  A    
C53   C62   A    
C193  C209  S    
C88   C225  S    
C13   C76   A    
C55   C64   A    
C100  C102  A    
C121  C122  A    
C68   H78   S    
O40   Zn12  S    
C44   C188  S    
C43   O42   A    
C203  C212  A    
O36   Zn3   S    
C223  O3    A    
C201  C210  A    
C33   H43   S    
O22   Zn5   S    
C48   C56   A    
C34   H44   S    
C11   C185  A    
C219  C236  A    
C25   C216  A    
C53   C73   A    
C183  C191  A    
C157  C166  A    
C70   C72   A    
C37   C166  A    
C155  C164  A    
C137  C138  A    
C6    H16   S    
C92   C222  S    
C24   C84   A    
C4    H14   S    
C153  H92   S    
C128  C133  A    
C71   C75   A    
O23   Zn6   S    
C130  H72   S    
C94   C99   A    
C8    H18   S    
C131  C132  A    
C31   H41   S    
C2    C80   A    
C21   H31   S    
C104  H51   S    
C139  H80   S    
C22   H32   S    
O26   Zn6   S    
C43   C189  S    
C115  C120  A    
C204  C210  S    
C93   C221  S    
C89   C229  S    
C122  C123  A    
C124  C230  A    
O30   Zn3   S    
C167  C176  A    
