data_mof_unit_65634.cif
_audit_creation_date              2012-10-26T17:36:56-0400
_audit_creation_method            fapswitch 2.2
_symmetry_space_group_name_H-M    P1
_symmetry_Int_Tables_number       1
_space_group_crystal_system       triclinic
_cell_length_a                    18.730902
_cell_length_b                    18.762467
_cell_length_c                    18.816989
_cell_angle_alpha                 109.503765
_cell_angle_beta                  109.577495
_cell_angle_gamma                 109.26399
_cell_volume                      5094.95484938

loop_
_atom_site_label
_atom_site_type_symbol
_atom_type_description
_atom_site_fract_x
_atom_site_fract_y
_atom_site_fract_z
_atom_type_partial_charge
C1    C     C_R   0.382411 0.380951 0.501163 0.551843
C2    C     C_R   0.317288 0.312972 0.502214 0.001516
C3    C     C_R   0.319410 0.578174 0.322294 -0.145962
C4    C     C_R   0.620833 0.501434 0.619536 0.543592
C5    C     C_R   0.256631 0.580552 0.258827 -0.029063
C6    C     C_R   0.184194 0.501733 0.185770 -0.001533
C7    C     C_R   0.175184 0.421862 0.177670 -0.146840
C8    C     C_R   0.238586 0.419483 0.240508 -0.028601
C9    C     C_R   0.311453 0.498300 0.313156 -0.002278
C10   C     C_R   0.756395 0.758832 0.578957 -0.130491
C11   C     C_R   0.821212 0.822162 0.578912 -0.127038
C12   C     C_3   0.809446 0.498450 0.807519 0.049960
C13   C     C_R   0.814107 0.814144 0.499800 0.037816
C14   C     C_R   0.742911 0.741881 0.420755 -0.112478
C15   C     C_R   0.679621 0.677079 0.420860 -0.122918
C16   C     C_R   0.618966 0.618955 0.500013 0.540666
C17   C     C_R   0.685872 0.685871 0.499946 0.026903
C18   C     C_R   0.997872 0.380998 0.878894 0.550219
C19   C     C_R   0.877871 0.498316 0.876339 0.584048
C20   C     C_R   0.996950 0.619009 0.115982 0.568791
C21   C     C_R   0.116859 0.500861 0.117602 0.548777
C22   C     C_R   0.000705 0.881310 0.381871 0.553847
C23   C     C_3   0.805627 0.583427 0.848789 0.006607
C24   C     C_R   0.118876 0.117890 0.499291 0.545063
C25   C     C_R   0.999252 0.118714 0.618132 0.539747
C26   C     C_R   0.881068 0.881002 0.499810 0.549728
C27   C     C_R   0.077693 0.322384 0.819245 -0.129409
C28   C     C_R   0.379630 0.499123 0.380456 0.549295
C29   C     C_R   0.078053 0.257480 0.756268 -0.129511
C30   C     C_R   0.998885 0.185628 0.684703 0.025846
C31   C     C_R   0.919370 0.178034 0.676972 -0.120575
C32   C     C_R   0.919050 0.241413 0.741522 -0.106963
C33   C     C_R   0.998203 0.314037 0.812316 0.033944
C34   C     C_3   0.717858 0.417193 0.764373 -0.230735
C35   C     C_R   0.026605 0.769822 0.195139 -0.130334
C36   C     C_R   0.026617 0.833204 0.259778 -0.134206
C37   C     C_R   0.999978 0.813766 0.315252 0.024279
C38   C     C_R   0.971850 0.729979 0.305451 -0.026584
C39   C     C_R   0.970294 0.666154 0.239369 -0.131434
C40   C     C_3   0.762791 0.502916 0.665971 -0.240866
C41   C     C_R   0.997916 0.685935 0.184316 0.014141
C42   C     C_3   0.832626 0.498618 0.734918 -0.138084
C43   C     C_3   0.731156 0.582099 0.778985 -0.213213
C44   C     C_3   0.648539 0.417901 0.692306 -0.245882
C45   C     C_R   0.247818 0.322527 0.507028 -0.141160
C46   C     C_3   0.689656 0.501521 0.688005 0.007968
C47   C     C_3   0.826270 0.683210 0.987857 -0.312075
C48   C     C_1   0.258112 0.092536 0.482934 0.219010
C49   C     C_1   0.395413 0.228182 0.493708 0.222009
C50   C     C_1   0.266341 0.664299 0.271719 0.218406
C51   C     C_1   0.225795 0.335713 0.230590 0.214922
C52   C     C_1   0.841931 0.422494 0.693671 0.183863
C53   C     C_1   0.942146 0.707704 0.360687 0.200677
C54   C     C_R   0.182434 0.257486 0.504226 -0.144555
C55   C     C_R   0.186510 0.182798 0.498100 0.001295
C56   C     C_R   0.256070 0.171961 0.493304 -0.038935
C57   C     C_R   0.322116 0.237580 0.495679 -0.035149
Cu1   Cu    Cu3+1 0.500370 0.438230 0.438520 0.995565
Cu2   Cu    Cu3+1 0.499630 0.561770 0.561480 0.934006
Cu3   Cu    Cu3+1 0.935490 0.438190 0.997300 0.948413
Cu4   Cu    Cu3+1 0.059110 0.561720 0.997220 0.971568
Cu5   Cu    Cu3+1 0.937870 0.999900 0.437760 0.952551
Cu6   Cu    Cu3+1 0.062130 0.999920 0.562070 0.988978
H1    H     H_    0.794170 0.563925 0.664713 0.105114
H2    H     H_    0.876015 0.878021 0.640323 0.122640
H3    H     H_    0.737260 0.735012 0.359313 0.126954
H4    H     H_    0.625131 0.620954 0.359446 0.125688
H5    H     H_    0.139200 0.378217 0.874021 0.124853
H6    H     H_    0.139815 0.263954 0.762476 0.124910
H7    H     H_    0.857865 0.122463 0.621912 0.128732
H8    H     H_    0.857286 0.234704 0.735538 0.135641
H9    H     H_    0.047776 0.785963 0.152903 0.134650
H10   H     H_    0.048171 0.897715 0.267177 0.126264
H11   H     H_    0.948365 0.601378 0.231416 0.137474
H12   H     H_    0.697908 0.415507 0.813392 0.138132
H13   H     H_    0.896731 0.557520 0.764465 0.117658
H14   H     H_    0.757937 0.643176 0.776492 0.106269
H15   H     H_    0.868762 0.639408 0.869992 0.139994
H16   H     H_    0.594032 0.414085 0.705370 0.118358
H17   H     H_    0.620766 0.359321 0.628715 0.166935
H18   H     H_    0.720123 0.356142 0.735999 0.139791
H19   H     H_    0.735188 0.550654 0.911163 0.255097
H20   H     H_    0.820656 0.684351 0.045088 0.156259
H21   H     H_    0.786841 0.709495 0.959003 0.138961
H22   H     H_    0.896109 0.725215 0.010718 0.150913
H23   H     H_    0.679857 0.580506 0.796777 0.148723
H24   H     H_    0.243445 0.379893 0.511516 0.137286
H25   H     H_    0.129116 0.265965 0.508154 0.133513
H26   H     H_    0.375235 0.638743 0.378648 0.134164
H27   H     H_    0.118970 0.361291 0.121696 0.131762
H28   H     H_    0.734064 0.447833 0.599482 0.161360
H29   H     H_    0.761944 0.765896 0.640421 0.119307
N1    N     N_2   0.795018 0.594633 0.924500 -0.516259
N2    N     N_1   0.259625 0.029156 0.474535 -0.263356
N3    N     N_1   0.453715 0.220457 0.492010 -0.289724
N4    N     N_1   0.274035 0.731351 0.282059 -0.266881
N5    N     N_1   0.215537 0.268642 0.222725 -0.280163
N6    N     N_1   0.849256 0.362952 0.661442 -0.298489
N7    N     N_1   0.918304 0.689945 0.404922 -0.287504
O1    O     O_R   0.410130 0.357660 0.448070 -0.483603
O2    O     O_R   0.053050 0.909790 0.462730 -0.483795
O3    O     O_R   0.037720 0.090080 0.447430 -0.510010
O4    O     O_R   0.409500 0.461990 0.551910 -0.515929
O5    O     O_R   0.142660 0.090100 0.552410 -0.501862
O6    O     O_R   0.946950 0.090030 0.537090 -0.507150
O7    O     O_R   0.051890 0.090040 0.642060 -0.515576
O8    O     O_R   0.857350 0.909730 0.447410 -0.515460
O9    O     O_R   0.962280 0.909740 0.552390 -0.501030
O10   O     O_R   0.590970 0.447820 0.538740 -0.506804
O11   O     O_R   0.590340 0.552140 0.642570 -0.523123
O12   O     O_R   0.049990 0.461930 0.907530 -0.507587
O13   O     O_R   0.590500 0.538010 0.448090 -0.510598
O14   O     O_R   0.589870 0.642340 0.551930 -0.513655
O15   O     O_R   0.409660 0.447860 0.357430 -0.496844
O16   O     O_R   0.409030 0.552180 0.461260 -0.510571
O17   O     O_R   0.945590 0.357610 0.907590 -0.517179
O18   O     O_R   0.854450 0.447820 0.906640 -0.509367
O19   O     O_R   0.958850 0.552130 0.906580 -0.522860
O20   O     O_R   0.944620 0.537990 0.086990 -0.510958
O21   O     O_R   0.049020 0.642300 0.086930 -0.501047
O22   O     O_R   0.035760 0.447780 0.087940 -0.512706
O23   O     O_R   0.140150 0.552090 0.087880 -0.498334
O24   O     O_R   0.948110 0.909780 0.357760 -0.517965

loop_
_geom_bond_atom_site_label_1
_geom_bond_atom_site_label_2
_ccdc_geom_bond_type
C51   N5    T    
C55   C56   A    
C13   C26   S    
C27   C29   A    
Cu1   O10   S    
C11   C13   A    
C35   C36   A    
Cu6   O2    S    
C16   O14   A    
C20   C41   S    
C2    C57   A    
C25   O6    A    
C22   O24   A    
C39   C41   A    
Cu5   O6    S    
C4    C46   S    
C27   C33   A    
C24   C55   S    
C40   C46   S    
C12   C23   S    
Cu5   Cu6   S    
C22   O2    A    
C48   N2    T    
Cu1   O13   S    
C47   H22   S    
C36   C37   A    
C45   H24   S    
C37   C38   A    
C30   C31   A    
C10   C17   A    
Cu2   O11   S    
C49   C57   S    
C56   C57   A    
Cu3   O20   S    
C48   C56   S    
C1    C2    S    
C39   H11   S    
C21   O23   A    
C12   C42   S    
C27   H5    S    
C31   H7    S    
C19   O19   A    
C8    C9    A    
C34   H18   S    
C47   H20   S    
C1    O4    A    
C34   H12   S    
C40   C42   S    
C10   H29   S    
C40   H28   S    
H19   N1    S    
C13   C14   A    
Cu4   O21   S    
C1    O1    A    
Cu5   O24   S    
C43   C46   S    
C44   C46   S    
C25   O7    A    
C32   H8    S    
C29   H6    S    
C2    C45   A    
C47   N1    S    
C38   C39   A    
C44   H17   S    
C34   C44   S    
C18   O12   A    
C36   H10   S    
C18   O17   A    
C16   C17   S    
Cu5   O8    S    
Cu1   Cu2   S    
C22   C37   S    
C53   N7    T    
C7    H27   S    
Cu3   Cu4   S    
C24   O5    A    
C29   C30   A    
C3    C9    A    
C28   O16   A    
C31   C32   A    
Cu2   O14   S    
C15   H4    S    
C14   H3    S    
Cu1   O1    S    
Cu3   O18   S    
C47   H21   S    
C49   N3    T    
Cu6   O7    S    
C8    C51   S    
C28   O15   A    
C45   C54   A    
C5    C50   S    
Cu3   O17   S    
C12   C34   S    
Cu4   O12   S    
C20   O21   A    
C16   O13   A    
C25   C30   S    
C15   C17   A    
C4    O11   A    
C54   C55   A    
Cu4   O19   S    
C43   H23   S    
C44   H16   S    
Cu6   O5    S    
C3    C5    A    
C26   O8    A    
C35   H9    S    
C6    C7    A    
C43   H14   S    
C4    O10   A    
C42   H13   S    
C40   H1    S    
C3    H26   S    
Cu2   O4    S    
C32   C33   A    
C54   H25   S    
C6    C21   S    
C50   N4    T    
C5    C6    A    
C38   C53   S    
C12   C19   S    
C52   N6    T    
C24   O3    A    
C23   H15   S    
C21   O22   A    
Cu3   O22   S    
C35   C41   A    
C18   C33   S    
C7    C8    A    
C10   C11   A    
C23   N1    S    
C19   O18   A    
Cu2   O16   S    
Cu1   O15   S    
C14   C15   A    
Cu4   O23   S    
Cu6   O9    S    
C23   C43   S    
C20   O20   A    
C26   O9    A    
C11   H2    S    
C9    C28   S    
C42   C52   S    
Cu5   O3    S    
