data_mof_unit_9696.cif
_audit_creation_date              2012-12-11T17:24:04-0500
_audit_creation_method            fapswitch 2.2
_symmetry_space_group_name_H-M    P1
_symmetry_Int_Tables_number       1
_space_group_crystal_system       triclinic
_cell_length_a                    22.866776
_cell_length_b                    7.206796
_cell_length_c                    20.874311
_cell_angle_alpha                 90.000018
_cell_angle_beta                  93.735061
_cell_angle_gamma                 89.999981
_cell_volume                      3432.70014413

loop_
_atom_site_label
_atom_site_type_symbol
_atom_type_description
_atom_site_fract_x
_atom_site_fract_y
_atom_site_fract_z
_atom_type_partial_charge
O1    O     O_R   0.307200 0.614510 0.194080 -0.526538
O2    O     O_R   0.692800 0.385490 0.805920 -0.528158
O3    O     O_R   0.192800 0.114510 0.305920 -0.526539
O4    O     O_R   0.807200 0.885490 0.694080 -0.528152
O5    O     O_R   0.188140 0.283260 0.181690 -0.541656
O6    O     O_R   0.811860 0.716740 0.818310 -0.540620
O7    O     O_R   0.311860 0.783260 0.318310 -0.541655
O8    O     O_R   0.688140 0.216740 0.681690 -0.540620
C1    C     C_R   0.168567 0.453389 0.165672 0.691799
C2    C     C_R   0.831422 0.546620 0.834335 0.692327
C3    C     C_R   0.331433 0.953389 0.334328 0.691799
C4    C     C_R   0.668578 0.046620 0.665665 0.692329
O9    O     O_R   0.306460 0.284700 0.186400 -0.528406
O10   O     O_R   0.693540 0.715300 0.813600 -0.530060
O11   O     O_R   0.193540 0.784700 0.313600 -0.528406
O12   O     O_R   0.806460 0.215300 0.686400 -0.530060
O13   O     O_R   0.311970 0.115840 0.310660 -0.531775
O14   O     O_R   0.688030 0.884160 0.689340 -0.530692
O15   O     O_R   0.188030 0.615840 0.189340 -0.531775
O16   O     O_R   0.811970 0.384160 0.810660 -0.530693
C5    C     C_R   0.325293 0.453295 0.171715 0.706831
C6    C     C_R   0.674712 0.546705 0.828287 0.707131
C7    C     C_R   0.174707 0.953295 0.328284 0.706830
C8    C     C_R   0.825288 0.046705 0.671713 0.707136
O17   O     O_3   0.251670 0.448440 0.290760 -0.372538
O18   O     O_3   0.748330 0.551560 0.709240 -0.374741
O19   O     O_3   0.248330 0.948440 0.209240 -0.372538
O20   O     O_3   0.751670 0.051560 0.790760 -0.374747
V1    V     V_3+5 0.249690 0.173030 0.242440 1.561016
V2    V     V_3+5 0.750310 0.826970 0.757560 1.528221
V3    V     V_3+5 0.250310 0.673030 0.257560 1.561015
V4    V     V_3+5 0.749690 0.326970 0.742440 1.528220
C9    C     C_R   0.994565 0.157520 0.538090 -0.186082
C10   C     C_R   0.005367 0.842470 0.461837 -0.171924
C11   C     C_R   0.505435 0.657520 0.961910 -0.186077
C12   C     C_R   0.494633 0.342470 0.038162 -0.171919
H1    H     H_    0.990453 0.279334 0.567805 0.231053
H2    H     H_    0.009518 0.720627 0.432148 0.231032
H3    H     H_    0.509547 0.779335 0.932195 0.231054
H4    H     H_    0.490482 0.220627 0.067852 0.231031
C13   C     C_R   0.954791 0.010793 0.543302 -0.093270
C14   C     C_R   0.045142 0.989213 0.456629 -0.098904
C15   C     C_R   0.545209 0.510793 0.956698 -0.093266
C16   C     C_R   0.454859 0.489212 0.043371 -0.098904
C17   C     C_R   0.960423 0.851267 0.504839 0.491835
C18   C     C_R   0.039505 0.148701 0.495100 0.416475
C19   C     C_R   0.539577 0.351267 0.995160 0.491830
C20   C     C_R   0.460495 0.648701 0.004900 0.416472
C21   C     C_1   0.908862 0.026309 0.588490 0.174800
C22   C     C_1   0.091099 0.973702 0.411474 0.174387
C23   C     C_1   0.591138 0.526310 0.911509 0.174791
C24   C     C_1   0.408901 0.473701 0.088526 0.174389
C25   C     C_1   0.129332 0.962908 0.373758 -0.058384
C26   C     C_1   0.870647 0.037096 0.626226 -0.081907
C27   C     C_1   0.370668 0.462908 0.126242 -0.058383
C28   C     C_1   0.629353 0.537097 0.873774 -0.081925
C29   C     C_R   0.425577 0.830746 0.386408 -0.101403
C30   C     C_R   0.574540 0.169440 0.613472 -0.109064
C31   C     C_R   0.074423 0.330746 0.113592 -0.101402
C32   C     C_R   0.925460 0.669440 0.886528 -0.109064
C33   C     C_R   0.380635 0.963768 0.384251 -0.105157
C34   C     C_R   0.619477 0.036430 0.615629 -0.109517
C35   C     C_R   0.119365 0.463768 0.115749 -0.105157
C36   C     C_R   0.880523 0.536430 0.884371 -0.109518
C37   C     C_R   0.383625 0.109938 0.428665 -0.078480
C38   C     C_R   0.616705 0.891000 0.570936 -0.081835
C39   C     C_R   0.116375 0.609938 0.071335 -0.078480
C40   C     C_R   0.883295 0.391001 0.929064 -0.081833
C41   C     C_R   0.430908 0.124591 0.474760 0.087354
C42   C     C_R   0.569527 0.876738 0.524687 0.112524
C43   C     C_R   0.069092 0.624591 0.025240 0.087354
C44   C     C_R   0.930473 0.376739 0.975313 0.112524
C45   C     C_R   0.476274 0.991725 0.476659 0.032832
C46   C     C_R   0.524178 0.009681 0.522771 0.015132
C47   C     C_R   0.023726 0.491725 0.023341 0.032827
C48   C     C_R   0.975821 0.509682 0.977229 0.015123
C49   C     C_R   0.473826 0.841993 0.432251 0.011552
C50   C     C_R   0.526658 0.159542 0.567135 -0.023311
C51   C     C_R   0.026173 0.341993 0.067749 0.011553
C52   C     C_R   0.973342 0.659542 0.932865 -0.023312
C53   C     C_R   0.433644 0.272857 0.518206 -0.194946
C54   C     C_R   0.567024 0.729297 0.480900 -0.210260
C55   C     C_R   0.066355 0.772857 0.981794 -0.194944
C56   C     C_R   0.932976 0.229297 0.019100 -0.210258
C57   C     C_R   0.480838 0.293009 0.564052 0.441989
C58   C     C_R   0.520044 0.709975 0.434730 0.409231
C59   C     C_R   0.019161 0.793010 0.935948 0.441987
C60   C     C_R   0.979956 0.209975 0.065270 0.409230
S1    S     S_3+6 0.088173 0.338396 0.490134 0.047135
O21   O     O_2   0.082701 0.415615 0.423147 -0.308678
O22   O     O_2   0.074566 0.488762 0.536815 -0.308565
O23   O     O_3   0.157412 0.265098 0.505941 -0.481935
H5    H     H_    0.157479 0.206597 0.548885 0.348106
S2    S     S_3+6 0.911898 0.661407 0.510054 0.029748
O24   O     O_2   0.925647 0.511573 0.463233 -0.303350
O25   O     O_2   0.917497 0.584748 0.577145 -0.345028
O26   O     O_3   0.842829 0.735893 0.493831 -0.496225
H6    H     H_    0.817730 0.629358 0.504140 0.364968
S3    S     S_3+6 0.411827 0.838396 0.009867 0.047134
O27   O     O_2   0.417299 0.915614 0.076853 -0.308678
O28   O     O_2   0.425434 0.988762 0.963185 -0.308565
O29   O     O_3   0.342588 0.765098 0.994060 -0.481935
H7    H     H_    0.342521 0.706598 0.951116 0.348106
S4    S     S_3+6 0.588101 0.161406 0.989945 0.029758
O30   O     O_2   0.574353 0.011572 0.036766 -0.303325
O31   O     O_2   0.582501 0.084750 0.922854 -0.345049
O32   O     O_3   0.657171 0.235892 0.006167 -0.496216
H8    H     H_    0.682271 0.129402 0.995816 0.364954
H9    H     H_    0.422924 0.722356 0.350667 0.195550
H10   H     H_    0.576838 0.276354 0.649723 0.199443
H11   H     H_    0.077076 0.222356 0.149333 0.195549
H12   H     H_    0.923162 0.776354 0.850277 0.199443
H13   H     H_    0.349036 0.213109 0.427187 0.129938
H14   H     H_    0.651348 0.788015 0.572355 0.122519
H15   H     H_    0.150964 0.713109 0.072813 0.129938
H16   H     H_    0.848651 0.288016 0.927645 0.122515
H17   H     H_    0.398561 0.374077 0.516107 0.186539
H18   H     H_    0.602197 0.628460 0.482918 0.155073
H19   H     H_    0.101439 0.874077 0.983893 0.186539
H20   H     H_    0.897803 0.128461 0.017082 0.155075
S5    S     S_3+6 0.479552 0.485264 0.617068 -0.003939
O33   O     O_2   0.466683 0.416874 0.682678 -0.295527
O34   O     O_2   0.537956 0.581370 0.621093 -0.370565
O35   O     O_3   0.427442 0.637728 0.591302 -0.500840
H21   H     H_    0.437751 0.754936 0.614124 0.375700
S6    S     S_3+6 0.522227 0.522194 0.379924 0.017231
O36   O     O_2   0.465661 0.416068 0.378189 -0.335699
O37   O     O_2   0.530343 0.597217 0.313889 -0.304338
O38   O     O_3   0.577456 0.375687 0.401132 -0.483937
H22   H     H_    0.612687 0.431673 0.383769 0.358789
S7    S     S_3+6 0.020448 0.985266 0.882933 -0.003935
O39   O     O_2   0.033317 0.916878 0.817323 -0.295521
O40   O     O_2   0.962043 0.081369 0.878907 -0.370569
O41   O     O_3   0.072556 0.137732 0.908700 -0.500833
H23   H     H_    0.062242 0.254951 0.885884 0.375691
S8    S     S_3+6 0.977772 0.022195 0.120076 0.017232
O42   O     O_2   0.034339 0.916068 0.121811 -0.335699
O43   O     O_2   0.969657 0.097218 0.186111 -0.304338
O44   O     O_3   0.922544 0.875688 0.098869 -0.483935
H24   H     H_    0.887312 0.931675 0.116231 0.358791

loop_
_geom_bond_atom_site_label_1
_geom_bond_atom_site_label_2
_ccdc_geom_bond_type
O17   V3    S    
C55   C59   A    
C30   C34   A    
S6    O36   D    
C58   S6    S    
O13   V1    S    
C45   C46   A    
O3    C7    A    
C10   C14   A    
C44   C48   A    
S7    O41   S    
O15   V3    S    
S4    O31   D    
O26   H6    S    
C18   S1    S    
O1    C5    A    
O5    C1    A    
C36   C40   A    
O9    V1    S    
C52   C59   A    
C11   H3    S    
O4    C8    A    
O19   V1    S    
C11   C20   A    
C8    C26   S    
C21   C26   T    
C53   H17   S    
O1    V3    S    
C56   H20   S    
C12   C19   A    
O2    V4    S    
C23   C28   T    
C14   C18   A    
C55   H19   S    
O3    V1    S    
C39   H15   S    
C51   C60   A    
S5    O35   S    
C1    O15   A    
C29   H9    S    
C2    O16   A    
O2    C6    A    
C31   H11   S    
O32   H8    S    
C57   S5    S    
O14   V2    S    
S1    O22   D    
C11   C15   A    
O5    V1    S    
C24   C27   T    
C40   C44   A    
S2    O25   D    
C16   C24   S    
O11   C7    A    
O12   C8    A    
C30   H10   S    
C9    C18   A    
S2    O24   D    
O10   V2    S    
S8    O44   S    
C17   S2    S    
C13   C21   S    
S4    O30   D    
C7    C25   S    
C43   C55   A    
C35   C39   A    
C22   C25   T    
O7    V3    S    
C34   C38   A    
O8    V4    S    
C29   C49   A    
C12   H4    S    
C60   S8    S    
S8    O43   D    
C31   C51   A    
C5    C27   S    
O18   V4    S    
C6    C28   S    
S2    O26   S    
C3    C33   S    
C54   C58   A    
O11   V3    S    
C9    H1    S    
C10   H2    S    
O7    C3    A    
C47   C48   A    
C42   C46   A    
C32   H12   S    
C4    C34   S    
S3    O27   D    
O8    C4    A    
O9    C5    A    
C10   C17   A    
S1    O23   S    
C41   C45   A    
S5    O33   D    
C44   C56   A    
C59   S7    S    
C14   C22   S    
C50   C57   A    
O6    V2    S    
C40   H16   S    
C49   C58   A    
C12   C16   A    
C54   H18   S    
S7    O39   D    
O38   H22   S    
O16   V4    S    
C20   S3    S    
C32   C52   A    
S6    O37   D    
C19   S4    S    
C38   H14   S    
S3    O28   D    
C1    C35   S    
C37   H13   S    
C2    C36   S    
C48   C52   A    
S8    O42   D    
S7    O40   D    
C3    O13   A    
O6    C2    A    
O44   H24   S    
C29   C33   A    
O41   H23   S    
O12   V4    S    
C31   C35   A    
S6    O38   S    
C32   C36   A    
C9    C13   A    
O10   C6    A    
O20   V2    S    
C43   C47   A    
C15   C23   S    
C38   C42   A    
C56   C60   A    
C15   C19   A    
C37   C41   A    
O23   H5    S    
C39   C43   A    
O29   H7    S    
C42   C54   A    
O4    V2    S    
S5    O34   D    
C41   C53   A    
C30   C50   A    
C33   C37   A    
S3    O29   S    
C45   C49   A    
C46   C50   A    
C4    O14   A    
C13   C17   A    
S1    O21   D    
C47   C51   A    
S4    O32   S    
C53   C57   A    
C16   C20   A    
O35   H21   S    
