data_mof_unit_56307.cif
_audit_creation_date              2012-12-11T14:49:48-0500
_audit_creation_method            fapswitch 2.2
_symmetry_space_group_name_H-M    P1
_symmetry_Int_Tables_number       1
_space_group_crystal_system       triclinic
_cell_length_a                    11.265613
_cell_length_b                    11.287401
_cell_length_c                    19.161447
_cell_angle_alpha                 89.985373
_cell_angle_beta                  90.168513
_cell_angle_gamma                 120.220043
_cell_volume                      2105.4171878

loop_
_atom_site_label
_atom_site_type_symbol
_atom_type_description
_atom_site_fract_x
_atom_site_fract_y
_atom_site_fract_z
_atom_type_partial_charge
Br1   Br    Br    0.236480 0.921755 0.590102 -0.586776
Br2   Br    Br    0.919661 0.236749 0.409379 -0.554108
Br3   Br    Br    0.773064 0.641966 0.108005 -0.387026
Br4   Br    Br    0.315884 0.079506 0.408521 -0.553277
Br5   Br    Br    0.817770 0.697147 0.938315 -0.440207
Br6   Br    Br    0.080888 0.317830 0.590963 -0.584530
Br7   Br    Br    0.316143 0.132163 0.941686 -0.482660
Br8   Br    Br    0.686254 0.764109 0.591438 -0.584268
Br9   Br    Br    0.881161 0.183397 0.936191 -0.442349
Br10  Br    Br    0.872821 0.228037 0.104471 -0.363442
Br11  Br    Br    0.763817 0.686678 0.409589 -0.555504
Br12  Br    Br    0.413320 0.173998 0.110880 -0.417646
C1    C     C_R   0.529740 0.459398 0.644714 0.576236
C2    C     C_R   0.459373 0.530091 0.355384 0.592745
C3    C     C_R   0.471119 0.936488 0.146596 0.598962
C4    C     C_R   0.070980 0.540897 0.355354 0.592766
C5    C     C_R   0.401691 0.997169 0.536206 0.097653
C6    C     C_R   0.637268 0.569589 0.972498 0.142961
C7    C     C_R   0.004255 0.405888 0.536742 0.099170
C8    C     C_R   0.445101 0.081228 0.973893 0.140191
C9    C     C_R   0.594795 0.599384 0.536954 0.098725
C10   C     C_R   0.942193 0.365748 0.970246 0.133808
C11   C     C_R   0.956446 0.384851 0.042662 0.141770
C12   C     C_R   0.932719 0.467562 0.854376 0.574461
C13   C     C_R   0.598849 0.595560 0.463681 0.099279
C14   C     C_R   0.454313 0.069721 0.046391 0.158088
C15   C     C_R   0.996630 0.401936 0.463469 0.100196
C16   C     C_R   0.618497 0.562434 0.045162 0.161965
C17   C     C_R   0.405873 0.005021 0.462948 0.101350
C18   C     C_R   0.496922 0.977213 0.427965 0.043665
C19   C     C_R   0.485688 0.497766 0.072701 0.028610
C20   C     C_R   0.024058 0.520349 0.428155 0.041864
C21   C     C_R   0.483447 0.972064 0.072035 0.041824
C22   C     C_R   0.479973 0.503997 0.428219 0.042504
C23   C     C_R   0.540727 0.070909 0.644616 0.576896
C24   C     C_R   0.026303 0.518011 0.070092 0.013497
C25   C     C_R   0.989473 0.480737 0.924995 0.007005
C26   C     C_R   0.503300 0.480349 0.572002 0.045034
C27   C     C_R   0.501030 0.022700 0.927969 0.015322
C28   C     C_R   0.976451 0.496633 0.571915 0.044717
C29   C     C_R   0.521737 0.503979 0.926955 0.004879
C30   C     C_R   0.520245 0.024358 0.571746 0.044093
C31   C     C_R   0.605232 0.976802 0.466234 0.002164
C32   C     C_R   0.370317 0.427308 0.026126 -0.014703
C33   C     C_R   0.023856 0.628893 0.466048 0.003051
C34   C     C_R   0.533323 0.464124 0.855084 0.576654
C35   C     C_R   0.498560 0.885863 0.024196 -0.017392
C36   C     C_R   0.370858 0.395025 0.465996 0.002700
C37   C     C_R   0.072319 0.633003 0.023784 -0.019782
C38   C     C_R   0.069452 0.612582 0.951649 -0.015764
C39   C     C_R   0.394613 0.371341 0.533806 0.004234
C40   C     C_R   0.528230 0.922594 0.953803 -0.003705
C41   C     C_R   0.976388 0.605085 0.533866 0.004974
C42   C     C_R   0.390132 0.449291 0.954079 -0.013206
C43   C     C_R   0.629105 0.024325 0.534049 0.004089
C44   C     C_3   0.685934 0.912736 0.439317 -0.282629
C45   C     C_R   0.929191 0.470080 0.644674 0.574270
C46   C     C_3   0.224793 0.334176 0.051040 -0.278082
C47   C     C_3   0.086828 0.773648 0.438615 -0.281743
C48   C     C_3   0.461105 0.745469 0.045347 -0.376767
C49   C     C_3   0.225532 0.312955 0.438560 -0.282935
C50   C     C_3   0.123471 0.777909 0.048924 -0.285788
C51   C     C_3   0.159366 0.729662 0.902871 -0.347200
C52   C     C_3   0.313186 0.226230 0.560806 -0.282802
C53   C     C_3   0.569601 0.843402 0.904849 -0.320508
C54   C     C_3   0.912973 0.686191 0.561124 -0.281342
C55   C     C_3   0.273304 0.428909 0.906596 -0.349637
C56   C     C_R   0.538215 0.071803 0.855712 0.573827
C57   C     C_3   0.774329 0.087523 0.561574 -0.282446
C58   C     C_R   0.462616 0.526859 0.145781 0.586771
C59   C     C_R   0.470324 0.929619 0.355263 0.590295
C60   C     C_R   0.070731 0.540529 0.144150 0.582676
Cr1   Cr    Cr6+3 0.776430 0.541680 0.750000 1.098748
Cr2   Cr    Cr6+3 0.765250 0.223570 0.750000 1.096416
Cr3   Cr    Cr6+3 0.458320 0.234750 0.750000 1.100090
Cr4   Cr    Cr6+3 0.541680 0.776430 0.250000 1.120827
Cr5   Cr    Cr6+3 0.223570 0.765250 0.250000 1.094236
Cr6   Cr    Cr6+3 0.234750 0.458320 0.250000 1.097992
H1    H     H_    0.754280 0.903714 0.476810 0.190238
H2    H     H_    0.398101 0.672660 0.003860 0.104345
H3    H     H_    0.559617 0.749786 0.054500 0.193514
H4    H     H_    0.394005 0.708658 0.091872 0.121352
H5    H     H_    0.147736 0.244733 0.475928 0.189278
H6    H     H_    0.198123 0.389358 0.422977 0.183025
H7    H     H_    0.213604 0.245453 0.394194 0.233514
H8    H     H_    0.134313 0.850450 0.007279 0.181948
H9    H     H_    0.052261 0.783599 0.086302 0.235038
H10   H     H_    0.223762 0.815299 0.072513 0.139930
H11   H     H_    0.260447 0.794008 0.927397 0.117534
H12   H     H_    0.608402 0.808499 0.424013 0.180914
H13   H     H_    0.179720 0.692247 0.853251 0.138936
H14   H     H_    0.111999 0.792992 0.890986 0.222364
H15   H     H_    0.244837 0.148595 0.523242 0.189664
H16   H     H_    0.245517 0.213793 0.605122 0.231314
H17   H     H_    0.390252 0.199373 0.576293 0.186813
H18   H     H_    0.576663 0.760590 0.930789 0.139422
H19   H     H_    0.494296 0.797728 0.861430 0.117317
H20   H     H_    0.674072 0.909892 0.883944 0.234420
H21   H     H_    0.904221 0.755042 0.524079 0.190196
H22   H     H_    0.808459 0.609144 0.576170 0.186123
H23   H     H_    0.753663 0.967822 0.394941 0.234421
H24   H     H_    0.968469 0.753341 0.605773 0.232002
H25   H     H_    0.215443 0.471026 0.932669 0.106888
H26   H     H_    0.204273 0.318861 0.894240 0.223506
H27   H     H_    0.310997 0.486952 0.857032 0.139453
H28   H     H_    0.852086 0.096881 0.524367 0.189319
H29   H     H_    0.802259 0.191611 0.577052 0.187562
H30   H     H_    0.785800 0.031911 0.606038 0.231308
H31   H     H_    0.152529 0.272077 0.009118 0.188842
H32   H     H_    0.218718 0.257220 0.088812 0.234309
H33   H     H_    0.188014 0.398287 0.074156 0.143979
H34   H     H_    0.095628 0.851477 0.475568 0.189896
H35   H     H_    0.191300 0.801790 0.423484 0.182472
H36   H     H_    0.031140 0.784634 0.393932 0.234460
O1    O     O_R   0.916700 0.566820 0.669930 -0.531715
O2    O     O_R   0.566820 0.916700 0.330070 -0.519899
O3    O     O_R   0.083300 0.650120 0.169930 -0.495187
O4    O     O_R   0.349880 0.433180 0.330070 -0.518160
O5    O     O_R   0.649840 0.534790 0.674920 -0.481733
O6    O     O_R   0.884950 0.350160 0.825080 -0.463257
O7    O     O_R   0.465210 0.115050 0.674920 -0.481372
O8    O     O_R   0.649840 0.534790 0.825080 -0.463172
O9    O     O_R   0.884950 0.350160 0.674920 -0.482567
O10   O     O_R   0.465210 0.115050 0.825080 -0.460511
O11   O     O_R   0.534790 0.649840 0.174920 -0.473500
O12   O     O_R   0.650120 0.083300 0.830070 -0.484208
O13   O     O_R   0.350160 0.884950 0.325080 -0.474018
O14   O     O_R   0.115050 0.465210 0.174920 -0.485252
O15   O     O_R   0.534790 0.649840 0.325080 -0.473130
O16   O     O_R   0.350160 0.884950 0.174920 -0.504889
O17   O     O_R   0.115050 0.465210 0.325080 -0.472102
O18   O     O_3   0.666667 0.333333 0.750000 -0.322129
O19   O     O_3   0.333333 0.666667 0.250000 -0.345570
O20   O     O_R   0.433180 0.349880 0.669930 -0.531132
O21   O     O_R   0.916700 0.566820 0.830070 -0.473643
O22   O     O_R   0.650120 0.083300 0.669930 -0.530464
O23   O     O_R   0.433180 0.349880 0.830070 -0.469555
O24   O     O_R   0.566820 0.916700 0.169930 -0.455119
O25   O     O_R   0.083300 0.650120 0.330070 -0.517293
O26   O     O_R   0.349880 0.433180 0.169930 -0.502069

loop_
_geom_bond_atom_site_label_1
_geom_bond_atom_site_label_2
_ccdc_geom_bond_type
C58   O26   A    
Cr1   O5    S    
Cr2   O18   S    
C46   H31   S    
C5    C17   A    
C1    O20   A    
C54   H24   S    
Cr6   O14   S    
C56   O10   A    
C18   C59   S    
C57   H29   S    
Cr3   O20   S    
C55   H25   S    
C45   O1    A    
Br6   C7    S    
C50   H8    S    
C44   H1    S    
C60   O14   A    
Br3   C16   S    
Cr6   O4    S    
C53   H20   S    
Cr5   O3    S    
Br9   C10   S    
Br11  C13   S    
C11   C24   A    
C27   C56   S    
C54   H22   S    
C4    O17   A    
C23   C30   S    
C5    C30   A    
C35   C48   S    
C48   H4    S    
C36   C39   A    
C48   H2    S    
C9    C26   A    
Cr1   O21   S    
C32   C46   S    
C2    O4    A    
Cr2   O22   S    
C60   O3    A    
C29   C34   S    
Br2   C15   S    
C37   C50   S    
C7    C15   A    
Br4   C17   S    
Cr5   O13   S    
C13   C22   A    
C3    O24   A    
C44   H12   S    
Cr2   O9    S    
Cr1   O18   S    
C33   C41   A    
C46   H32   S    
Cr4   O11   S    
C59   O13   A    
Cr5   O19   S    
C1    O5    A    
C57   H30   S    
C55   H26   S    
Br8   C9    S    
C38   C51   S    
C19   C58   S    
C12   O6    A    
C19   C32   A    
C46   H33   S    
C23   O7    A    
C6    C16   A    
C12   C25   S    
C49   H5    S    
C6    C29   A    
C8    C27   A    
C55   H27   S    
C42   C55   S    
C10   C25   A    
C50   H10   S    
Cr3   O10   S    
Br12  C14   S    
C54   H21   S    
C51   H14   S    
C35   C40   A    
Cr6   O17   S    
C2    C22   S    
C17   C18   A    
C30   C43   A    
C45   O9    A    
C48   H3    S    
C14   C21   A    
C47   H35   S    
C51   H11   S    
Cr4   O15   S    
C47   H34   S    
C20   C33   A    
C41   C54   S    
C1    C26   S    
C43   C57   S    
C49   H7    S    
C34   O23   A    
C58   O11   A    
C31   C43   A    
Br7   C8    S    
Cr3   O23   S    
C21   C35   A    
C18   C31   A    
C4    O25   A    
C22   C36   A    
C56   O12   A    
Cr3   O18   S    
C53   H18   S    
C9    C13   A    
C33   C47   S    
C57   H28   S    
C28   C45   S    
C15   C20   A    
Cr3   O7    S    
Cr1   O8    S    
C16   C19   A    
C39   C52   S    
Cr5   O25   S    
C52   H17   S    
C49   H6    S    
Cr6   O26   S    
C23   O22   A    
C52   H15   S    
Cr4   O19   S    
C28   C41   A    
C44   H23   S    
C26   C39   A    
Cr4   O24   S    
Br10  C11   S    
C4    C20   S    
Cr2   O6    S    
C50   H9    S    
Br1   C5    S    
Cr1   O1    S    
C53   H19   S    
C25   C38   A    
C36   C49   S    
Cr2   O12   S    
C3    O16   A    
C8    C14   A    
Br5   C6    S    
C47   H36   S    
Cr4   O2    S    
C59   O2    A    
C27   C40   A    
Cr5   O16   S    
Cr6   O19   S    
C29   C42   A    
C7    C28   A    
C40   C53   S    
C52   H16   S    
C32   C42   A    
C31   C44   S    
C37   C38   A    
C51   H13   S    
C10   C11   A    
C34   O8    A    
C12   O21   A    
C3    C21   S    
C24   C37   A    
C24   C60   S    
C2    O15   A    
