data_mof_unit_15913.cif
_audit_creation_date              2013-03-05T15:42:15-0500
_audit_creation_method            fapswitch 2.2
_symmetry_space_group_name_H-M    P1
_symmetry_Int_Tables_number       1
_space_group_crystal_system       triclinic
_cell_length_a                    11.598073
_cell_length_b                    11.547121
_cell_length_c                    19.534583
_cell_angle_alpha                 90.321071
_cell_angle_beta                  90.21184
_cell_angle_gamma                 59.58149
_cell_volume                      2256.00628508

loop_
_atom_site_label
_atom_site_type_symbol
_atom_site_description
_atom_site_fract_x
_atom_site_fract_y
_atom_site_fract_z
_atom_type_partial_charge
O1    O     O_R   0.267740 0.231960 0.575440 -0.507216
O2    O     O_R   0.527280 0.186640 0.570530 -0.490593
C1    C     C_R   0.640572 0.117420 0.599209 0.566380
O3    O     O_R   0.728090 0.003450 0.576380 -0.487024
O4    O     O_R   0.682970 0.789190 0.570490 -0.495370
C2    C     C_R   0.612699 0.745835 0.598539 0.544819
O5    O     O_R   0.499290 0.771880 0.575530 -0.500373
O6    O     O_R   0.285330 0.030870 0.569730 -0.479243
C3    C     C_R   0.241194 0.145327 0.598179 0.558032
O7    O     O_R   0.270980 0.227080 0.423890 -0.550248
O8    O     O_R   0.530280 0.182120 0.430050 -0.500991
C4    C     C_R   0.621696 0.081581 0.394122 0.543230
O9    O     O_R   0.731330 0.998570 0.424830 -0.468056
O10   O     O_R   0.685970 0.784660 0.430010 -0.534268
C5    C     C_R   0.615096 0.737306 0.402797 0.530132
O11   O     O_R   0.502530 0.767000 0.423990 -0.527436
O12   O     O_R   0.288330 0.026350 0.429250 -0.446632
C6    C     C_R   0.238439 0.146292 0.402763 0.580076
Cr1   Cr    Cr6+3 0.404720 0.198220 0.499960 1.032058
Cr2   Cr    Cr6+3 0.698290 0.897110 0.500380 1.054831
Cr3   Cr    Cr6+3 0.396970 0.904720 0.499610 1.081829
O13   O     O_3   0.499990 0.000020 0.499980 -0.289896
C7    C     C_1   0.669511 0.646847 0.860197 0.004160
C8    C     C_1   0.654938 0.683536 0.728445 -0.029531
C9    C     C_1   0.662897 0.666925 0.799723 -0.030769
C10   C     C_1   0.641754 0.703574 0.667945 0.007136
C11   C     C_1   0.126498 0.198666 0.859308 0.003176
C12   C     C_1   0.171600 0.170268 0.727690 -0.028732
C13   C     C_1   0.150063 0.182198 0.798949 -0.030086
C14   C     C_1   0.195491 0.160942 0.667354 0.009335
C15   C     C_1   0.677997 0.191620 0.860805 0.004505
C16   C     C_1   0.658541 0.167246 0.728991 -0.029432
C17   C     C_1   0.665254 0.181190 0.800323 -0.029688
C18   C     C_1   0.653221 0.149545 0.668585 0.006188
H1    H     H_    0.851071 0.566336 0.341381 0.123141
C19   C     C_R   0.671245 0.660521 0.193722 0.015763
C20   C     C_R   0.542959 0.741280 0.219670 0.004694
C21   C     C_R   0.523473 0.727594 0.288677 -0.007876
C22   C     C_R   0.764611 0.608335 0.307917 -0.172120
C23   C     C_R   0.780766 0.587591 0.237964 -0.151498
C24   C     C_R   0.432380 0.815464 0.176313 -0.142424
C25   C     C_R   0.306103 0.845709 0.196941 -0.116947
C26   C     C_R   0.288100 0.805926 0.261573 0.195041
C27   C     C_R   0.395555 0.750309 0.307836 -0.080600
C28   C     C_R   0.636052 0.682786 0.333809 0.012741
H2    H     H_    0.445499 0.838302 0.124186 0.123479
H3    H     H_    0.879654 0.517955 0.218313 0.150121
H4    H     H_    0.224441 0.892610 0.160704 0.154534
H5    H     H_    0.380206 0.714300 0.355817 0.180234
C29   C     C_R   0.136033 0.198512 0.194595 -0.060794
C30   C     C_R   0.199609 0.262154 0.224299 0.007214
C31   C     C_R   0.190494 0.280367 0.295247 -0.007395
C32   C     C_R   0.096021 0.134819 0.308054 0.167995
C33   C     C_R   0.079349 0.141323 0.236858 -0.137809
C34   C     C_R   0.256067 0.323212 0.184635 -0.078397
C35   C     C_R   0.273285 0.424493 0.212500 -0.121274
C36   C     C_R   0.239874 0.461714 0.280435 -0.135672
C37   C     C_R   0.198138 0.391487 0.321509 -0.088344
C38   C     C_R   0.167956 0.190742 0.336447 -0.017680
H6    H     H_    0.280018 0.298211 0.131087 0.127266
H7    H     H_    0.016264 0.107159 0.214439 0.211579
H8    H     H_    0.308909 0.476594 0.180893 0.124893
H9    H     H_    0.248539 0.543470 0.301716 0.165962
H10   H     H_    0.166171 0.429880 0.372772 0.153865
H11   H     H_    0.513291 0.324802 0.335403 0.145856
C39   C     C_R   0.657304 0.173383 0.185936 0.001328
C40   C     C_R   0.712880 0.037306 0.204569 0.042569
C41   C     C_R   0.715862 0.004183 0.274448 0.045647
C42   C     C_R   0.570607 0.242790 0.300119 -0.111947
C43   C     C_R   0.585026 0.274695 0.233743 -0.144612
C44   C     C_R   0.774841 0.933045 0.155467 -0.086317
C45   C     C_R   0.862467 0.802172 0.175855 -0.076583
C46   C     C_R   0.882548 0.772537 0.245063 -0.040601
C47   C     C_R   0.803330 0.868953 0.293564 -0.034783
C48   C     C_R   0.637508 0.108774 0.322188 0.031313
H12   H     H_    0.761196 0.953248 0.101096 0.119740
H13   H     H_    0.544848 0.379366 0.220789 0.136548
H14   H     H_    0.917424 0.724463 0.138123 0.125404
H15   H     H_    0.956677 0.672491 0.261263 0.127345
H16   H     H_    0.818243 0.834359 0.345373 0.168050
O14   O     O_R   0.821500 0.119340 0.952830 -0.511276
O15   O     O_R   0.037130 0.162530 0.957360 -0.494667
C49   C     C_R   0.081546 0.231082 0.928588 0.543061
O16   O     O_R   0.056440 0.344740 0.951340 -0.506420
O17   O     O_R   0.797900 0.560360 0.957470 -0.495217
C50   C     C_R   0.683507 0.604493 0.929570 0.540388
O18   O     O_R   0.596130 0.579390 0.952730 -0.506487
O19   O     O_R   0.639060 0.321160 0.958670 -0.495648
C51   C     C_R   0.708025 0.206650 0.930181 0.538074
O20   O     O_R   0.821240 0.124200 0.104370 -0.504966
O21   O     O_R   0.036890 0.167040 0.097840 -0.506593
C52   C     C_R   0.083603 0.234685 0.125205 0.528824
O22   O     O_R   0.056180 0.349610 0.102880 -0.519295
O23   O     O_R   0.797660 0.564870 0.097950 -0.517516
C53   C     C_R   0.684315 0.610831 0.125200 0.535968
O24   O     O_R   0.595880 0.584250 0.104270 -0.511073
O25   O     O_R   0.638830 0.325670 0.099150 -0.507109
C54   C     C_R   0.704660 0.208146 0.124455 0.534989
Cr4   Cr    Cr6+3 0.926180 0.151990 0.028120 1.032866
Cr5   Cr    Cr6+3 0.921330 0.451820 0.027470 1.015312
Cr6   Cr    Cr6+3 0.626260 0.446870 0.028710 1.024321
O26   O     O_3   0.824590 0.350230 0.028100 -0.249101
N1    N     N_R   0.162051 0.819197 0.279157 0.074205
O27   O     O_R   0.139751 0.791264 0.340431 -0.335959
O28   O     O_R   0.067896 0.860270 0.233461 -0.353809
N2    N     N_R   0.021573 0.093277 0.350435 0.117818
O29   O     O_R   0.926224 0.079749 0.323574 -0.282334
O30   O     O_R   0.029564 0.093833 0.416884 -0.307315

loop_
_geom_bond_atom_site_label_1
_geom_bond_atom_site_label_2
_geom_bond_distance
_ccdc_geom_bond_type
C27   H5    1.078728 S    
C23   H3    1.084093 S    
C34   C35   1.390136 A    
C24   C25   1.383528 A    
Cr6   O26   1.984265 S    
C11   C13   1.203477 T    
O15   Cr4   1.937776 S    
O20   Cr4   2.053585 S    
C53   O24   1.275802 A    
O25   C54   1.274531 A    
C32   C38   1.399582 A    
O4    Cr2   1.924933 S    
C2    C10   1.423885 S    
O17   C50   1.276745 A    
C41   C48   1.427030 A    
O8    Cr1   1.938551 S    
C29   C33   1.414088 A    
C12   C13   1.408773 S    
C8    C10   1.199818 T    
O4    C2    1.278522 A    
N2    O29   1.300915 A    
C41   C47   1.416528 A    
C5    O11   1.241984 A    
C35   C36   1.387363 A    
C46   C47   1.392873 A    
C21   C28   1.436082 A    
C45   H14   1.082412 S    
O18   Cr6   2.036368 S    
C32   N2    1.445762 S    
O6    C3    1.275313 A    
C15   C51   1.429382 S    
C7    C50   1.423880 S    
C24   H2    1.083689 S    
C15   C17   1.203079 T    
C30   C34   1.415475 A    
C22   C28   1.385915 A    
O14   C51   1.265450 A    
C39   C40   1.412810 A    
C47   H16   1.070992 S    
O24   Cr6   2.056916 S    
C43   H13   1.083618 S    
O23   C53   1.260421 A    
C36   H9    1.079581 S    
C37   H10   1.080807 S    
O1    Cr1   2.057653 S    
C40   C41   1.415255 A    
O16   Cr5   2.056856 S    
O10   Cr2   1.939726 S    
C19   C23   1.409403 A    
Cr1   O13   1.974343 S    
O1    C3    1.269139 A    
C8    C9    1.402922 S    
C22   C23   1.382972 A    
C50   O18   1.272018 A    
O14   Cr4   2.055081 S    
C1    C18   1.429606 S    
C29   C30   1.400435 A    
C32   C33   1.400638 A    
O12   Cr3   1.914717 S    
C30   C31   1.396984 A    
C16   C18   1.203138 T    
H1    C22   1.083660 S    
C26   C27   1.403585 A    
C21   C27   1.420878 A    
C20   C21   1.390680 A    
C31   C38   1.439417 A    
C49   O16   1.269723 A    
O23   Cr5   1.937886 S    
O7    Cr1   2.047019 S    
Cr5   O26   1.992033 S    
O12   C6    1.309585 A    
C46   H15   1.081772 S    
N1    O28   1.298973 A    
C25   H4    1.082289 S    
C4    O9    1.289200 A    
O22   Cr5   2.035273 S    
C31   C37   1.422994 A    
C3    C14   1.430137 S    
C29   C52   1.457620 S    
Cr2   O13   1.983469 S    
C35   H8    1.082430 S    
C25   C26   1.397953 A    
C5    C28   1.452439 S    
C1    O3    1.266959 A    
C44   H12   1.082469 S    
O21   C52   1.269302 A    
C19   C20   1.391262 A    
O9    Cr2   2.043451 S    
O2    Cr1   1.932344 S    
O19   Cr6   1.939628 S    
C45   C46   1.386106 A    
O6    Cr3   1.937914 S    
O8    C4    1.309358 A    
O11   Cr3   2.055599 S    
C2    O5    1.272455 A    
C33   H7    1.082001 S    
C16   C17   1.408207 S    
C39   C54   1.462450 S    
C12   C14   1.203463 T    
O2    C1    1.270952 A    
C44   C45   1.386991 A    
O17   Cr5   1.917781 S    
O5    Cr3   2.032205 S    
C19   C53   1.431346 S    
C36   C37   1.394034 A    
C39   C43   1.394247 A    
N2    O30   1.301216 A    
O7    C6    1.238578 A    
H11   C42   1.082767 S    
C11   C49   1.430194 S    
C52   O22   1.276904 A    
C42   C48   1.404192 A    
C40   C44   1.414896 A    
C7    C9    1.199819 T    
C20   C24   1.408392 A    
C42   C43   1.383591 A    
C26   N1    1.433517 S    
C34   H6    1.082701 S    
O3    Cr2   2.058372 S    
C6    C38   1.478045 S    
Cr4   O26   1.974101 S    
O19   C51   1.273554 A    
O15   C49   1.275897 A    
C4    C48   1.473769 S    
N1    O27   1.301831 A    
O10   C5    1.306107 A    
O21   Cr4   1.934996 S    
Cr3   O13   1.992472 S    
O20   C54   1.262616 A    
O25   Cr6   1.920102 S    
