data_mof_unit_16854.cif
_audit_creation_date              2012-12-11T16:28:04-0500
_audit_creation_method            fapswitch 2.2
_symmetry_space_group_name_H-M    P1
_symmetry_Int_Tables_number       1
_space_group_crystal_system       triclinic
_cell_length_a                    30.453283
_cell_length_b                    22.611919
_cell_length_c                    18.18324
_cell_angle_alpha                 90.184997
_cell_angle_beta                  123.792637
_cell_angle_gamma                 89.802403
_cell_volume                      10405.6676685

loop_
_atom_site_label
_atom_site_type_symbol
_atom_type_description
_atom_site_fract_x
_atom_site_fract_y
_atom_site_fract_z
_atom_type_partial_charge
C1    C     C_R   0.535534 0.605259 0.713405 -0.153130
C2    C     C_R   0.701279 0.399161 0.447533 -0.135353
C3    C     C_R   0.729967 0.792207 0.824035 -0.214617
C4    C     C_R   0.301430 0.869976 0.026217 -0.215086
C5    C     C_R   0.771926 0.293248 0.173848 -0.211799
C6    C     C_R   0.698651 0.872313 0.967703 -0.213037
C7    C     C_R   0.229968 0.292207 0.824034 -0.214618
C8    C     C_R   0.849779 0.345376 0.051913 -0.231082
C9    C     C_R   0.221605 0.814765 0.142905 -0.235480
C10   C     C_R   0.148239 0.351447 0.936288 -0.230228
C11   C     C_R   0.781357 0.810899 0.858304 -0.232340
C12   C     C_R   0.349779 0.845376 0.051912 -0.231080
C13   C     C_R   0.706129 0.598238 0.447323 -0.193864
C14   C     C_R   0.721604 0.314765 0.142905 -0.235480
C15   C     C_R   0.648240 0.851447 0.936290 -0.230227
C16   C     C_R   0.281358 0.310898 0.858305 -0.232339
C17   C     C_R   0.598768 0.579821 0.431037 0.210866
C18   C     C_R   0.419760 0.392730 0.571471 0.195404
C19   C     C_R   0.412921 0.599618 0.572345 0.191696
C20   C     C_R   0.595114 0.411125 0.430528 0.198090
C21   C     C_R   0.098768 0.079822 0.431037 0.210866
C22   C     C_R   0.919760 0.892730 0.571471 0.195401
C23   C     C_R   0.912920 0.099617 0.572345 0.191686
C24   C     C_R   0.321468 0.317220 0.527192 -0.153694
C25   C     C_R   0.095114 0.911125 0.430528 0.198090
C26   C     C_R   0.389170 0.602185 0.279104 -0.116500
C27   C     C_R   0.618682 0.418293 0.741926 -0.116191
C28   C     C_R   0.607730 0.607067 0.709739 -0.116205
C29   C     C_R   0.381547 0.417947 0.257904 -0.128174
C30   C     C_R   0.889170 0.102185 0.279104 -0.116500
C31   C     C_R   0.118682 0.918293 0.741926 -0.116192
C32   C     C_R   0.107729 0.107067 0.709738 -0.116204
C33   C     C_R   0.881547 0.917947 0.257904 -0.128174
C34   C     C_R   0.580507 0.638084 0.738842 0.048069
C35   C     C_R   0.882469 0.227504 0.568558 -0.183145
C36   C     C_R   0.400690 0.404223 0.206289 0.054735
C37   C     C_R   0.416516 0.632954 0.250646 0.047194
C38   C     C_R   0.600211 0.407138 0.795209 0.049224
C39   C     C_R   0.080506 0.138085 0.738839 0.048071
C40   C     C_R   0.900690 0.904223 0.206289 0.054735
C41   C     C_R   0.916516 0.132954 0.250646 0.047194
C42   C     C_R   0.100211 0.907138 0.795210 0.049223
C43   C     C_R   0.648867 0.590731 0.506566 -0.060799
C44   C     C_R   0.382003 0.362023 0.496427 -0.012177
C45   C     C_R   0.373775 0.630224 0.498565 -0.062014
C46   C     C_R   0.201278 0.899161 0.447531 -0.135353
C47   C     C_R   0.643879 0.396024 0.505575 -0.008586
C48   C     C_R   0.148867 0.090731 0.506566 -0.060798
C49   C     C_R   0.882003 0.862023 0.496427 -0.012177
C50   C     C_R   0.873775 0.130224 0.498566 -0.062014
C51   C     C_R   0.143879 0.896025 0.505575 -0.008587
C52   C     C_R   0.283062 0.761152 0.424212 -0.168236
C53   C     C_R   0.773637 0.324926 0.584918 -0.165116
C54   C     C_R   0.781476 0.658501 0.600707 -0.187466
C55   C     C_R   0.338230 0.205867 0.478265 -0.191395
C56   C     C_R   0.783063 0.261153 0.424212 -0.168236
C57   C     C_R   0.206129 0.098237 0.447323 -0.193863
C58   C     C_R   0.273638 0.824928 0.584917 -0.165115
C59   C     C_R   0.281476 0.158501 0.600707 -0.187467
C60   C     C_R   0.838230 0.705866 0.478264 -0.191395
C61   C     C_R   0.303948 0.706814 0.423206 -0.169216
C62   C     C_R   0.729982 0.345429 0.582508 -0.181159
C63   C     C_R   0.738634 0.633051 0.595323 -0.160167
C64   C     C_R   0.360621 0.256064 0.467824 -0.168803
C65   C     C_R   0.803949 0.206815 0.423207 -0.169216
C66   C     C_R   0.229983 0.845430 0.582508 -0.181158
C67   C     C_R   0.238634 0.133051 0.595323 -0.160168
C68   C     C_R   0.821469 0.817220 0.527193 -0.153694
C69   C     C_R   0.860621 0.756064 0.467823 -0.168805
C70   C     C_R   0.352520 0.688420 0.497380 0.150348
C71   C     C_R   0.692082 0.379861 0.511198 0.148428
C72   C     C_R   0.698404 0.606728 0.515915 0.157328
C73   C     C_R   0.352881 0.311275 0.494074 0.150906
C74   C     C_R   0.852520 0.188419 0.497382 0.150348
C75   C     C_R   0.192082 0.879861 0.511197 0.148428
C76   C     C_R   0.198404 0.106728 0.515915 0.157328
C77   C     C_R   0.852881 0.811275 0.494074 0.150907
C78   C     C_3   0.567799 0.547909 0.281692 -1.037105
C79   C     C_R   0.361257 0.781537 0.570074 -0.180161
C80   C     C_3   0.456174 0.327889 0.699601 -0.924095
C81   C     C_3   0.424000 0.540368 0.693240 -0.984347
C82   C     C_3   0.570084 0.342516 0.311912 -0.947762
C83   C     C_3   0.067799 0.047908 0.281692 -1.037104
C84   C     C_3   0.956175 0.827888 0.699600 -0.924090
C85   C     C_3   0.924001 0.040364 0.693238 -0.984329
C86   C     C_3   0.070084 0.842516 0.311912 -0.947762
C87   C     C_R   0.744479 0.377554 0.448868 -0.197048
C88   C     C_R   0.747823 0.626539 0.451052 -0.166428
C89   C     C_R   0.453472 0.420349 0.255446 -0.137149
C90   C     C_R   0.299158 0.267631 0.537326 -0.183917
C91   C     C_R   0.861257 0.281535 0.570077 -0.180162
C92   C     C_R   0.244479 0.877555 0.448865 -0.197048
C93   C     C_R   0.247823 0.126539 0.451052 -0.166428
C94   C     C_R   0.799158 0.767631 0.537327 -0.183917
C95   C     C_R   0.310310 0.797049 0.499855 0.120733
C96   C     C_R   0.779253 0.337977 0.515229 0.114396
C97   C     C_R   0.782827 0.660927 0.525169 0.120388
C98   C     C_R   0.308506 0.211516 0.515182 0.118066
C99   C     C_R   0.810311 0.297049 0.499857 0.120734
C100  C     C_R   0.463882 0.603445 0.283972 -0.150433
C101  C     C_R   0.279253 0.837977 0.515227 0.114395
C102  C     C_R   0.282827 0.160927 0.525169 0.120389
C103  C     C_R   0.808506 0.711516 0.515182 0.118066
C104  C     C_R   0.400845 0.689554 0.202066 0.132744
C105  C     C_R   0.632441 0.391383 0.890342 0.131815
C106  C     C_R   0.594810 0.696585 0.783053 0.134741
C107  C     C_R   0.369060 0.387114 0.111576 0.130349
C108  C     C_R   0.900846 0.189554 0.202066 0.132744
C109  C     C_R   0.132441 0.891383 0.890342 0.131815
C110  C     C_R   0.094808 0.196586 0.783049 0.134740
C111  C     C_R   0.547422 0.423548 0.746295 -0.135273
C112  C     C_R   0.869060 0.887114 0.111576 0.130349
C113  C     C_R   0.412358 0.765075 0.119764 -0.211595
C114  C     C_R   0.639239 0.357037 0.022836 -0.212997
C115  C     C_R   0.581614 0.775735 0.859504 -0.211223
C116  C     C_R   0.363801 0.350342 0.981212 -0.212308
C117  C     C_R   0.912358 0.265075 0.119765 -0.211595
C118  C     C_R   0.139240 0.857037 0.022837 -0.212997
C119  C     C_R   0.081613 0.275736 0.859500 -0.211223
C120  C     C_R   0.863800 0.850343 0.981212 -0.212308
C121  C     C_R   0.427899 0.711915 0.165971 -0.173844
C122  C     C_R   0.035533 0.105261 0.713403 -0.153133
C123  C     C_R   0.608899 0.378980 0.936639 -0.171130
C124  C     C_R   0.565245 0.722699 0.812456 -0.175642
C125  C     C_R   0.393515 0.372433 0.067324 -0.173013
C126  C     C_R   0.927899 0.211915 0.165972 -0.173843
C127  C     C_R   0.108900 0.878980 0.936640 -0.171130
C128  C     C_R   0.065244 0.222701 0.812451 -0.175640
C129  C     C_R   0.893515 0.872434 0.067323 -0.173013
C130  C     C_R   0.359492 0.722584 0.194438 -0.250838
C131  C     C_R   0.687212 0.385184 0.933997 -0.258241
C132  C     C_R   0.638758 0.726732 0.796136 -0.254472
C133  C     C_R   0.953472 0.920349 0.255446 -0.137149
C134  C     C_R   0.314012 0.382511 0.066059 -0.258119
C135  C     C_R   0.859492 0.222584 0.194439 -0.250838
C136  C     C_R   0.187212 0.885184 0.933998 -0.258240
C137  C     C_R   0.138757 0.226734 0.796133 -0.254472
C138  C     C_R   0.814012 0.882511 0.066059 -0.258119
C139  C     C_R   0.342351 0.775692 0.146329 0.078670
C140  C     C_R   0.718279 0.361951 0.019887 0.080503
C141  C     C_R   0.656264 0.779880 0.844155 0.079334
C142  C     C_R   0.283437 0.359434 0.979838 0.080650
C143  C     C_R   0.842351 0.275693 0.146330 0.078670
C144  C     C_R   0.963882 0.103445 0.283972 -0.150433
C145  C     C_R   0.218279 0.861951 0.019887 0.080503
C146  C     C_R   0.156263 0.279881 0.844153 0.079333
C147  C     C_R   0.783437 0.859434 0.979838 0.080650
C148  C     C_R   0.368734 0.795986 0.106973 0.190187
C149  C     C_R   0.693215 0.345631 0.063018 0.189900
C150  C     C_R   0.628145 0.803052 0.878967 0.189483
C151  C     C_R   0.309415 0.341169 0.938789 0.190513
C152  C     C_R   0.868734 0.295986 0.106973 0.190188
C153  C     C_R   0.193215 0.845631 0.063018 0.189900
C154  C     C_R   0.128144 0.303053 0.878964 0.189484
C155  C     C_R   0.047422 0.923548 0.746295 -0.135271
C156  C     C_R   0.809415 0.841170 0.938789 0.190513
C157  C     C_R   0.296281 0.805596 0.128317 0.072115
C158  C     C_R   0.772092 0.347252 0.058467 0.073146
C159  C     C_R   0.704355 0.806656 0.866931 0.073177
C160  C     C_R   0.228853 0.347397 0.938158 0.071836
C161  C     C_R   0.796281 0.305596 0.128317 0.072115
C162  C     C_R   0.272092 0.847252 0.058467 0.073146
C163  C     C_R   0.204355 0.306656 0.866930 0.073177
C164  C     C_R   0.728853 0.847397 0.938158 0.071836
C165  C     C_R   0.645710 0.577221 0.576515 -0.178835
C166  C     C_R   0.382469 0.727505 0.568554 -0.183147
C167  C     C_R   0.371536 0.393610 0.424015 -0.189622
C168  C     C_R   0.365915 0.600939 0.425655 -0.149581
C169  C     C_R   0.643200 0.414479 0.576682 -0.181523
C170  C     C_R   0.145710 0.077221 0.576515 -0.178836
C171  C     C_R   0.871536 0.893610 0.424015 -0.189622
C172  C     C_R   0.865915 0.100939 0.425655 -0.149580
C173  C     C_R   0.143200 0.914479 0.576682 -0.181522
C174  C     C_R   0.801430 0.369976 0.026217 -0.215085
C175  C     C_R   0.271926 0.793248 0.173848 -0.211798
C176  C     C_R   0.198651 0.372314 0.967702 -0.213037
H1    H     H_    0.508010 0.615543 0.730402 0.135030
H2    H     H_    0.339274 0.704864 0.222647 0.115691
H3    H     H_    0.601370 0.516806 0.305648 0.253535
H4    H     H_    0.442363 0.419673 0.697768 0.159273
H5    H     H_    0.466950 0.328014 0.768839 0.240395
H6    H     H_    0.492519 0.321233 0.700253 0.258448
H7    H     H_    0.429099 0.290232 0.664635 0.267327
H8    H     H_    0.389762 0.623845 0.656418 0.171268
H9    H     H_    0.426806 0.544787 0.756558 0.253782
H10   H     H_    0.461169 0.519927 0.707927 0.253007
H11   H     H_    0.389779 0.511640 0.647685 0.255885
H12   H     H_    0.556187 0.433278 0.298138 0.163954
H13   H     H_    0.295664 0.392359 0.100808 0.114964
H14   H     H_    0.562139 0.340108 0.244523 0.246995
H15   H     H_    0.534728 0.326440 0.309072 0.258600
H16   H     H_    0.604371 0.313457 0.356270 0.264654
H17   H     H_    0.104308 0.128485 0.339472 0.168925
H18   H     H_    0.056913 0.066049 0.216927 0.262502
H19   H     H_    0.032627 0.025068 0.271142 0.259409
H20   H     H_    0.101370 0.016806 0.305648 0.253534
H21   H     H_    0.942364 0.919672 0.697769 0.159275
H22   H     H_    0.966952 0.828013 0.768838 0.240395
H23   H     H_    0.992520 0.821233 0.700252 0.258448
H24   H     H_    0.661385 0.706389 0.774028 0.114473
H25   H     H_    0.929100 0.790231 0.664634 0.267326
H26   H     H_    0.889755 0.123837 0.656412 0.171269
H27   H     H_    0.926797 0.044780 0.756549 0.253779
H28   H     H_    0.961175 0.019931 0.707938 0.253007
H29   H     H_    0.889785 0.011631 0.647676 0.255879
H30   H     H_    0.056186 0.933278 0.298138 0.163954
H31   H     H_    0.062139 0.840107 0.244523 0.246995
H32   H     H_    0.034728 0.826440 0.309072 0.258601
H33   H     H_    0.104371 0.813457 0.356270 0.264654
H34   H     H_    0.204785 0.893456 0.897707 0.114788
H35   H     H_    0.839273 0.204864 0.222647 0.115691
H36   H     H_    0.795664 0.892359 0.100809 0.114964
H37   H     H_    0.161384 0.206390 0.774026 0.114473
H38   H     H_    0.566763 0.383586 0.905446 0.118048
H39   H     H_    0.460371 0.688020 0.171374 0.118144
H40   H     H_    0.435852 0.375499 0.099941 0.119616
H41   H     H_    0.475454 0.427393 0.226522 0.095834
H42   H     H_    0.530293 0.701739 0.801711 0.113127
H43   H     H_    0.066763 0.883587 0.905446 0.118048
H44   H     H_    0.960372 0.188021 0.171374 0.118144
H45   H     H_    0.935852 0.875500 0.099941 0.119616
H46   H     H_    0.030291 0.201741 0.801706 0.113127
H47   H     H_    0.433028 0.780665 0.090626 0.122990
H48   H     H_    0.619835 0.345493 0.055860 0.123405
H49   H     H_    0.559259 0.793857 0.884358 0.122098
H50   H     H_    0.383875 0.337226 0.949775 0.123733
H51   H     H_    0.933028 0.280665 0.090627 0.122990
H52   H     H_    0.492838 0.615484 0.271395 0.146158
H53   H     H_    0.119836 0.845493 0.055860 0.123405
H54   H     H_    0.059258 0.293859 0.884354 0.122098
H55   H     H_    0.883874 0.837227 0.949774 0.123733
H56   H     H_    0.787558 0.406839 0.980888 0.131014
H57   H     H_    0.291142 0.767184 0.233660 0.136988
H58   H     H_    0.213202 0.408367 0.014653 0.131329
H59   H     H_    0.710758 0.766816 0.763447 0.131476
H60   H     H_    0.287558 0.906839 0.980887 0.131014
H61   H     H_    0.791142 0.267184 0.233660 0.136988
H62   H     H_    0.713202 0.908367 0.014653 0.131329
H63   H     H_    0.525357 0.432863 0.774921 0.099713
H64   H     H_    0.210758 0.266817 0.763446 0.131476
H65   H     H_    0.678574 0.570858 0.644274 0.107050
H66   H     H_    0.342263 0.383514 0.355443 0.120801
H67   H     H_    0.334910 0.609472 0.357919 0.098777
H68   H     H_    0.676837 0.417775 0.644480 0.109530
H69   H     H_    0.178574 0.070858 0.644274 0.107050
H70   H     H_    0.842263 0.883514 0.355443 0.120801
H71   H     H_    0.834910 0.109472 0.357919 0.098777
H72   H     H_    0.176837 0.917775 0.644480 0.109529
H73   H     H_    0.348617 0.608850 0.256922 0.083505
H74   H     H_    0.008008 0.115546 0.730396 0.135025
H75   H     H_    0.659229 0.419712 0.761516 0.083494
H76   H     H_    0.644824 0.618132 0.718763 0.089558
H77   H     H_    0.340711 0.420984 0.236422 0.084297
H78   H     H_    0.848617 0.108850 0.256923 0.083505
H79   H     H_    0.159229 0.919712 0.761516 0.083494
H80   H     H_    0.144824 0.118132 0.718762 0.089558
H81   H     H_    0.840711 0.920985 0.236422 0.084297
H82   H     H_    0.243325 0.772244 0.369747 0.117727
H83   H     H_    0.799845 0.293814 0.636219 0.119351
H84   H     H_    0.809462 0.683488 0.659542 0.117617
H85   H     H_    0.975453 0.927394 0.226522 0.095834
H86   H     H_    0.344748 0.162943 0.459305 0.121468
H87   H     H_    0.743328 0.272246 0.369747 0.117726
H88   H     H_    0.299846 0.793816 0.636218 0.119351
H89   H     H_    0.309462 0.183489 0.659542 0.117618
H90   H     H_    0.844747 0.662943 0.459303 0.121468
H91   H     H_    0.280766 0.678094 0.366550 0.108420
H92   H     H_    0.724209 0.331369 0.633458 0.119121
H93   H     H_    0.735199 0.638702 0.651033 0.107713
H94   H     H_    0.385312 0.251762 0.442427 0.126765
H95   H     H_    0.780767 0.178096 0.366548 0.108419
H96   H     H_    0.992838 0.115484 0.271396 0.146158
H97   H     H_    0.224210 0.831370 0.633459 0.119120
H98   H     H_    0.235199 0.138702 0.651033 0.107713
H99   H     H_    0.885312 0.751762 0.442425 0.126766
H100  H     H_    0.421487 0.715545 0.624344 0.115270
H101  H     H_    0.674426 0.429132 0.395175 0.125818
H102  H     H_    0.678633 0.573256 0.388757 0.133955
H103  H     H_    0.315323 0.360051 0.547047 0.123254
H104  H     H_    0.921486 0.215542 0.624349 0.115270
H105  H     H_    0.174425 0.929132 0.395173 0.125818
H106  H     H_    0.178633 0.073255 0.388758 0.133955
H107  H     H_    0.025358 0.932864 0.774922 0.099711
H108  H     H_    0.815324 0.860050 0.547049 0.123254
H109  H     H_    0.882640 0.309005 0.628759 0.118220
H110  H     H_    0.248641 0.888087 0.394948 0.122458
H111  H     H_    0.249332 0.126631 0.392925 0.118416
H112  H     H_    0.774437 0.773159 0.562497 0.123957
H113  H     H_    0.382641 0.809007 0.628754 0.118221
H114  H     H_    0.748642 0.388087 0.394951 0.122457
H115  H     H_    0.749332 0.626631 0.392925 0.118417
H116  H     H_    0.274437 0.273160 0.562495 0.123957
H117  H     H_    0.870580 0.362580 0.023863 0.130572
H118  H     H_    0.704784 0.393456 0.897707 0.114788
H119  H     H_    0.203436 0.803333 0.178007 0.128913
H120  H     H_    0.126487 0.370641 0.961602 0.131051
H121  H     H_    0.800352 0.797977 0.824967 0.129958
H122  H     H_    0.370580 0.862580 0.023862 0.130571
H123  H     H_    0.703436 0.303333 0.178007 0.128913
H124  H     H_    0.626488 0.870640 0.961605 0.131050
H125  H     H_    0.300353 0.297977 0.824968 0.129958
H126  H     H_    0.604308 0.628485 0.339472 0.168926
H127  H     H_    0.556913 0.566049 0.216927 0.262502
H128  H     H_    0.532627 0.525068 0.271142 0.259409
N1    N     N_R   0.532910 0.558440 0.665240 -0.039891
N2    N     N_R   0.402970 0.441090 0.454460 -0.049022
N3    N     N_R   0.402970 0.558910 0.454460 -0.047593
N4    N     N_R   0.597030 0.441090 0.545540 -0.047849
N5    N     N_R   0.097030 0.058910 0.545540 -0.048501
N6    N     N_R   0.902970 0.941090 0.454460 -0.049022
N7    N     N_R   0.902970 0.058910 0.454460 -0.047593
N8    N     N_R   0.097030 0.941090 0.545540 -0.047849
N9    N     N_R   0.566200 0.559270 0.454460 -0.057585
N10   N     N_R   0.433800 0.440730 0.545540 -0.074509
N11   N     N_R   0.433800 0.559270 0.545540 -0.049718
N12   N     N_R   0.467090 0.441560 0.334760 -0.041728
N13   N     N_R   0.566200 0.440730 0.454460 -0.070588
N14   N     N_R   0.066200 0.059270 0.454460 -0.057585
N15   N     N_R   0.933800 0.940730 0.545540 -0.074508
N16   N     N_R   0.933800 0.059270 0.545540 -0.049716
N17   N     N_R   0.066200 0.940730 0.454460 -0.070587
N18   N     N_R   0.421050 0.559750 0.334770 -0.036564
N19   N     N_R   0.578950 0.440250 0.665230 -0.037207
N20   N     N_R   0.578950 0.559750 0.665230 -0.037561
N21   N     N_R   0.421050 0.440250 0.334770 -0.035929
N22   N     N_R   0.921050 0.059750 0.334770 -0.036564
N23   N     N_R   0.467090 0.558440 0.334760 -0.038958
N24   N     N_R   0.078950 0.940250 0.665230 -0.037207
N25   N     N_R   0.078950 0.059750 0.665230 -0.037561
N26   N     N_R   0.921050 0.940250 0.334770 -0.035929
N27   N     N_2   0.582529 0.595621 0.343870 -0.126842
N28   N     N_2   0.430817 0.383330 0.657359 -0.120101
N29   N     N_2   0.417030 0.598050 0.654316 -0.129072
N30   N     N_2   0.581481 0.402947 0.343077 -0.128093
N31   N     N_2   0.082529 0.095621 0.343870 -0.126842
N32   N     N_2   0.930818 0.883329 0.657359 -0.120102
N33   N     N_2   0.917027 0.098047 0.654315 -0.129071
N34   N     N_R   0.532910 0.441560 0.665240 -0.042768
N35   N     N_2   0.081481 0.902947 0.343076 -0.128093
N36   N     N_R   0.032910 0.058440 0.665240 -0.039891
N37   N     N_R   0.967090 0.941560 0.334760 -0.041727
N38   N     N_R   0.967090 0.058440 0.334760 -0.038958
N39   N     N_R   0.032910 0.941560 0.665240 -0.042767
N40   N     N_R   0.597030 0.558910 0.545540 -0.048501
Ni1   Ni    Ni4+2 0.483090 0.500000 0.604440 0.202779
Ni2   Ni    Ni4+2 0.516910 0.500000 0.395560 0.207434
Ni3   Ni    Ni4+2 0.983090 1.000000 0.604440 0.202778
Ni4   Ni    Ni4+2 0.016910 1.000000 0.395560 0.207434
Ni5   Ni    Ni4+2 0.586780 0.500000 0.604440 0.204202
Ni6   Ni    Ni4+2 0.413220 0.500000 0.395560 0.208769
Ni7   Ni    Ni4+2 0.086780 1.000000 0.604440 0.204203
Ni8   Ni    Ni4+2 0.913220 1.000000 0.395560 0.208769

loop_
_geom_bond_atom_site_label_1
_geom_bond_atom_site_label_2
_ccdc_geom_bond_type
C36   C89   A    
C84   H25   S    
N17   Ni4   S    
C31   C42   A    
C54   H84   S    
C10   C154  A    
C2    H101  S    
C105  C131  A    
C78   H128  S    
C6    H62   S    
C172  N7    A    
C57   C76   A    
C42   C109  S    
C147  C164  A    
C8    H117  S    
N8    N17   A    
C55   H86   S    
C96   C99   S    
C167  N2    A    
C105  C123  A    
C118  C153  A    
C80   H7    S    
C27   H75   S    
C61   H91   S    
C18   N28   S    
C131  C140  A    
C3    H59   S    
N24   Ni7   S    
C158  C174  A    
N14   Ni4   S    
C13   H102  S    
C29   H77   S    
C112  C129  A    
C4    C12   A    
C60   C103  A    
C117  C126  A    
N25   N36   A    
N6    Ni8   S    
C88   C97   A    
N18   Ni6   S    
C21   C48   A    
C119  C128  A    
C170  N5    A    
H12   N30   S    
C126  H44   S    
C78   H3    S    
N2    N10   A    
C160  C163  A    
C112  C138  A    
C137  C146  A    
N21   Ni6   S    
C35   H104  S    
C83   H19   S    
C98   C102  S    
C7    C163  A    
C17   N9    A    
C5    C161  A    
C142  C151  A    
C106  C132  A    
C17   C43   A    
C26   H73   S    
C18   C44   A    
C146  C154  A    
C167  H66   S    
C133  N37   A    
N7    N16   A    
C58   C101  A    
C166  H100  S    
C97   C103  S    
C64   H94   S    
C22   C49   A    
C136  H34   S    
C91   H109  S    
C165  H65   S    
C169  H68   S    
C2    C71   A    
C17   N27   S    
C68   C77   A    
C19   N29   S    
N40   Ni5   S    
C59   C102  A    
N1    Ni1   S    
C24   C90   A    
C86   H31   S    
C37   C104  S    
C13   C72   A    
C171  N6    A    
N9    N40   A    
C52   C61   A    
C155  N39   A    
C14   C149  A    
C138  H36   S    
C30   N22   A    
C16   C151  A    
C155  H107  S    
C20   C47   A    
C3    C11   A    
H26   N33   S    
C25   N17   A    
C139  C157  A    
C54   C63   A    
C123  H38   S    
C33   H81   S    
C66   H97   S    
C27   C38   A    
C108  C126  A    
C174  H56   S    
C157  C162  A    
C143  C161  A    
C110  C128  A    
H4    N28   S    
N39   Ni3   S    
C82   H15   S    
C48   C76   S    
C69   C77   A    
C86   H33   S    
C85   H29   S    
C40   C112  S    
C133  H85   S    
C39   C122  A    
C121  H39   S    
C113  C148  A    
C144  H96   S    
C115  H49   S    
C107  C134  A    
C50   C74   S    
C8    C174  A    
N6    N15   A    
C132  H24   S    
C87   H114  S    
C86   N35   S    
C55   C98   A    
C113  H47   S    
C23   N33   S    
C85   H28   S    
C59   C67   A    
C141  C159  A    
C175  H57   S    
C64   C73   A    
C30   C41   A    
H17   N31   S    
C80   H6    S    
C165  N40   A    
C135  C143  A    
C9    C153  A    
C87   C96   A    
C3    C159  A    
C4    H60   S    
C46   C75   A    
C47   C169  A    
C109  C127  A    
C141  C150  A    
C11   H121  S    
C84   H23   S    
C69   H99   S    
C139  C148  A    
C33   C40   A    
N9    Ni2   S    
C59   H89   S    
C120  C129  A    
C56   H87   S    
C107  C125  A    
C108  C135  A    
C172  H71   S    
C1    N1    A    
H30   N35   S    
C68   C94   A    
C65   C74   A    
C85   N33   S    
C122  H74   S    
N5    N14   A    
C2    C87   A    
C114  C123  A    
C173  H72   S    
C157  C175  A    
C116  C125  A    
N3    N11   A    
C118  C127  A    
N25   Ni7   S    
C1    C34   A    
C106  C124  A    
N22   N38   A    
C81   H10   S    
C9    H119  S    
C10   H120  S    
C132  C141  A    
C58   H88   S    
C18   N10   A    
C60   H90   S    
C8    C152  A    
C19   C45   A    
N20   Ni5   S    
C31   H79   S    
C67   H98   S    
C63   H93   S    
N38   Ni4   S    
C60   C69   A    
C49   C77   S    
C62   C71   A    
C9    C175  A    
C45   C168  A    
N3    Ni6   S    
C28   C34   A    
C113  C121  A    
C7    H64   S    
N19   N34   A    
N15   Ni3   S    
C32   N25   A    
C159  C164  A    
C50   C172  A    
N16   Ni3   S    
C91   C99   A    
C140  C149  A    
C116  C151  A    
C95   C101  S    
C68   H108  S    
C61   C70   A    
N8    Ni7   S    
C135  H35   S    
C35   C74   A    
N5    Ni7   S    
C168  N3    A    
C127  H43   S    
C80   N28   S    
N34   Ni1   S    
C5    H61   S    
C134  H13   S    
C31   N24   A    
N1    N20   A    
N4    N13   A    
C24   C73   A    
C46   C92   A    
C118  H53   S    
C100  N23   A    
C120  C156  A    
C78   N27   S    
C52   C95   A    
C32   C39   A    
C100  H52   S    
C130  H2    S    
C158  C161  A    
C117  H51   S    
C90   H116  S    
C16   H125  S    
C30   H78   S    
C54   C97   A    
N36   Ni3   S    
C20   N30   S    
C22   N32   S    
C104  C130  A    
C53   C96   A    
C130  C139  A    
H126  N27   S    
C43   C165  A    
C78   H127  S    
N26   Ni8   S    
C41   C144  A    
C92   H110  S    
C86   H32   S    
C25   N35   S    
C23   C50   A    
C94   H112  S    
C84   H22   S    
C131  H118  S    
C44   C167  A    
C34   C106  S    
C28   H76   S    
C79   C95   A    
C134  C142  A    
C57   H106  S    
C33   N26   A    
C32   H80   S    
C111  N34   A    
C144  N38   A    
C147  C156  A    
C5    C14   A    
C92   C101  A    
C48   C170  A    
C7    C16   A    
C28   N20   A    
C6    C164  A    
C15   H124  S    
C119  C154  A    
C4    C162  A    
N24   N39   A    
C93   H111  S    
C146  C163  A    
C12   H122  S    
C115  C124  A    
C82   H16   S    
C45   C70   S    
C110  C137  A    
N7    Ni8   S    
C93   C102  A    
C26   C37   A    
C24   H103  S    
N12   Ni2   S    
C42   C155  A    
N23   Ni2   S    
C38   C105  S    
C66   C75   A    
C29   N21   A    
N26   N37   A    
C44   C73   S    
N10   Ni1   S    
C85   H27   S    
C26   N18   A    
C63   C72   A    
C81   N29   S    
C83   N31   S    
C114  C149  A    
C19   N11   A    
C15   C150  A    
C43   C72   S    
C53   H83   S    
C41   C108  S    
C88   H115  S    
C21   N31   S    
C29   C36   A    
C21   N14   A    
C23   N16   A    
C51   C75   S    
C70   C166  A    
C125  H40   S    
C168  H67   S    
C145  C162  A    
C56   C65   A    
C13   C88   A    
N11   Ni1   S    
C83   H20   S    
C51   C173  A    
H21   N32   S    
C119  H54   S    
C6    C15   A    
C1    H1    S    
C58   C66   A    
C39   C110  S    
C176  H58   S    
C170  H69   S    
C136  C145  A    
C62   H92   S    
C52   H82   S    
C57   C93   A    
C82   H14   S    
C36   C107  S    
C160  C176  A    
C120  H55   S    
C81   H9    S    
N37   Ni4   S    
C10   C176  A    
C124  H42   S    
C27   N19   A    
C171  H70   S    
C82   N30   S    
C140  C158  A    
C129  H45   S    
C128  H46   S    
C49   C171  A    
N2    Ni6   S    
C104  C121  A    
C111  H63   S    
C173  N8    A    
C116  H50   S    
C14   H123  S    
N22   Ni8   S    
C25   C51   A    
C53   C62   A    
C169  N4    A    
N18   N23   A    
C138  C147  A    
C47   C71   S    
C55   C64   A    
N4    Ni5   S    
C80   H5    S    
C11   C156  A    
C79   H113  S    
N13   Ni2   S    
C20   N13   A    
C143  C152  A    
C137  H37   S    
C22   N15   A    
H8    N29   S    
C142  C160  A    
C94   C103  A    
C40   C133  A    
C84   N32   S    
C56   C99   A    
C114  H48   S    
C12   C148  A    
C83   H18   S    
C145  C153  A    
N12   N21   A    
C115  C150  A    
C81   H11   S    
C117  C152  A    
C37   C100  A    
C79   C166  A    
C65   H95   S    
C89   N12   A    
C122  N36   A    
C89   H41   S    
N19   Ni5   S    
C46   H105  S    
C67   C76   A    
C38   C111  A    
C90   C98   A    
C109  C136  A    
C35   C91   A    
