data_mof_unit_34163.cif
_audit_creation_date              2012-12-11T15:39:26-0500
_audit_creation_method            fapswitch 2.2
_symmetry_space_group_name_H-M    P1
_symmetry_Int_Tables_number       1
_space_group_crystal_system       triclinic
_cell_length_a                    14.340036
_cell_length_b                    14.79619
_cell_length_c                    33.248353
_cell_angle_alpha                 97.716731
_cell_angle_beta                  90.109105
_cell_angle_gamma                 118.953896
_cell_volume                      6098.67328341

loop_
_atom_site_label
_atom_site_type_symbol
_atom_type_description
_atom_site_fract_x
_atom_site_fract_y
_atom_site_fract_z
_atom_type_partial_charge
C1    C     C_R   0.617047 0.910359 0.437020 0.547171
C2    C     C_R   0.712040 0.436545 0.949501 0.533696
C3    C     C_R   0.731652 0.822357 0.768026 -0.097287
C4    C     C_R   0.723715 0.843124 0.729056 -0.064556
C5    C     C_R   0.670508 0.760960 0.696880 0.061816
C6    C     C_R   0.627087 0.657160 0.703926 -0.039637
C7    C     C_R   0.634499 0.635629 0.743247 0.005126
C8    C     C_R   0.686704 0.718956 0.775700 0.009576
C9    C     C_R   0.553477 0.752713 0.639005 0.228659
C10   C     C_R   0.542469 0.789350 0.603852 -0.126742
C11   C     C_R   0.735420 0.890580 0.602896 0.223980
C12   C     C_1   0.504200 0.686926 0.177299 0.227078
C13   C     C_R   0.742940 0.716810 0.945848 0.562194
C14   C     C_1   0.807757 0.292307 0.613658 0.269922
C15   C     C_1   0.491175 0.292065 0.910771 0.289408
C16   C     C_1   0.444367 0.213262 0.703400 0.241538
C17   C     C_1   0.590015 0.528381 0.749563 0.201647
C18   C     C_R   0.829582 0.440675 0.165099 -0.106310
C19   C     C_R   0.827377 0.453431 0.124358 -0.119165
C20   C     C_R   0.780991 0.356548 0.246246 -0.089531
C21   C     C_R   0.773709 0.343259 0.287037 -0.091985
C22   C     C_R   0.733276 0.395317 0.313908 0.033696
C23   C     C_R   0.706086 0.465425 0.299830 -0.105658
C24   C     C_R   0.712843 0.478241 0.259019 -0.102982
C25   C     C_R   0.747313 0.421506 0.231736 0.035201
C26   C     C_R   0.742648 0.426292 0.187935 0.025355
C27   C     C_R   0.607451 0.346017 0.368688 -0.114856
C28   C     C_R   0.594166 0.205519 0.456596 0.544307
C29   C     C_R   0.573107 0.299387 0.403414 -0.118965
C30   C     C_R   0.740541 0.298714 0.412423 -0.119354
C31   C     C_R   0.774978 0.345633 0.377739 -0.114091
C32   C     C_R   0.707120 0.366117 0.354756 0.030953
C33   C     C_R   0.637705 0.271678 0.424674 0.023274
C34   C     C_R   0.245444 0.878066 0.393366 -0.019702
C35   C     C_R   0.236205 0.960232 0.380308 -0.136416
C36   C     C_R   0.211996 0.956829 0.339246 -0.165144
C37   C     C_R   0.746308 0.853086 0.638033 -0.106370
C38   C     C_R   0.196030 0.871193 0.310679 0.045437
C39   C     C_R   0.198175 0.785610 0.323724 0.256366
C40   C     C_R   0.295896 0.892871 0.434363 0.548397
C41   C     C_R   0.222604 0.789277 0.364884 -0.096862
C42   C     C_R   0.198345 0.808707 0.162437 0.256944
C43   C     C_R   0.169999 0.788396 0.120649 -0.092557
C44   C     C_R   0.086046 0.897034 0.130282 -0.138498
C45   C     C_R   0.113614 0.916905 0.172130 -0.163720
C46   C     C_R   0.166234 0.869823 0.188502 0.043363
C47   C     C_1   0.177162 0.875354 0.231936 0.058047
C48   C     C_R   0.656139 0.785641 0.656670 -0.015358
C49   C     C_1   0.184882 0.874837 0.267978 0.059444
C50   C     C_R   0.109646 0.828591 0.104436 -0.020094
C51   C     C_R   0.637908 0.878857 0.395536 0.018926
C52   C     C_R   0.613733 0.904731 0.551509 0.572772
C53   C     C_R   0.553226 0.800302 0.368550 -0.125331
C54   C     C_R   0.565759 0.788149 0.326908 -0.101051
C55   C     C_R   0.663049 0.853656 0.311982 0.033352
C56   C     C_R   0.749964 0.926733 0.338847 -0.115706
C57   C     C_R   0.737646 0.939205 0.380472 -0.118777
C58   C     C_R   0.776836 0.918741 0.174644 -0.127897
C59   C     C_R   0.632416 0.860387 0.585922 -0.016841
C60   C     C_R   0.792326 0.906361 0.133286 -0.129986
C61   C     C_R   0.617697 0.751237 0.121398 -0.123249
C62   C     C_R   0.601868 0.763291 0.162785 0.003215
C63   C     C_R   0.683647 0.845414 0.189715 0.027135
C64   C     C_R   0.588537 0.197896 0.571233 0.540973
C65   C     C_1   0.677081 0.850020 0.232950 -0.008852
C66   C     C_1   0.671216 0.851404 0.269022 -0.011092
C67   C     C_R   0.714841 0.819825 0.106647 0.008167
C68   C     C_R   0.613639 0.238179 0.615445 -0.006197
C69   C     C_R   0.527452 0.224842 0.638950 -0.140820
C70   C     C_R   0.051909 0.781255 0.063809 0.548359
C71   C     C_R   0.537983 0.236371 0.681231 -0.005926
C72   C     C_R   0.637126 0.265343 0.701026 0.010831
C73   C     C_R   0.725577 0.285964 0.678331 -0.116819
C74   C     C_R   0.714658 0.272176 0.635674 -0.022079
C75   C     C_R   0.763680 0.347363 0.845208 -0.163712
C76   C     C_R   0.289537 0.887057 0.548713 0.547541
C77   C     C_R   0.776789 0.382539 0.886780 -0.150102
C78   C     C_R   0.584825 0.313606 0.888758 -0.010532
C79   C     C_R   0.572032 0.277895 0.846523 0.242192
C80   C     C_R   0.662578 0.299123 0.824738 0.041433
C81   C     C_R   0.743954 0.487133 0.066291 0.546000
C82   C     C_1   0.654969 0.282841 0.781054 0.061538
C83   C     C_1   0.648489 0.274033 0.744548 0.029178
C84   C     C_R   0.688982 0.371650 0.908773 -0.035664
C85   C     C_R   0.074496 0.758041 0.909724 0.018650
C86   C     C_R   0.106213 0.856219 0.898313 -0.134263
C87   C     C_R   0.131653 0.872515 0.858646 -0.110725
C88   C     C_R   0.737927 0.451485 0.105930 0.017529
C89   C     C_R   0.126724 0.791189 0.830116 0.030268
C90   C     C_R   0.104537 0.696238 0.842472 -0.111056
C91   C     C_R   0.078614 0.679722 0.882121 -0.119689
C92   C     C_R   0.742767 0.789162 0.066410 0.554790
C93   C     C_R   0.194961 0.768303 0.762987 -0.106348
C94   C     C_R   0.196883 0.773710 0.721578 -0.095363
C95   C     C_R   0.135776 0.810134 0.703297 0.065146
C96   C     C_R   0.073188 0.842471 0.727068 0.261929
C97   C     C_R   0.072935 0.838449 0.768668 -0.062501
C98   C     C_R   0.133448 0.801207 0.786803 -0.008308
C99   C     C_R   0.196330 0.925799 0.651159 -0.102396
C100  C     C_R   0.648454 0.430387 0.128249 -0.118900
C101  C     C_R   0.233918 0.945307 0.613072 -0.127902
C102  C     C_R   0.169589 0.760089 0.592085 -0.075549
C103  C     C_R   0.022588 0.732711 0.947654 0.532679
C104  C     C_R   0.130195 0.739931 0.630054 0.252498
C105  C     C_R   0.148463 0.823936 0.660453 0.067674
C106  C     C_R   0.225999 0.863272 0.584108 -0.020524
C107  C     C_R   0.724082 0.703652 0.901523 0.014903
C108  C     C_R   0.622164 0.643905 0.880853 -0.113545
C109  C     C_R   0.609352 0.644289 0.839070 -0.092284
C110  C     C_R   0.698607 0.702519 0.817790 0.026605
C111  C     C_R   0.800494 0.755974 0.838190 -0.113434
C112  C     C_R   0.651003 0.418263 0.168926 -0.118126
C113  C     C_R   0.812935 0.756948 0.879571 -0.124903
Cl1   Cl    Cl    0.266857 0.749809 0.181528 -0.533867
Cl2   Cl    Cl    0.176700 0.675270 0.288935 -0.550242
Cl3   Cl    Cl    0.443281 0.211227 0.820523 -0.557805
Cl4   Cl    Cl    0.063387 0.609517 0.639255 -0.554142
Cl5   Cl    Cl    0.992614 0.886087 0.705711 -0.627192
Cl6   Cl    Cl    0.436406 0.674046 0.661992 -0.591152
Cl7   Cl    Cl    0.852892 0.974316 0.581438 -0.524081
Cr1   Cr    Cr6+3 0.424820 0.846020 0.489780 1.034945
Cr2   Cr    Cr6+3 0.657880 0.078580 0.505700 1.085781
Cr3   Cr    Cr6+3 0.417280 0.075360 0.504550 1.039034
Cr4   Cr    Cr6+3 0.903360 0.812540 0.006510 1.019922
Cr5   Cr    Cr6+3 0.914630 0.587050 0.006280 1.021195
Cr6   Cr    Cr6+3 0.673560 0.582680 0.008540 1.040182
H1    H     H_    0.578240 0.428102 0.114907 0.140441
H2    H     H_    0.897674 0.469896 0.107956 0.143051
H3    H     H_    0.210077 0.023013 0.329556 0.115442
H4    H     H_    0.868042 0.960121 0.122804 0.129690
H5    H     H_    0.840035 0.982458 0.195197 0.113809
H6    H     H_    0.825722 0.977340 0.327460 0.111963
H7    H     H_    0.804352 0.000183 0.400497 0.139414
H8    H     H_    0.475328 0.752959 0.379158 0.140502
H9    H     H_    0.556772 0.684467 0.101145 0.132947
H10   H     H_    0.498188 0.731111 0.306207 0.155029
H11   H     H_    0.857554 0.425475 0.900988 0.149078
H12   H     H_    0.493600 0.279750 0.412201 0.133696
H13   H     H_    0.852855 0.361968 0.367934 0.119720
H14   H     H_    0.833641 0.363287 0.828596 0.125346
H15   H     H_    0.802543 0.310398 0.693871 0.139067
H16   H     H_    0.449093 0.198740 0.624342 0.139631
H17   H     H_    0.104990 0.918247 0.919306 0.134674
H18   H     H_    0.054518 0.603333 0.890216 0.128661
H19   H     H_    0.793820 0.287596 0.296950 0.109562
H20   H     H_    0.247572 0.751054 0.703800 0.185810
H21   H     H_    0.242483 0.739799 0.776538 0.139109
H22   H     H_    0.150512 0.946952 0.849730 0.147407
H23   H     H_    0.900880 0.446673 0.179236 0.143252
H24   H     H_    0.024093 0.862879 0.786710 0.127772
H25   H     H_    0.211527 0.991228 0.674340 0.178437
H26   H     H_    0.276680 0.025519 0.607562 0.144059
H27   H     H_    0.100118 0.632463 0.820790 0.122293
H28   H     H_    0.160835 0.695734 0.569605 0.170893
H29   H     H_    0.552526 0.601387 0.897156 0.142845
H30   H     H_    0.807618 0.311989 0.225641 0.113197
H31   H     H_    0.892179 0.802660 0.894825 0.133811
H32   H     H_    0.825593 0.878722 0.651488 0.215839
H33   H     H_    0.757081 0.923588 0.724140 0.136623
H34   H     H_    0.792636 0.279416 0.428544 0.135588
H35   H     H_    0.771895 0.887496 0.792522 0.125633
H36   H     H_    0.529749 0.603279 0.823834 0.140157
H37   H     H_    0.586839 0.593440 0.678884 0.156213
H38   H     H_    0.462458 0.765788 0.591693 0.178781
H39   H     H_    0.870141 0.800843 0.822363 0.116639
H40   H     H_    0.582079 0.404733 0.185832 0.117676
H41   H     H_    0.676313 0.507652 0.320099 0.112362
H42   H     H_    0.688744 0.530622 0.248512 0.114596
H43   H     H_    0.553002 0.359992 0.351317 0.109704
H44   H     H_    0.189274 0.735735 0.101245 0.159237
H45   H     H_    0.229230 0.725005 0.374114 0.157967
H46   H     H_    0.253498 0.029862 0.401405 0.143707
H47   H     H_    0.088575 0.964255 0.191944 0.114597
H48   H     H_    0.038688 0.928305 0.118758 0.138415
N1    N     N_1   0.426069 0.625715 0.188957 -0.219816
N2    N     N_1   0.882470 0.308501 0.596052 -0.193831
N3    N     N_1   0.416143 0.274687 0.928333 -0.258576
N4    N     N_1   0.369188 0.194607 0.721015 -0.194942
N5    N     N_1   0.554289 0.442571 0.754911 -0.245662
O1    O     O_R   0.318160 0.824460 0.443680 -0.516393
O2    O     O_R   0.668160 0.499860 0.053480 -0.512402
O3    O     O_R   0.689170 0.693840 0.050110 -0.495384
O4    O     O_R   0.525040 0.857250 0.449830 -0.503163
O5    O     O_R   0.803860 0.812940 0.962540 -0.503031
O6    O     O_R   0.982950 0.787950 0.964120 -0.527331
O7    O     O_R   0.007050 0.649970 0.960540 -0.514466
O8    O     O_R   0.807910 0.482370 0.965590 -0.503527
O9    O     O_R   0.643310 0.460980 0.963840 -0.505066
O10   O     O_R   0.666140 0.657800 0.967020 -0.494397
O11   O     O_3   0.830520 0.660760 0.007110 -0.269355
O12   O     O_R   0.645130 0.163230 0.552140 -0.487271
O13   O     O_R   0.684760 0.998800 0.456360 -0.506435
O14   O     O_R   0.647540 0.166310 0.470260 -0.500906
O15   O     O_R   0.500960 0.181750 0.467450 -0.514903
O16   O     O_R   0.331100 0.981120 0.457080 -0.495923
O17   O     O_R   0.315560 0.821140 0.532010 -0.513343
O18   O     O_R   0.522630 0.854180 0.531710 -0.514810
O19   O     O_R   0.682160 0.995480 0.544690 -0.438322
O20   O     O_R   0.498360 0.178430 0.555780 -0.513819
O21   O     O_R   0.328690 0.978040 0.538950 -0.495534
O22   O     O_3   0.499990 0.999990 0.500010 -0.257790
O23   O     O_R   0.828710 0.851830 0.052170 -0.511342
O24   O     O_R   0.005980 0.823990 0.047210 -0.496740
O25   O     O_R   0.031900 0.688850 0.050170 -0.509616
O26   O     O_R   0.830940 0.518420 0.048680 -0.497409

loop_
_geom_bond_atom_site_label_1
_geom_bond_atom_site_label_2
_ccdc_geom_bond_type
C94   H20   S    
C55   C56   A    
C63   C65   S    
Cr5   O25   S    
C93   C94   A    
C26   C112  A    
C27   C29   A    
C100  H1    S    
C73   C74   A    
C54   C55   A    
C2    C84   S    
C35   C36   A    
C18   C26   A    
C81   O2    A    
C13   C107  S    
C57   H7    S    
C55   C66   S    
Cr4   O11   S    
C97   C98   A    
C85   C91   A    
Cr2   O12   S    
C47   C49   T    
C38   C49   S    
C73   H15   S    
C85   C86   A    
C56   C57   A    
C30   H34   S    
C29   H12   S    
C41   H45   S    
C22   C32   S    
C34   C40   S    
C14   C74   S    
Cr2   O22   S    
Cr3   O20   S    
C24   H42   S    
C44   H48   S    
C18   C19   A    
C45   H47   S    
C75   H14   S    
Cr4   O6    S    
C15   C78   S    
C20   C25   A    
Cr5   O8    S    
C68   C74   A    
C29   C33   A    
C19   H2    S    
C101  C106  A    
C13   O10   A    
C108  C109  A    
C69   C71   A    
C34   C35   A    
C42   C46   A    
Cr5   O26   S    
Cr6   O11   S    
C2    O8    A    
C107  C113  A    
C14   N2    T    
C95   C105  S    
C76   C106  S    
C40   O1    A    
C42   Cl1   S    
C95   C96   A    
C60   C67   A    
C68   C69   A    
C7    C17   S    
C103  O6    A    
C90   H27   S    
C28   O15   A    
C23   C24   A    
Cr3   O15   S    
C102  C106  A    
Cr5   O11   S    
C111  H39   S    
C18   H23   S    
C76   O17   A    
C9    C10   A    
C102  H28   S    
Cr1   O17   S    
C85   C103  S    
Cr1   O4    S    
C17   N5    T    
C112  H40   S    
C21   C22   A    
C35   H46   S    
Cr3   O16   S    
C61   C62   A    
C16   C71   S    
C11   C59   A    
C11   Cl7   S    
C104  C105  A    
C43   H44   S    
C16   N4    T    
C86   H17   S    
Cr1   O1    S    
C70   O25   A    
C38   C39   A    
C99   C105  A    
C5    C48   S    
C100  C112  A    
C87   H22   S    
Cr3   O22   S    
Cr4   O24   S    
C72   C83   S    
Cr3   O21   S    
C7    C8    A    
C24   C25   A    
C80   C82   S    
C3    C8    A    
C76   O21   A    
C60   H4    S    
C78   C79   A    
C72   C73   A    
C77   C84   A    
C25   C26   S    
C53   C54   A    
C99   H25   S    
C78   C84   A    
C110  C111  A    
Cr4   O23   S    
Cr5   O7    S    
C51   C53   A    
C21   H19   S    
C37   H32   S    
Cr6   O10   S    
C34   C41   A    
C62   C63   A    
C52   C59   S    
C8    C110  S    
C12   C62   S    
C61   C67   A    
C31   C32   A    
C58   H5    S    
C97   H24   S    
C13   O5    A    
C54   H10   S    
C96   C97   A    
C20   C21   A    
C28   O14   A    
C111  C113  A    
C56   H6    S    
Cr2   O19   S    
C37   C48   A    
C102  C104  A    
C75   C77   A    
Cr1   O18   S    
C88   C100  A    
C1    O4    A    
C12   N1    T    
C51   C57   A    
C99   C101  A    
C28   C33   S    
C19   C88   A    
C39   Cl2   S    
C15   N3    T    
C9    Cl6   S    
C23   H41   S    
Cr6   O3    S    
C52   O19   A    
C42   C43   A    
Cr2   O14   S    
C31   H13   S    
C3    C4    A    
C43   C50   A    
C64   C68   S    
C64   O12   A    
C92   O23   A    
C44   C45   A    
C61   H9    S    
C81   O26   A    
C91   H18   S    
C75   C80   A    
C44   C50   A    
C70   O24   A    
C27   H43   S    
C46   C47   S    
C10   H38   S    
C20   H30   S    
C30   C33   A    
C27   C32   A    
C86   C87   A    
C53   H8    S    
C58   C63   A    
C77   H11   S    
C4    C5    A    
C11   C37   A    
Cr4   O5    S    
C6    C7    A    
C104  Cl4   S    
C101  H26   S    
C1    C51   S    
C103  O7    A    
C89   C98   S    
C109  H36   S    
Cr6   O9    S    
C10   C59   A    
C69   H16   S    
Cr1   O22   S    
C71   C72   A    
C92   O3    A    
C109  C110  A    
C96   Cl5   S    
C30   C31   A    
C90   C91   A    
C5    C6    A    
C108  H29   S    
Cr2   O13   S    
C36   C38   A    
C67   C92   S    
C36   H3    S    
C93   H21   S    
C65   C66   T    
C50   C70   S    
C94   C95   A    
C2    O9    A    
C81   C88   S    
C3    H35   S    
C79   C80   A    
C4    H33   S    
C1    O13   A    
C45   C46   A    
C6    H37   S    
C39   C41   A    
C9    C48   A    
C82   C83   T    
C64   O20   A    
C87   C89   A    
C22   C23   A    
Cr6   O2    S    
C52   O18   A    
C113  H31   S    
C89   C90   A    
C79   Cl3   S    
C58   C60   A    
C93   C98   A    
C107  C108  A    
C40   O16   A    
