data_mof_unit_62444.cif
_audit_creation_date              2012-12-10T18:24:48-0500
_audit_creation_method            fapswitch 2.2
_symmetry_space_group_name_H-M    P1
_symmetry_Int_Tables_number       1
_space_group_crystal_system       triclinic
_cell_length_a                    16.054864
_cell_length_b                    16.057082
_cell_length_c                    19.439255
_cell_angle_alpha                 95.420189
_cell_angle_beta                  90.72299
_cell_angle_gamma                 84.111067
_cell_volume                      4962.57162678

loop_
_atom_site_label
_atom_site_type_symbol
_atom_type_description
_atom_site_fract_x
_atom_site_fract_y
_atom_site_fract_z
_atom_type_partial_charge
C1    C     C_R   0.275750 0.510812 0.490945 0.832688
C2    C     C_2   0.517336 0.565852 0.983488 0.155935
C3    C     C_2   0.485228 0.508169 0.018607 -0.229100
C4    C     C_R   0.724130 0.489203 0.509010 0.825198
C5    C     C_R   0.507669 0.490293 0.235831 -0.185377
C6    C     C_1   0.186271 0.515895 0.486434 -0.116463
C7    C     C_2   0.020720 0.525258 0.476286 0.003123
C8    C     C_2   0.978800 0.481352 0.517836 0.602495
C9    C     C_1   0.888752 0.483128 0.515413 -0.089118
C10   C     C_1   0.111073 0.520144 0.482041 0.137777
C11   C     C_1   0.813575 0.485438 0.512772 -0.140278
C12   C     C_R   0.510744 0.554656 0.908003 0.066056
C13   C     C_1   0.517023 0.184876 0.486403 -0.131579
C14   C     C_2   0.528149 0.018202 0.476972 0.000630
C15   C     C_2   0.478124 0.980859 0.517263 0.600674
C16   C     C_R   0.511641 0.274844 0.490875 0.817503
C17   C     C_1   0.480628 0.890524 0.515179 -0.085542
C18   C     C_1   0.521898 0.109199 0.482286 0.132950
C19   C     C_1   0.483609 0.815040 0.512760 -0.134873
C20   C     C_R   0.488204 0.725150 0.509108 0.830504
C21   C     C_R   0.510143 0.489516 0.311237 0.847800
C22   C     C_R   0.490576 0.510613 0.688918 0.853872
C23   C     C_R   0.436750 0.583343 0.875026 -0.259456
C24   C     C_R   0.494779 0.522681 0.764680 -0.149591
C25   C     C_R   0.568250 0.493000 0.798540 -0.262092
C26   C     C_R   0.576287 0.509308 0.869754 -0.180212
C27   C     C_3   0.974550 0.578986 0.424527 -0.484255
C28   C     C_3   0.031620 0.623674 0.380964 -0.792735
C29   C     C_3   0.589979 0.966313 0.427147 -0.472669
C30   C     C_3   0.641319 0.018551 0.385055 -0.815474
C31   C     C_3   0.668120 0.485270 0.227155 -0.380668
C32   C     C_3   0.701759 0.571096 0.237619 -0.797731
C33   C     C_3   0.560810 0.639202 0.016853 -0.394979
C34   C     C_R   0.428798 0.568124 0.803541 0.641041
C35   C     C_3   0.519268 0.723105 0.996220 -0.822631
C36   C     C_R   0.572948 0.498253 0.124985 -0.204548
C37   C     C_R   0.580919 0.492433 0.196306 0.082060
C38   C     C_R   0.429087 0.491430 0.202698 0.599266
C39   C     C_R   0.422656 0.497353 0.131962 -0.240331
C40   C     C_R   0.493949 0.503216 0.093318 0.047009
F1    F     F_    0.021031 0.433627 0.563807 -0.634201
F2    F     F_    0.423259 0.028169 0.561568 -0.634572
F3    F     F_    0.357809 0.489676 0.239215 -0.650062
F4    F     F_    0.356570 0.597010 0.772749 -0.634211
H1    H     H_    0.620211 0.458475 0.769830 0.195728
H2    H     H_    0.937766 0.538428 0.388887 0.218633
H3    H     H_    0.929989 0.627460 0.452873 0.223011
H4    H     H_    0.599401 0.058697 0.352957 0.259399
H5    H     H_    0.679322 0.058701 0.419885 0.261208
H6    H     H_    0.684413 0.975917 0.350215 0.253249
H7    H     H_    0.634108 0.925334 0.456927 0.221513
H8    H     H_    0.555051 0.925164 0.390481 0.220543
H9    H     H_    0.706005 0.597927 0.187304 0.242824
H10   H     H_    0.660214 0.615106 0.272707 0.277797
H11   H     H_    0.765277 0.564273 0.260986 0.241665
H12   H     H_    0.361604 0.499004 0.107412 0.176452
H13   H     H_    0.669753 0.456772 0.277029 0.202577
H14   H     H_    0.710831 0.442354 0.192067 0.199612
H15   H     H_    0.525567 0.726907 0.939802 0.266454
H16   H     H_    0.451852 0.730733 0.010214 0.263859
H17   H     H_    0.550064 0.775435 0.023897 0.250291
H18   H     H_    0.559710 0.642721 0.074023 0.223476
H19   H     H_    0.627368 0.631452 0.000339 0.200873
H20   H     H_    0.449980 0.461354 0.990564 0.158251
H21   H     H_    0.385317 0.617247 0.904813 0.177178
H22   H     H_    0.628500 0.498596 0.093908 0.155342
H23   H     H_    0.633179 0.485895 0.895217 0.155015
H24   H     H_    0.067585 0.667046 0.414654 0.261665
H25   H     H_    0.075632 0.577024 0.350262 0.268547
H26   H     H_    0.992990 0.661049 0.344740 0.250866
O1    O     O_3   0.500000 0.500000 0.500000 -0.503504
O2    O     O_R   0.462330 0.445560 0.340470 -0.586899
O3    O     O_R   0.440930 0.559110 0.655640 -0.576822
O4    O     O_R   0.554010 0.538050 0.348260 -0.651472
O5    O     O_R   0.542730 0.457290 0.655630 -0.653520
O6    O     O_R   0.555880 0.314540 0.535300 -0.629597
O7    O     O_R   0.439840 0.689760 0.546310 -0.619213
O8    O     O_R   0.320170 0.458170 0.449830 -0.613790
O9    O     O_R   0.684110 0.537530 0.468570 -0.647366
O10   O     O_R   0.310830 0.559620 0.535340 -0.619718
O11   O     O_R   0.684890 0.444680 0.546270 -0.627317
O12   O     O_R   0.463420 0.314900 0.449800 -0.632562
O13   O     O_R   0.540870 0.680800 0.468590 -0.645702
Zn1   Zn    Zn3+2 0.569660 0.430340 0.558290 0.988815
Zn2   Zn    Zn3+2 0.437560 0.430860 0.436130 1.032224
Zn3   Zn    Zn3+2 0.568560 0.563000 0.447270 0.960551
Zn4   Zn    Zn3+2 0.424220 0.575810 0.558310 1.046032

loop_
_geom_bond_atom_site_label_1
_geom_bond_atom_site_label_2
_ccdc_geom_bond_type
C7    C10   S    
C5    C37   A    
C14   C18   S    
C28   H25   S    
C2    C12   S    
O6    Zn1   S    
O2    Zn2   S    
C7    C8    D    
C3    H20   S    
C12   C23   A    
C20   O7    A    
C26   H23   S    
C31   H14   S    
C30   H4    S    
C36   C37   A    
C28   H24   S    
O10   Zn4   S    
C38   C39   A    
C36   H22   S    
O5    Zn1   S    
C7    C27   S    
C35   H15   S    
O3    Zn4   S    
C17   C19   T    
O1    Zn2   S    
C4    O11   A    
C31   C32   S    
C8    C9    S    
C32   H11   S    
C30   H6    S    
C8    F1    S    
C5    C38   A    
C1    O8    A    
C22   O5    A    
C32   H10   S    
C21   O2    A    
C1    C6    S    
C36   C40   A    
C34   F4    S    
C24   C25   A    
C4    O9    A    
C39   C40   A    
C33   H18   S    
C25   C26   A    
C21   O4    A    
C24   C34   A    
C31   C37   S    
C12   C26   A    
C35   H16   S    
C29   C30   S    
O1    Zn3   S    
C39   H12   S    
C33   H19   S    
C23   C34   A    
C16   O12   A    
C35   H17   S    
O4    Zn3   S    
C4    C11   S    
C9    C11   T    
O1    Zn4   S    
C13   C18   T    
C27   H2    S    
C30   H5    S    
C3    C40   S    
C22   C24   S    
C13   C16   S    
C14   C29   S    
C25   H1    S    
C32   H9    S    
O11   Zn1   S    
O8    Zn2   S    
O1    Zn1   S    
C29   H7    S    
C27   H3    S    
C15   C17   S    
C16   O6    A    
C28   H26   S    
C15   F2    S    
C6    C10   T    
O12   Zn2   S    
C23   H21   S    
C19   C20   S    
C2    C3    D    
C38   F3    S    
C31   H13   S    
C33   C35   S    
O13   Zn3   S    
C5    C21   S    
O7    Zn4   S    
C20   O13   A    
C27   C28   S    
C1    O10   A    
C14   C15   D    
C22   O3    A    
O9    Zn3   S    
C2    C33   S    
C29   H8    S    
