data_mof_unit_19804.cif
_audit_creation_date              2012-10-26T21:33:21-0400
_audit_creation_method            fapswitch 2.2
_symmetry_space_group_name_H-M    P1
_symmetry_Int_Tables_number       1
_space_group_crystal_system       triclinic
_cell_length_a                    28.192232
_cell_length_b                    18.454376
_cell_length_c                    17.033291
_cell_angle_alpha                 90.318001
_cell_angle_beta                  60.811262
_cell_angle_gamma                 90.465121
_cell_volume                      7736.33976903

loop_
_atom_site_label
_atom_site_type_symbol
_atom_type_description
_atom_site_fract_x
_atom_site_fract_y
_atom_site_fract_z
_atom_type_partial_charge
C1    C     C_R   0.701842 0.268707 0.675829 0.888626
C2    C     C_R   0.079435 0.498789 0.563859 0.072873
C3    C     C_R   0.189141 0.219347 0.906376 0.100483
C4    C     C_R   0.073902 0.099941 0.934228 0.916527
C5    C     C_R   0.926210 0.899889 0.065653 0.910054
C6    C     C_R   0.925969 0.099652 0.066101 0.914807
C7    C     C_R   0.074064 0.900381 0.933865 0.909055
C8    C     C_R   0.573901 0.599941 0.934228 0.916543
C9    C     C_R   0.426213 0.399885 0.065650 0.910070
C10   C     C_R   0.425968 0.599652 0.066101 0.914826
C11   C     C_R   0.574065 0.400382 0.933864 0.909069
C12   C     C_R   0.520164 0.127321 0.590102 0.036989
C13   C     C_R   0.401352 0.999362 0.499591 0.069983
C14   C     C_R   0.459058 0.870446 0.480164 0.033617
C15   C     C_R   0.426053 0.124831 0.569887 0.033129
C16   C     C_R   0.537797 0.867139 0.536472 0.031396
C17   C     C_R   0.020159 0.627343 0.590171 0.036986
C18   C     C_R   0.958889 0.370365 0.480714 0.033433
C19   C     C_R   0.926063 0.624856 0.569911 0.033100
C20   C     C_R   0.037653 0.367106 0.536976 0.031531
C21   C     C_R   0.487349 0.190008 0.610854 -0.052782
C22   C     C_R   0.483838 0.803917 0.479990 -0.051327
C23   C     C_R   0.440059 0.188722 0.601202 -0.053972
C24   C     C_R   0.579473 0.998786 0.563682 0.072823
C25   C     C_R   0.521869 0.801821 0.511407 -0.052048
C26   C     C_R   0.987364 0.690046 0.610858 -0.052768
C27   C     C_R   0.983529 0.303795 0.480873 -0.051321
C28   C     C_R   0.940085 0.688764 0.601174 -0.053975
C29   C     C_R   0.021606 0.301744 0.512201 -0.051941
C30   C     C_R   0.458292 0.062563 0.550885 0.012584
C31   C     C_R   0.514273 0.933167 0.533779 0.011080
C32   C     C_R   0.503784 0.063079 0.564511 0.010582
C33   C     C_R   0.472513 0.934072 0.511369 0.008335
C34   C     C_R   0.958271 0.562568 0.551006 0.012588
C35   C     C_R   0.077018 0.368163 0.564385 -0.233161
C36   C     C_R   0.014169 0.433137 0.534153 0.011046
C37   C     C_R   0.003756 0.563085 0.564650 0.010589
C38   C     C_R   0.972409 0.434031 0.511741 0.008368
C39   C     C_R   0.944355 0.498854 0.519983 -0.020947
C40   C     C_R   0.032091 0.498372 0.555133 -0.021259
C41   C     C_R   0.444402 0.998871 0.519777 -0.020962
C42   C     C_R   0.532146 0.998379 0.554904 -0.021248
C43   C     C_R   0.887934 0.436205 0.467512 0.052915
C44   C     C_R   0.102107 0.564881 0.571771 0.049901
C45   C     C_R   0.104639 0.432979 0.562515 0.045748
C46   C     C_R   0.879750 0.621214 0.558889 -0.239422
C47   C     C_R   0.870290 0.562140 0.514735 0.044230
C48   C     C_R   0.387969 0.936240 0.467321 0.052896
C49   C     C_R   0.602120 0.064872 0.571681 0.049938
C50   C     C_R   0.604679 0.932974 0.562317 0.045769
C51   C     C_R   0.370283 0.062133 0.514697 0.044178
C52   C     C_R   0.840558 0.436150 0.457151 -0.118987
C53   C     C_R   0.155900 0.564886 0.560286 -0.119013
C54   C     C_R   0.156869 0.434600 0.556953 -0.116390
C55   C     C_R   0.830406 0.562836 0.485795 -0.105307
C56   C     C_R   0.340558 0.936162 0.457075 -0.119076
C57   C     C_R   0.920673 0.374603 0.450651 -0.227203
C58   C     C_R   0.655901 0.064880 0.560253 -0.119024
C59   C     C_R   0.656879 0.934597 0.556875 -0.116332
C60   C     C_R   0.330388 0.062834 0.485791 -0.105335
C61   C     C_R   0.816375 0.500326 0.457611 -0.304667
C62   C     C_R   0.180602 0.499991 0.558299 -0.300415
C63   C     C_R   0.316346 0.000330 0.457612 -0.304550
C64   C     C_R   0.680594 0.999985 0.558291 -0.300488
C65   C     C_R   0.046479 0.231627 0.514200 0.103354
C66   C     C_R   0.016512 0.180602 0.581554 -0.143133
C67   C     C_R   0.040019 0.114641 0.583440 -0.146483
C68   C     C_R   0.069795 0.627686 0.592080 -0.237324
C69   C     C_R   0.093410 0.099271 0.518060 -0.137319
C70   C     C_R   0.123333 0.149742 0.450553 -0.093972
C71   C     C_R   0.100045 0.215839 0.448577 -0.137993
C72   C     C_R   0.906714 0.755393 0.620799 0.103441
C73   C     C_R   0.877310 0.781700 0.709172 -0.144625
C74   C     C_R   0.846141 0.844395 0.727532 -0.156956
C75   C     C_R   0.843905 0.881057 0.657833 -0.114830
C76   C     C_R   0.873208 0.855374 0.569583 -0.089532
C77   C     C_R   0.904716 0.792924 0.550921 -0.158478
C78   C     C_R   0.968139 0.235704 0.451761 0.107230
C79   C     C_R   0.577094 0.868160 0.564024 -0.233126
C80   C     C_R   0.004105 0.203743 0.368971 -0.145164
C81   C     C_R   0.989054 0.140463 0.340909 -0.139937
C82   C     C_R   0.938127 0.108828 0.395271 -0.125398
C83   C     C_R   0.902207 0.140318 0.477902 -0.102001
C84   C     C_R   0.917100 0.203575 0.506219 -0.145058
C85   C     C_R   0.001747 0.756957 0.643755 0.130666
C86   C     C_R   0.020686 0.818813 0.589130 -0.116344
C87   C     C_R   0.032901 0.882081 0.621465 -0.162503
C88   C     C_R   0.026252 0.883949 0.708347 -0.096739
C89   C     C_R   0.007488 0.822477 0.762978 -0.130531
C90   C     C_R   0.379730 0.121183 0.558895 -0.239392
C91   C     C_R   0.995404 0.759087 0.730788 -0.208923
C92   C     C_R   0.546835 0.731717 0.513151 0.103476
C93   C     C_R   0.516914 0.680508 0.580276 -0.143436
C94   C     C_R   0.540489 0.614538 0.581906 -0.146666
C95   C     C_R   0.593904 0.599337 0.516487 -0.137300
C96   C     C_R   0.623783 0.649993 0.449204 -0.093878
C97   C     C_R   0.600428 0.716105 0.447492 -0.137464
C98   C     C_R   0.406663 0.255336 0.620910 0.103412
C99   C     C_R   0.377290 0.281609 0.709304 -0.144575
C100  C     C_R   0.346106 0.344298 0.727741 -0.156997
C101  C     C_R   0.420763 0.874681 0.450263 -0.227168
C102  C     C_R   0.343821 0.380983 0.658100 -0.115054
C103  C     C_R   0.373091 0.355332 0.569830 -0.089450
C104  C     C_R   0.404617 0.292893 0.551089 -0.158430
C105  C     C_R   0.468756 0.735939 0.450190 0.107644
C106  C     C_R   0.504827 0.704695 0.366969 -0.145447
C107  C     C_R   0.490031 0.641618 0.338134 -0.140079
C108  C     C_R   0.439255 0.609473 0.392156 -0.125055
C109  C     C_R   0.403237 0.640238 0.475226 -0.102162
C110  C     C_R   0.417877 0.703290 0.504317 -0.145276
C111  C     C_R   0.501732 0.256912 0.643764 0.130676
C112  C     C_R   0.298187 0.731341 0.324137 0.892222
C113  C     C_R   0.569798 0.127666 0.592019 -0.237297
C114  C     C_R   0.520683 0.318767 0.589139 -0.116371
C115  C     C_R   0.532922 0.382021 0.621468 -0.162505
C116  C     C_R   0.526279 0.383876 0.708347 -0.096685
C117  C     C_R   0.507497 0.322407 0.762981 -0.130555
C118  C     C_R   0.495391 0.259031 0.730796 -0.208910
C119  C     C_3   0.639401 0.194366 0.076687 -0.915198
C120  C     C_3   0.361256 0.805807 0.922310 -0.916893
C121  C     C_3   0.357844 0.185093 0.929602 -0.944222
C122  C     C_3   0.642197 0.811494 0.071806 -0.921227
C123  C     C_3   0.139398 0.694343 0.076681 -0.915215
C124  C     C_R   0.719764 0.264000 0.954892 0.039822
C125  C     C_3   0.861271 0.305795 0.922279 -0.916964
C126  C     C_3   0.857875 0.685217 0.929501 -0.944243
C127  C     C_3   0.142273 0.311642 0.071626 -0.920980
C128  C     C_R   0.280738 0.736597 0.044500 0.039802
C129  C     C_R   0.280454 0.261656 0.045377 0.043223
C130  C     C_R   0.720244 0.736571 0.954215 0.040965
C131  C     C_R   0.219758 0.763991 0.954900 0.039808
C132  C     C_R   0.780746 0.236608 0.044490 0.039808
C133  C     C_R   0.780444 0.761663 0.045390 0.043259
C134  C     C_R   0.220263 0.236555 0.954191 0.040933
C135  C     C_R   0.773746 0.288443 0.918726 -0.237615
C136  C     C_R   0.298269 0.268466 0.323992 0.913091
C137  C     C_R   0.226785 0.712077 0.080577 -0.235547
C138  C     C_R   0.228016 0.290034 0.078832 -0.242977
C139  C     C_R   0.772630 0.707995 0.920902 -0.247594
C140  C     C_R   0.273736 0.788444 0.918743 -0.237567
C141  C     C_R   0.726791 0.212097 0.080575 -0.235542
C142  C     C_R   0.727980 0.789969 0.078912 -0.243009
C143  C     C_R   0.272624 0.207912 0.920940 -0.247568
C144  C     C_R   0.804385 0.275530 0.962449 0.216752
C145  C     C_R   0.196176 0.724920 0.036800 0.216205
C146  C     C_R   0.197697 0.278099 0.034288 0.215325
C147  C     C_R   0.701809 0.731378 0.675977 0.875679
C148  C     C_R   0.802862 0.719713 0.965676 0.217752
C149  C     C_R   0.304375 0.775531 0.962468 0.216733
C150  C     C_R   0.696181 0.224938 0.036799 0.216203
C151  C     C_R   0.697654 0.778034 0.034378 0.215415
C152  C     C_R   0.302853 0.219639 0.965718 0.217721
C153  C     C_R   0.643256 0.326485 0.946680 -0.188771
C154  C     C_R   0.357078 0.673960 0.052989 -0.190432
C155  C     C_R   0.357437 0.324004 0.052631 -0.200097
C156  C     C_R   0.643219 0.674723 0.946767 -0.192022
C157  C     C_R   0.143250 0.826476 0.946687 -0.188772
C158  C     C_R   0.201843 0.768708 0.675829 0.888659
C159  C     C_R   0.857083 0.173967 0.052983 -0.190424
C160  C     C_R   0.857425 0.824020 0.052644 -0.200076
C161  C     C_R   0.143228 0.174715 0.946760 -0.192059
C162  C     C_R   0.616303 0.346915 0.898686 -0.073858
C163  C     C_R   0.383852 0.653282 0.101173 -0.074398
C164  C     C_R   0.384226 0.345625 0.100645 -0.073883
C165  C     C_R   0.616109 0.653804 0.899050 -0.075257
C166  C     C_R   0.116301 0.846911 0.898688 -0.073850
C167  C     C_R   0.883853 0.153284 0.101171 -0.074397
C168  C     C_R   0.884220 0.845632 0.100651 -0.073888
C169  C     C_R   0.798187 0.231341 0.324137 0.892210
C170  C     C_R   0.116114 0.153800 0.899048 -0.075261
C171  C     C_R   0.632913 0.321453 0.813504 -0.271545
C172  C     C_R   0.367188 0.678669 0.186415 -0.264553
C173  C     C_R   0.367507 0.320815 0.186035 -0.262582
C174  C     C_R   0.632675 0.678922 0.813858 -0.263886
C175  C     C_R   0.132913 0.821454 0.813504 -0.271541
C176  C     C_R   0.867188 0.178669 0.186415 -0.264556
C177  C     C_R   0.867506 0.820815 0.186036 -0.262572
C178  C     C_R   0.132679 0.178917 0.813856 -0.263883
C179  C     C_R   0.679327 0.281049 0.771210 -0.049859
C180  C     C_R   0.798270 0.768464 0.323992 0.913029
C181  C     C_R   0.320806 0.719149 0.228654 -0.055948
C182  C     C_R   0.320857 0.280245 0.228616 -0.058759
C183  C     C_R   0.679442 0.719218 0.771211 -0.051083
C184  C     C_R   0.179326 0.781049 0.771211 -0.049897
C185  C     C_R   0.820807 0.219152 0.228653 -0.055980
C186  C     C_R   0.820857 0.780243 0.228617 -0.058731
C187  C     C_R   0.179448 0.219208 0.771205 -0.051083
C188  C     C_R   0.707232 0.259572 0.817671 -0.209513
C189  C     C_R   0.293068 0.740868 0.181989 -0.206855
C190  C     C_R   0.292799 0.257995 0.182345 -0.210939
C191  C     C_R   0.201810 0.231375 0.675976 0.875655
C192  C     C_R   0.707778 0.740845 0.817259 -0.215574
C193  C     C_R   0.207228 0.759568 0.817675 -0.209448
C194  C     C_R   0.793073 0.240876 0.181984 -0.206846
C195  C     C_R   0.792798 0.757994 0.182350 -0.211018
C196  C     C_R   0.207791 0.240826 0.817245 -0.215550
C197  C     C_R   0.690886 0.129570 0.536333 0.894370
C198  C     C_R   0.308526 0.870905 0.466763 0.895715
C199  C     C_R   0.303311 0.127921 0.482885 0.909324
C200  C     C_R   0.691514 0.870747 0.534386 0.903670
C201  C     C_R   0.190886 0.629572 0.536338 0.894401
C202  C     C_R   0.901326 0.499347 0.499735 0.069931
C203  C     C_R   0.808523 0.370906 0.466790 0.895690
C204  C     C_R   0.803319 0.627920 0.482875 0.909235
C205  C     C_R   0.191509 0.370744 0.534415 0.903647
C206  C     C_R   0.688758 0.281515 0.906832 0.098469
C207  C     C_R   0.311666 0.719071 0.092707 0.098041
C208  C     C_R   0.311603 0.279150 0.093057 0.105673
C209  C     C_R   0.689125 0.719366 0.906393 0.100510
C210  C     C_R   0.188751 0.781507 0.906838 0.098435
C211  C     C_R   0.811673 0.219082 0.092699 0.098046
C212  C     C_R   0.811596 0.779157 0.093066 0.105707
H1    H     H_    0.783528 0.500652 0.441631 0.190873
H2    H     H_    0.350339 0.163865 0.587880 0.191605
H3    H     H_    0.865312 0.339503 0.972928 0.249911
H4    H     H_    0.891154 0.261137 0.899949 0.235871
H5    H     H_    0.871472 0.340390 0.862890 0.237940
H6    H     H_    0.889752 0.727693 0.908473 0.234980
H7    H     H_    0.858701 0.651034 0.982249 0.255061
H8    H     H_    0.867757 0.650253 0.870241 0.236631
H9    H     H_    0.140531 0.345220 0.019208 0.249832
H10   H     H_    0.110599 0.268728 0.094039 0.236691
H11   H     H_    0.132728 0.347039 0.130392 0.236728
H12   H     H_    0.417041 0.829754 0.412803 0.186282
H13   H     H_    0.582324 0.176488 0.611980 0.186913
H14   H     H_    0.791782 0.318823 0.856409 0.153414
H15   H     H_    0.208759 0.681634 0.142844 0.154439
H16   H     H_    0.211028 0.322606 0.139561 0.152455
H17   H     H_    0.789571 0.675287 0.860282 0.155221
H18   H     H_    0.291771 0.818832 0.856431 0.153455
H19   H     H_    0.708763 0.181660 0.142846 0.154440
H20   H     H_    0.710974 0.822483 0.139689 0.152388
H21   H     H_    0.221104 0.500404 0.550623 0.193933
H22   H     H_    0.289549 0.175153 0.860363 0.155240
H23   H     H_    0.630464 0.348065 0.013273 0.152003
H24   H     H_    0.369916 0.652422 0.986362 0.151749
H25   H     H_    0.370539 0.344633 0.985637 0.152464
H26   H     H_    0.630264 0.653736 0.013542 0.150495
H27   H     H_    0.130454 0.848051 0.013282 0.151992
H28   H     H_    0.869922 0.152429 0.986356 0.151737
H29   H     H_    0.870520 0.844663 0.985659 0.152466
H30   H     H_    0.130270 0.153739 0.013542 0.150567
H31   H     H_    0.611976 0.337909 0.777437 0.178532
H32   H     H_    0.283475 0.000655 0.441688 0.190915
H33   H     H_    0.388077 0.662109 0.222550 0.179105
H34   H     H_    0.388505 0.337968 0.222090 0.174793
H35   H     H_    0.611425 0.662270 0.778026 0.178022
H36   H     H_    0.111978 0.837915 0.777434 0.178545
H37   H     H_    0.888074 0.162103 0.222553 0.179111
H38   H     H_    0.888507 0.837963 0.222088 0.174787
H39   H     H_    0.111426 0.162270 0.778027 0.178055
H40   H     H_    0.744029 0.227823 0.784120 0.152623
H41   H     H_    0.256300 0.772673 0.215474 0.156140
H42   H     H_    0.255654 0.226371 0.216099 0.149293
H43   H     H_    0.721080 0.000400 0.550687 0.193902
H44   H     H_    0.744928 0.772293 0.783472 0.167327
H45   H     H_    0.244026 0.727820 0.784125 0.152708
H46   H     H_    0.756306 0.272683 0.215467 0.156140
H47   H     H_    0.755654 0.726365 0.216103 0.149186
H48   H     H_    0.244942 0.272269 0.783455 0.167391
H49   H     H_    0.975132 0.192062 0.632499 0.126768
H50   H     H_    0.016870 0.075450 0.635575 0.124633
H51   H     H_    0.111580 0.048244 0.519647 0.115030
H52   H     H_    0.164604 0.137673 0.399845 0.130033
H53   H     H_    0.123595 0.254650 0.396095 0.131163
H54   H     H_    0.085295 0.317906 0.586918 0.193563
H55   H     H_    0.878737 0.753740 0.763536 0.147949
H56   H     H_    0.823472 0.864277 0.795881 0.140299
H57   H     H_    0.819508 0.929370 0.672181 0.118714
H58   H     H_    0.871495 0.883848 0.515643 0.108239
H59   H     H_    0.927374 0.773594 0.482276 0.131432
H60   H     H_    0.043515 0.228089 0.326146 0.128285
H61   H     H_    0.016800 0.116064 0.276904 0.127062
H62   H     H_    0.926489 0.059952 0.373352 0.119977
H63   H     H_    0.862781 0.115809 0.519896 0.117867
H64   H     H_    0.888900 0.227765 0.570161 0.129923
H65   H     H_    0.850377 0.663920 0.587824 0.191668
H66   H     H_    0.025757 0.817997 0.521879 0.121343
H67   H     H_    0.047376 0.929715 0.579262 0.120618
H68   H     H_    0.035606 0.933018 0.733313 0.131679
H69   H     H_    0.002233 0.823905 0.830290 0.146839
H70   H     H_    0.980956 0.711714 0.773528 0.138758
H71   H     H_    0.475513 0.691830 0.631239 0.126721
H72   H     H_    0.517374 0.575206 0.633868 0.124642
H73   H     H_    0.612124 0.548297 0.517869 0.115061
H74   H     H_    0.665070 0.638050 0.398460 0.130186
H75   H     H_    0.623941 0.755056 0.395175 0.131000
H76   H     H_    0.916997 0.329641 0.413193 0.186341
H77   H     H_    0.378753 0.253630 0.763625 0.147961
H78   H     H_    0.323461 0.364155 0.796105 0.140354
H79   H     H_    0.319410 0.429288 0.672508 0.118803
H80   H     H_    0.371340 0.383824 0.515935 0.108327
H81   H     H_    0.427252 0.273591 0.482428 0.131453
H82   H     H_    0.544110 0.729462 0.324391 0.128362
H83   H     H_    0.517850 0.617789 0.273784 0.127316
H84   H     H_    0.427808 0.560768 0.369624 0.120195
H85   H     H_    0.363925 0.615339 0.516949 0.117650
H86   H     H_    0.389595 0.726939 0.568577 0.129663
H87   H     H_    0.082335 0.676519 0.611996 0.186925
H88   H     H_    0.525752 0.317959 0.521890 0.121347
H89   H     H_    0.547414 0.429652 0.579260 0.120499
H90   H     H_    0.535653 0.432932 0.733308 0.131745
H91   H     H_    0.502249 0.323826 0.830288 0.146796
H92   H     H_    0.480934 0.211658 0.773535 0.138729
H93   H     H_    0.609382 0.238858 0.099051 0.237039
H94   H     H_    0.635547 0.160674 0.025845 0.248461
H95   H     H_    0.629242 0.159670 0.135973 0.238208
H96   H     H_    0.365290 0.839511 0.972969 0.249891
H97   H     H_    0.391145 0.761155 0.899976 0.235889
H98   H     H_    0.585329 0.817870 0.586546 0.193603
H99   H     H_    0.371457 0.840408 0.862926 0.237947
H100  H     H_    0.389743 0.227543 0.908550 0.234975
H101  H     H_    0.358640 0.150934 0.982393 0.255064
H102  H     H_    0.367719 0.150099 0.870371 0.236631
H103  H     H_    0.640399 0.845080 0.019443 0.249906
H104  H     H_    0.610557 0.768534 0.094219 0.236596
H105  H     H_    0.632646 0.846867 0.130594 0.236686
H106  H     H_    0.109376 0.738833 0.099072 0.237034
H107  H     H_    0.135543 0.660671 0.025826 0.248466
H108  H     H_    0.129245 0.659625 0.135947 0.238209
O1    O     O_R   0.746490 0.236330 0.638080 -0.643795
O2    O     O_R   0.325830 0.813840 0.483730 -0.635402
O3    O     O_R   0.325830 0.186160 0.483730 -0.641901
O4    O     O_R   0.674170 0.813840 0.516270 -0.639006
O5    O     O_R   0.174170 0.686160 0.516270 -0.630341
O6    O     O_R   0.825830 0.313840 0.483730 -0.635464
O7    O     O_R   0.825830 0.686160 0.483730 -0.641906
O8    O     O_R   0.174170 0.313840 0.516270 -0.638969
O9    O     O_R   0.739960 0.127620 0.525000 -0.632361
O10   O     O_R   0.260040 0.872380 0.475000 -0.623884
O11   O     O_R   0.260040 0.127620 0.475000 -0.633143
O12   O     O_R   0.253510 0.763670 0.361920 -0.635160
O13   O     O_R   0.739960 0.872380 0.525000 -0.631367
O14   O     O_R   0.239960 0.627620 0.525000 -0.632358
O15   O     O_R   0.760040 0.372380 0.475000 -0.623862
O16   O     O_R   0.760040 0.627620 0.475000 -0.633044
O17   O     O_R   0.239960 0.372380 0.525000 -0.631370
O18   O     O_R   0.680700 0.294870 0.629350 -0.625022
O19   O     O_R   0.319300 0.705130 0.370650 -0.624403
O20   O     O_R   0.319300 0.294870 0.370650 -0.627197
O21   O     O_R   0.680700 0.705130 0.629350 -0.629618
O22   O     O_R   0.180700 0.794870 0.629350 -0.625043
O23   O     O_R   0.253510 0.236330 0.361920 -0.645281
O24   O     O_R   0.819300 0.205130 0.370650 -0.624287
O25   O     O_R   0.819300 0.794870 0.370650 -0.627196
O26   O     O_R   0.180700 0.205130 0.629350 -0.629608
O27   O     O_R   0.062020 0.072840 0.007170 -0.629120
O28   O     O_R   0.937980 0.927160 0.992830 -0.632019
O29   O     O_R   0.937980 0.072840 0.992830 -0.627552
O30   O     O_R   0.062020 0.927160 0.007170 -0.625909
O31   O     O_R   0.562020 0.572840 0.007170 -0.629211
O32   O     O_R   0.437980 0.427160 0.992830 -0.631990
O33   O     O_R   0.437980 0.572840 0.992830 -0.627520
O34   O     O_R   0.746490 0.763670 0.638080 -0.637991
O35   O     O_R   0.562020 0.427160 0.007170 -0.625890
O36   O     O_R   0.947860 0.073950 0.109290 -0.623858
O37   O     O_R   0.052140 0.926050 0.890710 -0.637947
O38   O     O_R   0.052140 0.073950 0.890710 -0.624620
O39   O     O_R   0.947860 0.926050 0.109290 -0.622798
O40   O     O_R   0.447860 0.573950 0.109290 -0.623978
O41   O     O_R   0.552140 0.426050 0.890710 -0.637945
O42   O     O_R   0.552140 0.573950 0.890710 -0.624603
O43   O     O_R   0.447860 0.426050 0.109290 -0.622825
O44   O     O_R   0.246490 0.736330 0.638080 -0.643609
O45   O     O_R   0.753510 0.263670 0.361920 -0.635155
O46   O     O_R   0.753510 0.736330 0.361920 -0.645368
O47   O     O_R   0.246490 0.263670 0.638080 -0.638010
O48   O     O_R   0.674170 0.186160 0.516270 -0.630325
Zn1   Zn    Zn3+2 0.792340 0.208750 0.507670 0.931224
Zn2   Zn    Zn3+2 0.494040 0.500000 0.919480 0.913399
Zn3   Zn    Zn3+2 0.005960 0.000000 0.080520 0.922873
Zn4   Zn    Zn3+2 0.994040 0.000000 0.919480 0.913324
Zn5   Zn    Zn3+2 0.207660 0.791250 0.492330 0.952917
Zn6   Zn    Zn3+2 0.207660 0.208750 0.492330 0.937715
Zn7   Zn    Zn3+2 0.792340 0.791250 0.507670 0.933569
Zn8   Zn    Zn3+2 0.292340 0.708750 0.507670 0.931082
Zn9   Zn    Zn3+2 0.707660 0.291250 0.492330 0.952943
Zn10  Zn    Zn3+2 0.707660 0.708750 0.492330 0.937892
Zn11  Zn    Zn3+2 0.292340 0.291250 0.507670 0.933514
Zn12  Zn    Zn3+2 0.505960 0.500000 0.080520 0.922652

loop_
_geom_bond_atom_site_label_1
_geom_bond_atom_site_label_2
_ccdc_geom_bond_type
C132  C144  A    
C49   C113  A    
C105  C110  A    
C119  H94   S    
C120  H97   S    
C79   H98   S    
C136  O23   A    
C171  C179  A    
C50   C79   A    
C14   C33   A    
C114  C115  A    
C19   C46   A    
O34   Zn7   S    
C16   C31   A    
C9    O32   A    
O42   Zn2   S    
C111  C118  A    
C50   C59   A    
C135  H14   S    
C52   C61   A    
C191  O47   A    
C106  C107  A    
C125  C144  S    
C184  C193  A    
C97   H75   S    
C159  C211  A    
C108  C109  A    
C91   H70   S    
C188  H40   S    
C100  H78   S    
C131  C140  A    
C134  C143  A    
C13   C51   A    
C44   C53   A    
C162  C171  A    
C123  C145  S    
C192  H44   S    
C8    O42   A    
C141  C150  A    
O18   Zn9   S    
O2    Zn8   S    
C24   C50   A    
C111  C114  A    
O11   Zn6   S    
C57   H76   S    
C126  H8    S    
C56   C198  S    
C134  C146  A    
C205  O8    A    
C123  H107  S    
O41   Zn2   S    
C129  C152  A    
C7    O37   A    
O4    Zn10  S    
C179  C188  A    
C104  H81   S    
C11   C162  S    
C53   C201  S    
C177  C186  A    
C4    O38   A    
O20   Zn11  S    
C142  C151  A    
C9    C164  S    
O39   Zn3   S    
C75   C76   A    
C154  C163  A    
C113  H13   S    
C116  H90   S    
C54   C205  S    
C131  C210  S    
C122  H103  S    
O21   Zn10  S    
C163  C172  A    
C7    C166  S    
C170  C178  A    
C173  C182  A    
C84   H64   S    
C120  H99   S    
C35   C45   A    
C112  O19   A    
C90   H2    S    
C15   C30   A    
C16   C25   A    
O10   Zn5   S    
C124  C135  A    
C82   H62   S    
C156  C209  A    
C195  H47   S    
C72   C73   A    
C200  O4    A    
O12   Zn5   S    
C52   C203  S    
C121  H102  S    
O46   Zn10  S    
C125  H3    S    
C31   C42   A    
C172  H33   S    
C121  H100  S    
C48   C101  A    
C110  H86   S    
C159  C167  A    
C160  C168  A    
C18   C38   A    
C69   C70   A    
C2    C40   A    
C88   C89   A    
C98   C99   A    
C39   C202  A    
O37   Zn4   S    
C189  H41   S    
C182  C190  A    
C67   C69   A    
C126  H6    S    
C102  H79   S    
C173  H34   S    
C27   C29   A    
O44   Zn8   S    
C198  O2    A    
C6    O29   A    
C69   H51   S    
C85   C86   A    
C70   H52   S    
O15   Zn9   S    
C133  C142  A    
C119  H95   S    
C37   C40   A    
C51   C90   A    
C38   C39   A    
C78   C80   A    
C43   C52   A    
C177  H38   S    
C115  C116  A    
C46   H65   S    
C7    O30   A    
C20   C35   A    
C203  O15   A    
C172  C181  A    
C2    C44   A    
C22   C25   A    
C159  H28   S    
C30   C41   A    
C89   C91   A    
C66   H49   S    
C154  C207  A    
C10   O40   A    
C66   C67   A    
O32   Zn2   S    
C132  C211  S    
C61   H1    S    
O43   Zn12  S    
C83   H63   S    
C92   C97   A    
C2    C45   A    
C58   C64   A    
C197  O48   A    
C139  C148  A    
C34   C39   A    
O23   Zn6   S    
C129  C208  S    
C165  C174  A    
C47   C202  A    
C197  O9    A    
C199  O3    A    
C83   C84   A    
C59   C200  S    
C139  H17   S    
C169  O45   A    
C19   C28   A    
C180  C186  S    
C201  O14   A    
C29   C65   S    
C101  H12   S    
C130  C151  A    
C203  O6    A    
C132  C141  A    
C25   C92   S    
C119  H93   S    
C171  H31   S    
O1    Zn1   S    
O13   Zn7   S    
C11   O41   A    
C112  C181  S    
C22   C105  S    
C205  O17   A    
C3    C134  S    
C14   C22   A    
C195  C212  A    
C137  H15   S    
C117  C118  A    
C193  C210  A    
C138  C146  A    
C26   C85   S    
C63   H32   S    
C55   C61   A    
O5    Zn5   S    
C131  C145  A    
C86   H66   S    
C102  C103  A    
O38   Zn4   S    
C8    C165  S    
C43   C57   A    
C23   C98   S    
O8    Zn6   S    
C175  C184  A    
C130  C209  S    
C51   C60   A    
C158  O44   A    
C1    O18   A    
C140  C149  A    
C204  O16   A    
O31   Zn12  S    
C87   C88   A    
C58   C197  S    
C140  H18   S    
C10   C163  S    
C187  C196  A    
C34   C37   A    
C24   C42   A    
C73   C74   A    
C185  C194  A    
C27   C78   S    
C183  C192  A    
C13   C41   A    
C176  C185  A    
C188  C206  A    
C166  C175  A    
O17   Zn11  S    
C143  H22   S    
C137  C145  A    
C107  H83   S    
C168  C177  A    
C5    C168  S    
O24   Zn1   S    
C127  H10   S    
C181  C189  A    
C178  H39   S    
C76   H58   S    
C96   H74   S    
C77   H59   S    
C70   C71   A    
C64   H43   S    
C119  C150  S    
C62   H21   S    
C114  H88   S    
C28   C72   S    
O36   Zn3   S    
C130  C139  A    
C21   C111  S    
C174  H35   S    
C193  H45   S    
C85   C91   A    
C5    O28   A    
C155  C208  A    
C176  H37   S    
C126  C148  S    
C86   C87   A    
C14   C101  A    
C54   C62   A    
C156  H26   S    
C95   H73   S    
O47   Zn11  S    
O14   Zn8   S    
C158  O22   A    
C18   C57   A    
C43   C202  A    
C120  C149  S    
C94   H72   S    
C87   H67   S    
O28   Zn4   S    
C161  H30   S    
C4    C170  S    
C178  C187  A    
C175  H36   S    
C147  O34   A    
C21   C23   A    
C126  H7    S    
C11   O35   A    
C124  C150  A    
C46   C47   A    
C17   C68   A    
C123  H108  S    
C122  H104  S    
C204  O7    A    
C201  O5    A    
C174  C183  A    
C1    O1    A    
O30   Zn3   S    
C200  O13   A    
O40   Zn12  S    
O7    Zn7   S    
C141  H19   S    
C105  C106  A    
C89   H69   S    
C3    C196  A    
C153  C162  A    
C16   C79   A    
C33   C41   A    
C36   C38   A    
O48   Zn9   S    
C109  C110  A    
O45   Zn9   S    
C103  H80   S    
C8    O31   A    
C156  C165  A    
C189  C207  A    
C55   C204  S    
C92   C93   A    
O22   Zn5   S    
C81   H61   S    
C94   C95   A    
C192  C209  A    
C3    C161  A    
C127  C146  S    
C20   C36   A    
C128  C149  A    
C155  H25   S    
C82   C83   A    
C103  C104  A    
C190  H42   S    
C169  O24   A    
C32   C42   A    
C80   H60   S    
O33   Zn2   S    
C136  O20   A    
C158  C184  S    
O35   Zn12  S    
C125  H5    S    
C10   O33   A    
C93   C94   A    
C95   C96   A    
C81   C82   A    
C108  H84   S    
O16   Zn10  S    
C199  O11   A    
C59   C64   A    
C60   C63   A    
C17   C26   A    
O26   Zn6   S    
C191  O26   A    
C125  H4    S    
C121  H101  S    
O9    Zn1   S    
C116  C117  A    
C153  H23   S    
C196  H48   S    
C73   H55   S    
C60   C199  S    
C194  C211  A    
C142  H20   S    
C157  H27   S    
C129  C138  A    
O25   Zn7   S    
C31   C33   A    
C128  C207  S    
C160  H29   S    
C9    O43   A    
C187  C191  S    
C127  H11   S    
C15   C23   A    
C157  C210  A    
C71   H53   S    
C12   C32   A    
C123  H106  S    
C74   H56   S    
C106  H82   S    
C20   C29   A    
O6    Zn1   S    
C160  C212  A    
C68   H87   S    
C74   C75   A    
C186  C195  A    
C36   C40   A    
C76   C77   A    
C112  O12   A    
C75   H57   S    
C65   C71   A    
C12   C21   A    
C49   C58   A    
C194  H46   S    
O29   Zn4   S    
O19   Zn8   S    
C198  O10   A    
C128  C137  A    
C5    O39   A    
C164  C173  A    
C72   C77   A    
C88   H68   S    
C53   C62   A    
O3    Zn11  S    
C99   C100  A    
C107  C108  A    
C96   C97   A    
C117  H91   S    
C100  C102  A    
C120  H96   S    
C56   C63   A    
C118  H92   S    
C115  H89   S    
C133  C148  A    
C17   C37   A    
C138  H16   S    
C180  O25   A    
C161  C170  A    
C190  C208  A    
C135  C144  A    
C109  H85   S    
C45   C54   A    
C44   C68   A    
C136  C182  S    
C93   H71   S    
C67   H50   S    
C47   C55   A    
C12   C113  A    
C147  C183  S    
C24   C49   A    
C48   C56   A    
C6    C167  S    
C143  C152  A    
C124  C206  S    
C18   C27   A    
C80   C81   A    
C19   C34   A    
C157  C166  A    
C13   C48   A    
C155  C164  A    
C26   C28   A    
C121  C152  S    
C180  O46   A    
C4    O27   A    
C122  C151  S    
C169  C185  S    
C15   C90   A    
C30   C32   A    
C1    C179  S    
C98   C104  A    
O27   Zn3   S    
C35   H54   S    
C127  H9    S    
C153  C206  A    
C78   C84   A    
C122  H105  S    
C65   C66   A    
C154  H24   S    
C133  C212  S    
C99   H77   S    
C167  C176  A    
C147  O21   A    
C6    O36   A    
