data_mof_unit_8705.cif
_audit_creation_date              2012-12-10T17:42:12-0500
_audit_creation_method            fapswitch 2.2
_symmetry_space_group_name_H-M    P1
_symmetry_Int_Tables_number       1
_space_group_crystal_system       triclinic
_cell_length_a                    15.114523
_cell_length_b                    13.678425
_cell_length_c                    10.80599
_cell_angle_alpha                 90.342144
_cell_angle_beta                  90.496091
_cell_angle_gamma                 90.803339
_cell_volume                      2233.71658186

loop_
_atom_site_label
_atom_site_type_symbol
_atom_type_description
_atom_site_fract_x
_atom_site_fract_y
_atom_site_fract_z
_atom_type_partial_charge
C1    C     C_R   0.328587 0.499359 0.501088 0.942045
C2    C     C_3   0.519601 0.398400 0.927623 -0.429627
C3    C     C_R   0.813949 0.419694 0.468535 -0.173922
C4    C     C_R   0.769125 0.504872 0.500882 -0.132956
C5    C     C_R   0.817678 0.592067 0.529488 -0.079121
C6    C     C_R   0.910294 0.595243 0.510788 -0.036471
C7    C     C_R   0.954306 0.505934 0.489201 0.059673
C8    C     C_R   0.905881 0.418432 0.467959 0.112163
C9    C     C_R   0.961494 0.683590 0.518418 -0.014588
C10   C     C_R   0.053542 0.679158 0.524384 -0.209269
C11   C     C_R   0.096291 0.590107 0.512546 0.070154
C12   C     C_R   0.500167 0.499741 0.260041 0.967450
C13   C     C_R   0.047219 0.503428 0.491441 0.087972
C14   C     C_R   0.091234 0.413982 0.474090 0.115632
C15   C     C_R   0.042245 0.328112 0.450975 -0.183683
C16   C     C_R   0.950118 0.330454 0.447086 -0.175634
C17   C     C_R   0.188079 0.587406 0.517046 -0.116461
C18   C     C_R   0.232020 0.498976 0.500659 -0.020757
C19   C     C_R   0.183572 0.412191 0.479749 -0.246651
C20   C     C_R   0.451745 0.792935 0.586204 0.028236
C21   C     C_R   0.450960 0.206368 0.585364 0.011213
C22   C     C_R   0.548026 0.793629 0.413609 0.087295
C23   C     C_R   0.549001 0.207102 0.414631 0.022588
C24   C     C_R   0.549594 0.896706 0.411970 -0.023976
C25   C     C_R   0.550038 0.103999 0.412424 -0.011865
C26   C     C_R   0.671742 0.501151 0.502796 0.870559
C27   C     C_R   0.500158 0.948157 0.500202 0.084590
C28   C     C_R   0.500158 0.051827 0.500197 0.096589
C29   C     C_R   0.450624 0.895989 0.588333 -0.014377
C30   C     C_R   0.450212 0.103265 0.587893 -0.005135
C31   C     C_R   0.599222 0.949303 0.324635 -0.143390
C32   C     C_R   0.599531 0.052059 0.324958 -0.196330
C33   C     C_R   0.400950 0.050615 0.675623 -0.187930
C34   C     C_R   0.401286 0.947871 0.675988 -0.186887
C35   C     C_R   0.499744 0.500507 0.740423 0.818357
C36   C     C_3   0.576886 0.568112 0.075473 0.170275
C37   C     C_3   0.410941 0.544292 0.072317 0.167602
C38   C     C_3   0.574202 0.572158 0.931184 -0.255673
C39   C     C_3   0.404321 0.528263 0.929899 -0.233129
C40   C     C_3   0.510525 0.394963 0.068660 -0.341242
C41   C     C_3   0.499821 0.500034 0.122802 -0.143628
C42   C     C_3   0.498527 0.502790 0.878540 -0.138858
Cu1   Cu    Cu3+1 0.499990 0.597420 0.500010 1.043951
Cu2   Cu    Cu3+1 0.499990 0.402580 0.500010 0.986904
H1    H     H_    0.092405 0.746245 0.532734 0.171844
H2    H     H_    0.225362 0.654764 0.532611 0.164793
H3    H     H_    0.217568 0.343726 0.466217 0.155604
H4    H     H_    0.075144 0.259163 0.436376 0.152783
H5    H     H_    0.913360 0.263075 0.429842 0.151780
H6    H     H_    0.414019 0.751810 0.653261 0.157199
H7    H     H_    0.412519 0.247040 0.651668 0.127269
H8    H     H_    0.585709 0.753005 0.346492 0.183759
H9    H     H_    0.587334 0.248368 0.348215 0.140189
H10   H     H_    0.637796 0.910991 0.256135 0.173800
H11   H     H_    0.638338 0.090878 0.256689 0.152056
H12   H     H_    0.362235 0.088873 0.743997 0.147387
H13   H     H_    0.362865 0.909009 0.744655 0.150596
H14   H     H_    0.563691 0.642608 0.112349 0.131907
H15   H     H_    0.414705 0.624015 0.092306 0.174948
H16   H     H_    0.636575 0.542193 0.893856 0.197287
H17   H     H_    0.362383 0.461713 0.913502 0.176583
H18   H     H_    0.568271 0.357047 0.108641 0.221972
H19   H     H_    0.452073 0.348830 0.091615 0.231204
H20   H     H_    0.587871 0.377343 0.901400 0.210962
H21   H     H_    0.473790 0.342402 0.886321 0.190713
H22   H     H_    0.777182 0.352870 0.447628 0.165308
N1    N     N_R   0.499930 0.743810 0.499950 -0.192372
N2    N     N_R   0.499930 0.256190 0.499950 -0.189282
O1    O     O_R   0.370250 0.582280 0.500040 -0.561114
O2    O     O_R   0.370250 0.417720 0.500040 -0.593361
O3    O     O_R   0.499970 0.582270 0.317700 -0.599926
O4    O     O_R   0.499970 0.417730 0.317700 -0.561041
O5    O     O_R   0.629730 0.582260 0.499980 -0.533855
O6    O     O_R   0.629730 0.417740 0.499980 -0.596219
O7    O     O_R   0.500000 0.582270 0.682320 -0.570372
O8    O     O_R   0.500000 0.417730 0.682320 -0.604570
S1    S     S_3+6 0.686566 0.543280 0.137838 -0.006266
O9    O     O_2   0.691387 0.444324 0.196756 -0.334287
O10   O     O_2   0.755749 0.550425 0.038990 -0.245141
O11   O     O_3   0.709804 0.628629 0.246386 -0.529149
H23   H     H_    0.774247 0.623723 0.261974 0.394516
S2    S     S_3+6 0.310378 0.503548 0.147893 -0.009883
O12   O     O_2   0.288362 0.577127 0.246133 -0.292253
O13   O     O_2   0.234920 0.498709 0.056294 -0.264165
O14   O     O_3   0.321766 0.393075 0.213046 -0.571344
H24   H     H_    0.260822 0.371337 0.233091 0.370399
C43   C     C_2   0.570487 0.677555 0.887655 0.865117
O15   O     O_2   0.625707 0.708021 0.815016 -0.547433
O16   O     O_R   0.506493 0.740850 0.932790 -0.772198
H25   H     H_    0.511504 0.808755 0.896159 0.336591
C44   C     C_2   0.354111 0.609127 0.864543 0.913919
O17   O     O_2   0.326796 0.595359 0.759132 -0.644640
O18   O     O_R   0.331770 0.695291 0.926592 -0.699273
H26   H     H_    0.296796 0.741488 0.872561 0.330084
C45   C     C_2   0.776894 0.670367 0.604644 0.902988
O19   O     O_2   0.795319 0.676823 0.714784 -0.525639
O20   O     O_R   0.722143 0.739372 0.549265 -0.699618
H27   H     H_    0.701295 0.790763 0.609930 0.351845
C46   C     C_2   0.923514 0.782170 0.504874 0.864716
O21   O     O_2   0.869801 0.797760 0.422301 -0.556758
O22   O     O_R   0.952787 0.858439 0.582296 -0.741266
H28   H     H_    0.922939 0.922541 0.562899 0.339617

loop_
_geom_bond_atom_site_label_1
_geom_bond_atom_site_label_2
_ccdc_geom_bond_type
Cu1   O5    S    
C43   O15   D    
O18   H26   S    
C27   C29   A    
C20   N1    A    
C45   O19   D    
C24   C27   A    
C2    H21   S    
C6    C9    A    
O20   H27   S    
C7    C8    A    
S1    O9    D    
C25   C28   A    
C35   O7    A    
C1    C18   S    
O22   H28   S    
C40   H19   S    
C38   C42   S    
C36   H14   S    
C36   S1    S    
C5    C6    A    
C19   H3    S    
C15   C16   A    
C26   O5    A    
C40   H18   S    
C18   C19   A    
C8    C16   A    
Cu2   O8    S    
C35   C42   S    
C20   H6    S    
C31   C32   A    
C34   H13   S    
Cu2   O2    S    
C9    C10   A    
C32   H11   S    
C33   H12   S    
C12   O4    A    
Cu1   O1    S    
C13   C14   A    
C36   C41   S    
C15   H4    S    
C39   C44   S    
C5    C45   S    
C2    H20   S    
C17   C18   A    
C39   C42   S    
C20   C29   A    
S1    O10   D    
Cu1   O7    S    
C39   H17   S    
C35   O8    A    
C17   H2    S    
C3    C8    A    
C44   O17   D    
C4    C5    A    
O14   H24   S    
C29   C34   A    
C1    O1    A    
C23   N2    A    
Cu1   Cu2   S    
C12   C41   S    
C44   O18   S    
C46   O21   D    
C10   H1    S    
C33   C34   A    
C16   H5    S    
Cu2   O6    S    
C37   H15   S    
C38   H16   S    
C40   C41   S    
C46   O22   S    
C12   O3    A    
S2    O13   D    
C43   O16   S    
C21   N2    A    
C22   C24   A    
C37   S2    S    
Cu2   N2    S    
C3    H22   S    
C3    C4    A    
C21   H7    S    
C22   H8    S    
S1    O11   S    
C11   C17   A    
Cu1   O3    S    
C30   C33   A    
C14   C19   A    
O11   H23   S    
C4    C26   S    
C45   O20   S    
C6    C7    A    
S2    O14   S    
C21   C30   A    
C9    C46   S    
C1    O2    A    
C38   C43   S    
C36   C38   S    
C24   C31   A    
C37   C39   S    
C11   C13   A    
C2    C42   S    
C23   H9    S    
C28   C30   A    
C26   O6    A    
Cu2   O4    S    
C23   C25   A    
C31   H10   S    
C37   C41   S    
C22   N1    A    
C10   C11   A    
C2    C40   S    
C7    C13   A    
Cu1   N1    S    
S2    O12   D    
C27   C28   A    
C14   C15   A    
O16   H25   S    
C25   C32   A    
