data_mof_unit_62515.cif
_audit_creation_date              2012-12-11T17:25:12-0500
_audit_creation_method            fapswitch 2.2
_symmetry_space_group_name_H-M    P1
_symmetry_Int_Tables_number       1
_space_group_crystal_system       triclinic
_cell_length_a                    8.282472
_cell_length_b                    16.445961
_cell_length_c                    19.123889
_cell_angle_alpha                 100.323451
_cell_angle_beta                  91.769089
_cell_angle_gamma                 93.476615
_cell_volume                      2555.7290992

loop_
_atom_site_label
_atom_site_type_symbol
_atom_type_description
_atom_site_fract_x
_atom_site_fract_y
_atom_site_fract_z
_atom_type_partial_charge
Ba1   Ba    Ba6+2 0.846140 0.535590 0.465350 1.732357
Ba2   Ba    Ba6+2 0.343680 0.464470 0.534650 1.732897
C1    C     C_3   0.660493 0.833001 0.295577 0.002247
C2    C     C_3   0.633374 0.747309 0.314708 0.361436
C3    C     C_3   0.699184 0.218649 0.335162 0.264737
C4    C     C_3   0.671382 0.126146 0.306678 -0.336442
C5    C     C_3   0.109116 0.301448 0.731222 0.342090
C6    C     C_3   0.133353 0.280849 0.805131 -0.325594
C7    C     C_3   0.577215 0.250856 0.692333 0.346217
C8    C     C_3   0.548165 0.168220 0.716542 -0.324880
C9    C     C_R   0.054652 0.551468 0.803142 -0.138068
C10   C     C_R   0.015499 0.534464 0.729376 0.011216
C11   C     C_R   0.852641 0.444546 0.819292 -0.161564
C12   C     C_3   0.096159 0.720267 0.276141 0.286236
C13   C     C_R   0.789106 0.444809 0.750397 0.005231
C14   C     C_R   0.339952 0.573687 0.187712 -0.195355
C15   C     C_R   0.413029 0.550348 0.247019 0.017211
C16   C     C_R   0.098464 0.489043 0.202955 -0.102482
C17   C     C_R   0.168974 0.471533 0.267868 -0.027087
C18   C     C_R   0.979416 0.503471 0.850299 0.007152
C19   C     C_R   0.880200 0.482452 0.704232 -0.234677
C20   C     C_R   0.184557 0.540013 0.159207 0.005604
C21   C     C_R   0.332058 0.494057 0.281472 -0.070755
C22   C     C_R   0.740951 0.499260 0.966848 -0.058336
C23   C     C_3   0.060632 0.749578 0.206509 -0.295054
C24   C     C_R   0.631020 0.488670 0.018303 -0.066849
C25   C     C_R   0.678625 0.511106 0.089099 -0.010551
C26   C     C_R   0.836920 0.541204 0.108076 -0.044815
C27   C     C_R   0.957532 0.532621 0.058767 0.030145
C28   C     C_R   0.908955 0.515152 0.984236 0.064084
C29   C     C_R   0.120831 0.552838 0.083504 -0.000072
C30   C     C_R   0.222306 0.577892 0.031018 -0.002832
C31   C     C_R   0.187599 0.545794 0.957158 0.035875
C32   C     C_R   0.026611 0.517680 0.930929 0.010210
C33   C     C_R   0.344926 0.642755 0.047072 -0.096149
C34   C     C_3   0.059570 0.737038 0.680481 0.407930
C35   C     C_R   0.457753 0.656421 0.997009 0.316004
C36   C     C_R   0.447419 0.606421 0.930107 -0.097787
C37   C     C_R   0.315796 0.549117 0.911211 -0.156464
C38   C     C_R   0.377972 0.731611 0.476064 -0.250032
C39   C     C_R   0.524662 0.760309 0.511633 0.032621
C40   C     C_R   0.579364 0.843812 0.518593 -0.124251
C41   C     C_R   0.484978 0.899482 0.489616 0.256189
C42   C     C_R   0.334523 0.869653 0.455339 -0.129370
C43   C     C_R   0.281241 0.785974 0.449217 0.005152
C44   C     C_R   0.614033 0.148281 0.500301 -0.144902
C45   C     C_3   0.024416 0.760901 0.758991 -0.354226
C46   C     C_R   0.665894 0.231129 0.502856 -0.052152
C47   C     C_R   0.713907 0.094802 0.529442 0.257676
C48   C     C_R   0.814134 0.262437 0.535503 -0.263925
C49   C     C_R   0.916823 0.210860 0.562828 0.003593
C50   C     C_R   0.866774 0.127058 0.560504 -0.158977
C51   C     C_3   0.101116 0.274749 0.262173 0.394896
C52   C     C_3   0.981022 0.265225 0.198075 0.045612
C53   C     C_3   0.657422 0.645983 0.680689 0.383567
C54   C     C_3   0.621062 0.667629 0.759009 -0.328145
H1    H     H_    0.702046 0.747416 0.365537 0.054629
H2    H     H_    0.136722 0.787352 0.790156 0.155120
H3    H     H_    0.932481 0.807753 0.765940 0.129903
H4    H     H_    0.977153 0.706036 0.779869 0.051333
H5    H     H_    0.214131 0.308837 0.251425 0.046952
H6    H     H_    0.897761 0.209166 0.195291 0.101945
H7    H     H_    0.907189 0.319829 0.202132 0.058054
H8    H     H_    0.778868 0.622839 0.675815 -0.145923
H9    H     H_    0.571817 0.594333 0.656139 0.108547
H10   H     H_    0.636150 0.880821 0.342212 0.039731
H11   H     H_    0.689546 0.725806 0.784733 0.126574
H12   H     H_    0.656532 0.616790 0.786070 0.061307
H13   H     H_    0.489841 0.675855 0.765062 0.136174
H14   H     H_    0.502127 0.736444 0.323066 -0.093172
H15   H     H_    0.739183 0.249355 0.291241 0.080444
H16   H     H_    0.799091 0.229247 0.376670 0.005419
H17   H     H_    0.579377 0.114896 0.261927 0.180981
H18   H     H_    0.786147 0.100750 0.287186 0.120991
H19   H     H_    0.628623 0.093433 0.349279 0.117482
H20   H     H_    0.787238 0.844013 0.280787 0.134667
H21   H     H_    0.105172 0.815388 0.210743 0.170593
H22   H     H_    0.171950 0.363006 0.730611 0.079200
H23   H     H_    0.977278 0.303998 0.720444 -0.067164
H24   H     H_    0.263931 0.276547 0.817653 0.160617
H25   H     H_    0.086697 0.329908 0.845563 0.075710
H26   H     H_    0.067201 0.220771 0.807818 0.129929
H27   H     H_    0.709910 0.262652 0.688729 -0.076353
H28   H     H_    0.516988 0.246375 0.638977 0.077501
H29   H     H_    0.598565 0.118399 0.678025 0.087370
H30   H     H_    0.416473 0.153248 0.719892 0.162736
H31   H     H_    0.041463 0.656110 0.272004 0.056600
H32   H     H_    0.608587 0.170942 0.769646 0.123600
H33   H     H_    0.143644 0.601829 0.822385 0.074953
H34   H     H_    0.796645 0.401277 0.849109 0.080449
H35   H     H_    0.416829 0.613357 0.163408 0.093300
H36   H     H_    0.981323 0.459002 0.185953 0.110836
H37   H     H_    0.839343 0.475568 0.649057 0.057667
H38   H     H_    0.687821 0.498275 0.915019 0.070419
H39   H     H_    0.505370 0.469957 0.003445 0.089529
H40   H     H_    0.590789 0.508358 0.128620 0.083939
H41   H     H_    0.229498 0.721285 0.284910 -0.014045
H42   H     H_    0.867603 0.574643 0.160715 0.112496
H43   H     H_    0.346661 0.687541 0.095702 0.126290
H44   H     H_    0.539513 0.613003 0.892502 0.105104
H45   H     H_    0.309932 0.510503 0.859512 0.139610
H46   H     H_    0.499595 0.125396 0.472800 0.125063
H47   H     H_    0.258363 0.911704 0.434406 0.107054
H48   H     H_    0.693301 0.864904 0.547282 0.129990
H49   H     H_    0.947161 0.086861 0.581445 0.107904
H50   H     H_    0.335262 0.667402 0.472331 0.082620
H51   H     H_    0.121547 0.711796 0.162767 0.074710
H52   H     H_    0.854308 0.326195 0.535027 0.068693
H53   H     H_    0.928631 0.743566 0.193323 0.167461
H54   H     H_    0.953201 0.709090 0.647765 0.066209
N1    N     N_2   0.533551 0.985294 0.494774 -0.227821
N2    N     N_2   0.668265 0.008655 0.525683 -0.222440
O1    O     O_2   0.886430 0.442790 0.326210 -0.433787
O2    O     O_3   0.648808 0.716925 0.649342 -0.623926
O3    O     O_3   0.027930 0.773619 0.331085 -0.602408
O4    O     O_2   0.303270 0.557240 0.673830 -0.457861
O5    O     O_3   0.056430 0.549930 0.585140 -0.475520
O6    O     O_3   0.547120 0.406930 0.630200 -0.489862
O7    O     O_3   0.189752 0.686526 0.671451 -0.598900
O8    O     O_3   0.631540 0.400000 0.463730 -0.441354
O9    O     O_3   0.134620 0.362690 0.594370 -0.486565
O10   O     O_2   0.250207 0.215410 0.547999 -0.473741
O11   O     O_3   0.174189 0.240230 0.681191 -0.594160
O12   O     O_3   0.133270 0.450140 0.414870 -0.439843
O13   O     O_3   0.558160 0.600070 0.536280 -0.492628
O14   O     O_2   0.381490 0.299900 0.465440 -0.397253
O15   O     O_3   0.552058 0.251190 0.356970 -0.579296
O16   O     O_2   0.460602 0.471110 0.757172 -0.511314
O17   O     O_3   0.511838 0.313320 0.741114 -0.589403
O18   O     O_3   0.642580 0.593140 0.369810 -0.461548
O19   O     O_2   0.743268 0.526901 0.249264 -0.491082
O20   O     O_3   0.031182 0.311488 0.325619 -0.639801
O21   O     O_3   0.688455 0.686334 0.260846 -0.601756
O22   O     O_2   0.808210 0.700130 0.534600 -0.454289
O23   O     O_3   0.055070 0.637380 0.405640 -0.491899
O24   O     O_2   0.952204 0.785579 0.461945 -0.455041
P1    P     P_3+3 0.058810 0.419740 0.337290 1.031508
P2    P     P_3+3 0.634670 0.689830 0.556010 1.021145
P3    P     P_3+3 0.079951 0.745488 0.412224 0.981025
P4    P     P_3+3 0.130890 0.580330 0.662710 0.988808
P5    P     P_3+3 0.119400 0.256112 0.595862 0.984547
P6    P     P_3+3 0.621279 0.589687 0.279108 0.963579
P7    P     P_3+3 0.564397 0.293969 0.447728 1.042095
P8    P     P_3+3 0.578491 0.409003 0.721053 0.926237
I1    I     I_    0.173679 0.155797 0.276208 -0.355810
Br1   Br    Br    0.094028 0.255895 0.109849 -0.538421
I2    I     I_    0.500696 0.847339 0.209632 -0.385733
I3    I     I_    0.471161 0.416083 0.326915 -0.284181
Br2   Br    Br    0.631283 0.739640 0.021048 -0.528351
I4    I     I_    0.126777 0.847393 0.641053 -0.431085

loop_
_geom_bond_atom_site_label_1
_geom_bond_atom_site_label_2
_ccdc_geom_bond_type
C53   C54   S    
C8    H29   S    
C1    I2    S    
C11   H34   S    
C39   C40   A    
N1    N2    D    
C2    H14   S    
Ba2   O6    S    
C5    C6    S    
O17   P8    S    
C51   C52   S    
O23   P3    S    
C44   H46   S    
C44   C47   A    
C8    H32   S    
O21   P6    S    
C31   C37   A    
Ba1   O1    S    
C4    H17   S    
C6    H26   S    
O7    P4    S    
C38   H50   S    
C26   C27   A    
C33   C35   A    
C35   C36   A    
C22   C24   A    
C12   H31   S    
C16   C17   A    
C3    H16   S    
O6    P8    S    
C3    C4    S    
C52   H7    S    
C12   O3    S    
O14   P7    D    
C43   P3    S    
C34   C45   S    
Ba1   Ba2   S    
C34   O7    S    
C45   H4    S    
C51   H5    S    
C42   H47   S    
C14   C15   A    
C2    H1    S    
C10   P4    S    
C37   H45   S    
C7    C8    S    
C23   H53   S    
C52   Br1   S    
C18   C32   S    
C46   C48   A    
C48   H52   S    
C3    O15   S    
C25   H40   S    
O8    P7    S    
C41   N1    S    
O24   P3    D    
C33   H43   S    
C53   H9    S    
Ba2   O5    S    
C4    H18   S    
C49   P5    S    
C38   C43   A    
C44   C46   A    
C9    C18   A    
C20   C29   S    
C28   C32   A    
C6    H25   S    
C30   C33   A    
O9    P5    S    
O12   P1    S    
C4    H19   S    
C36   H44   S    
Ba1   O18   S    
C5    O11   S    
Ba2   O8    S    
O15   P7    S    
C52   H6    S    
O20   P1    S    
C54   H12   S    
C10   C19   A    
C49   C50   A    
C46   P7    S    
C15   P6    S    
Ba1   O8    S    
C17   C21   A    
C41   C42   A    
C5    H22   S    
C27   C28   A    
C22   H38   S    
C9    H33   S    
C29   C30   A    
C15   C21   A    
C17   P1    S    
C47   C50   A    
C53   H8    S    
O11   P5    S    
C51   I1    S    
C48   C49   A    
C24   C25   A    
C51   O20   S    
Ba1   O5    S    
C1    H20   S    
O16   P8    D    
C39   P2    S    
O19   P6    D    
C7    H27   S    
C47   N2    S    
Ba2   O14   S    
C38   C39   A    
O3    P3    S    
C50   H49   S    
Ba2   O12   S    
C11   C13   A    
C34   H54   S    
C23   H21   S    
O5    P4    S    
C40   C41   A    
Ba1   O22   S    
Ba1   P1    S    
C42   C43   A    
C23   H51   S    
C12   H41   S    
C5    H23   S    
Ba2   O9    S    
C26   H42   S    
C24   H39   S    
C8    H30   S    
C14   C20   A    
C11   C18   A    
C16   C20   A    
C35   Br2   S    
C40   H48   S    
O22   P2    D    
C9    C10   A    
C53   O2    S    
C7    O17   S    
O13   P2    S    
C54   H11   S    
C21   I3    S    
Ba1   O13   S    
O1    P1    D    
Ba2   P4    S    
C30   C31   A    
Ba1   O12   S    
C16   H36   S    
C27   C29   A    
C45   H2    S    
C34   I4    S    
C36   C37   A    
C19   H37   S    
C31   C32   A    
Ba2   O4    S    
O2    P2    S    
C12   C23   S    
O18   P6    S    
C22   C28   A    
C7    H28   S    
C45   H3    S    
C13   P8    S    
C1    H10   S    
Ba2   O13   S    
C13   C19   A    
C14   H35   S    
C3    H15   S    
C54   H13   S    
C25   C26   A    
C6    H24   S    
O10   P5    D    
Ba1   O23   S    
Ba1   P2    S    
C1    C2    S    
C2    O21   S    
O4    P4    D    
