data_mof_unit_12095.cif
_audit_creation_date              2013-03-05T15:49:09-0500
_audit_creation_method            fapswitch 2.2
_symmetry_space_group_name_H-M    P1
_symmetry_Int_Tables_number       1
_space_group_crystal_system       triclinic
_cell_length_a                    22.373717
_cell_length_b                    12.981428
_cell_length_c                    27.522025
_cell_angle_alpha                 90.091139
_cell_angle_beta                  90.29267
_cell_angle_gamma                 89.899997
_cell_volume                      7993.44744132

loop_
_atom_site_label
_atom_site_type_symbol
_atom_site_description
_atom_site_fract_x
_atom_site_fract_y
_atom_site_fract_z
_atom_type_partial_charge
O1    O     O_R   0.769900 0.064540 0.196060 -0.522927
O2    O     O_R   0.230100 0.064540 0.803940 -0.523406
O3    O     O_R   0.269900 0.564540 0.196060 -0.523980
O4    O     O_R   0.730100 0.564540 0.803940 -0.524936
O5    O     O_R   0.750800 0.274080 0.199250 -0.499983
O6    O     O_R   0.249200 0.274080 0.800750 -0.501126
O7    O     O_R   0.250800 0.774080 0.199250 -0.503656
O8    O     O_R   0.749200 0.774080 0.800750 -0.501731
C1    C     C_R   0.718971 0.341174 0.177115 0.548470
C2    C     C_R   0.280867 0.341362 0.822736 0.547617
C3    C     C_R   0.219264 0.841728 0.177220 0.545098
C4    C     C_R   0.783281 0.835411 0.824266 0.550950
O9    O     O_R   0.669990 0.371670 0.194150 -0.523210
O10   O     O_R   0.330010 0.371670 0.805850 -0.522609
O11   O     O_R   0.169990 0.871670 0.194150 -0.523346
O12   O     O_R   0.830010 0.871670 0.805850 -0.521491
O13   O     O_R   0.574600 0.238480 0.197800 -0.504091
O14   O     O_R   0.425400 0.238480 0.802200 -0.498980
O15   O     O_R   0.074600 0.738480 0.197800 -0.504533
O16   O     O_R   0.925400 0.738480 0.802200 -0.506171
C5    C     C_R   0.558654 0.156407 0.175392 0.549818
C6    C     C_R   0.442208 0.156626 0.824298 0.554982
C7    C     C_R   0.057477 0.656626 0.175826 0.548049
C8    C     C_R   0.940984 0.656416 0.824750 0.548868
O17   O     O_R   0.566130 0.068680 0.194240 -0.518298
O18   O     O_R   0.433870 0.068680 0.805760 -0.514620
O19   O     O_R   0.066130 0.568680 0.194240 -0.517299
O20   O     O_R   0.933870 0.568680 0.805760 -0.516272
O21   O     O_R   0.680610 0.992490 0.199570 -0.500006
O22   O     O_R   0.319390 0.992490 0.800430 -0.499316
O23   O     O_R   0.180610 0.492490 0.199570 -0.501181
O24   O     O_R   0.819390 0.492490 0.800430 -0.503267
C9    C     C_R   0.730513 0.006154 0.178464 0.547359
C10   C     C_R   0.270025 0.008308 0.822098 0.546969
C11   C     C_R   0.229868 0.508783 0.177780 0.544430
C12   C     C_R   0.769606 0.506420 0.821666 0.542523
O25   O     O_R   0.770060 0.065440 0.307230 -0.508580
O26   O     O_R   0.229940 0.065440 0.692770 -0.502631
O27   O     O_R   0.270060 0.565440 0.307230 -0.495692
O28   O     O_R   0.729940 0.565440 0.692770 -0.504271
O29   O     O_R   0.750960 0.274920 0.302300 -0.442747
O30   O     O_R   0.249040 0.274920 0.697700 -0.441810
O31   O     O_R   0.250960 0.774920 0.302300 -0.440581
O32   O     O_R   0.749040 0.774920 0.697700 -0.438289
C13   C     C_R   0.720322 0.346073 0.322138 0.565373
C14   C     C_R   0.280251 0.343282 0.677306 0.553710
C15   C     C_R   0.219176 0.841386 0.323334 0.559843
C16   C     C_R   0.781219 0.841281 0.676563 0.566627
O33   O     O_R   0.670160 0.372580 0.305320 -0.528584
O34   O     O_R   0.329840 0.372580 0.694680 -0.536574
O35   O     O_R   0.170160 0.872580 0.305320 -0.526587
O36   O     O_R   0.829840 0.872580 0.694680 -0.529510
O37   O     O_R   0.574760 0.239320 0.300850 -0.504031
O38   O     O_R   0.425240 0.239320 0.699150 -0.495367
O39   O     O_R   0.074760 0.739320 0.300850 -0.509584
O40   O     O_R   0.925240 0.739320 0.699150 -0.505878
C17   C     C_R   0.558455 0.157562 0.323550 0.542772
C18   C     C_R   0.418265 0.154578 0.673459 0.544560
C19   C     C_R   0.055845 0.658116 0.322177 0.542134
C20   C     C_R   0.940503 0.657648 0.676137 0.544102
O41   O     O_R   0.566290 0.069580 0.305400 -0.508916
O42   O     O_R   0.433710 0.069580 0.694600 -0.487791
O43   O     O_R   0.066290 0.569580 0.305400 -0.491260
O44   O     O_R   0.933710 0.569580 0.694600 -0.496560
O45   O     O_R   0.680760 0.993330 0.302620 -0.452136
O46   O     O_R   0.319240 0.993330 0.697380 -0.458797
O47   O     O_R   0.180760 0.493330 0.302620 -0.440173
O48   O     O_R   0.819240 0.493330 0.697380 -0.445634
C21   C     C_R   0.730331 0.007636 0.324410 0.573889
C22   C     C_R   0.269390 0.005279 0.676058 0.562646
C23   C     C_R   0.229299 0.509068 0.324869 0.564713
C24   C     C_R   0.769600 0.504884 0.675825 0.561532
Cr1   Cr    Cr6+3 0.756570 0.170940 0.251190 1.090235
Cr2   Cr    Cr6+3 0.243430 0.170940 0.748810 1.085487
Cr3   Cr    Cr6+3 0.256570 0.670940 0.251190 1.089278
Cr4   Cr    Cr6+3 0.743430 0.670940 0.748810 1.090245
Cr5   Cr    Cr6+3 0.623740 0.299110 0.249580 1.032104
Cr6   Cr    Cr6+3 0.376260 0.299110 0.750420 1.031735
Cr7   Cr    Cr6+3 0.123740 0.799110 0.249580 1.030355
Cr8   Cr    Cr6+3 0.876260 0.799110 0.750420 1.032743
Cr9   Cr    Cr6+3 0.625990 0.036240 0.250480 1.076732
Cr10  Cr    Cr6+3 0.374010 0.036240 0.749520 1.082129
Cr11  Cr    Cr6+3 0.125990 0.536240 0.250480 1.090377
Cr12  Cr    Cr6+3 0.874010 0.536240 0.749520 1.084929
O49   O     O_3   0.668770 0.168760 0.250420 -0.280390
O50   O     O_3   0.331230 0.168760 0.749580 -0.298916
O51   O     O_3   0.168770 0.668760 0.250420 -0.280703
O52   O     O_3   0.831230 0.668760 0.749580 -0.284194
C25   C     C_R   0.532544 0.067065 0.098133 -0.128061
C26   C     C_R   0.474583 0.067667 0.900033 -0.128675
C27   C     C_R   0.021621 0.567891 0.100808 -0.128073
C28   C     C_R   0.963411 0.567262 0.902716 -0.126109
C29   C     C_R   0.518485 0.066892 0.048750 0.012966
C30   C     C_R   0.489287 0.067216 0.949291 0.012644
C31   C     C_R   0.006444 0.567439 0.051597 0.012956
C32   C     C_R   0.977111 0.567153 0.952169 0.013732
C33   C     C_R   0.498753 0.973819 0.973856 -0.135238
C34   C     C_R   0.513592 0.973668 0.023082 -0.134932
C35   C     C_R   0.979310 0.474091 0.978234 -0.135434
C36   C     C_R   0.994234 0.474171 0.027467 -0.135492
H1    H     H_    0.469187 0.994455 0.881461 0.132410
H2    H     H_    0.541088 0.993943 0.115939 0.130579
H3    H     H_    0.952970 0.494341 0.885238 0.129494
H4    H     H_    0.025210 0.494665 0.119676 0.132677
H5    H     H_    0.494709 0.900832 0.954870 0.100936
H6    H     H_    0.521044 0.900571 0.041219 0.100231
H7    H     H_    0.969843 0.401134 0.960405 0.099136
H8    H     H_    0.996314 0.401227 0.046718 0.100985
C37   C     C_R   0.464735 0.160873 0.874934 -0.004719
C38   C     C_R   0.537564 0.160164 0.124364 -0.003312
C39   C     C_R   0.961311 0.660113 0.876011 -0.002646
C40   C     C_R   0.034248 0.661009 0.125394 -0.003096
C41   C     C_R   0.529962 0.254238 0.099651 -0.135250
C42   C     C_R   0.468718 0.254668 0.900596 -0.133299
C43   C     C_R   0.032428 0.754544 0.099385 -0.132758
C44   C     C_R   0.971252 0.754253 0.900316 -0.136549
C45   C     C_R   0.514977 0.255267 0.050018 0.015436
C46   C     C_R   0.484142 0.255493 0.950148 0.015764
C47   C     C_R   0.016726 0.755424 0.049900 0.016085
C48   C     C_R   0.985892 0.755320 0.950046 0.015908
C49   C     C_R   0.509182 0.161242 0.024413 0.064497
C50   C     C_R   0.494372 0.161394 0.974669 0.064269
C51   C     C_R   0.003822 0.661510 0.025825 0.064145
C52   C     C_R   0.988969 0.661383 0.976091 0.064736
C53   C     C_R   0.505506 0.348476 0.025216 -0.134404
C54   C     C_R   0.489402 0.348542 0.976003 -0.132083
C55   C     C_R   0.013973 0.848350 0.023683 -0.133576
C56   C     C_R   0.997879 0.848424 0.974453 -0.136818
H9    H     H_    0.458720 0.326627 0.882253 0.126305
H10   H     H_    0.536371 0.326370 0.118906 0.121565
H11   H     H_    0.967223 0.826428 0.880647 0.119251
H12   H     H_    0.044554 0.826205 0.117331 0.125172
H13   H     H_    0.481320 0.421477 0.957976 0.102143
H14   H     H_    0.510100 0.421379 0.044120 0.100695
H15   H     H_    0.995348 0.921316 0.955255 0.100234
H16   H     H_    0.024115 0.921102 0.041392 0.100255
C57   C     C_R   0.739945 0.967591 0.129084 0.027174
C58   C     C_R   0.261148 0.972901 0.872028 0.027172
C59   C     C_R   0.237479 0.478444 0.126946 0.028292
C60   C     C_R   0.761604 0.472436 0.872028 0.027387
C61   C     C_R   0.791585 0.996632 0.104095 -0.121559
C62   C     C_R   0.210236 0.005861 0.897411 -0.125489
C63   C     C_R   0.285477 0.519912 0.100477 -0.121938
C64   C     C_R   0.711036 0.505412 0.897656 -0.121689
C65   C     C_R   0.798742 0.971150 0.055621 -0.113910
C66   C     C_R   0.202495 0.979703 0.945736 -0.116556
C67   C     C_R   0.292377 0.497102 0.051689 -0.115539
C68   C     C_R   0.706196 0.487457 0.947087 -0.113712
C69   C     C_R   0.753981 0.916631 0.029807 0.043905
C70   C     C_R   0.247551 0.924774 0.971568 0.044598
C71   C     C_R   0.248951 0.436392 0.026606 0.045594
C72   C     C_R   0.751964 0.435645 0.973129 0.044549
C73   C     C_R   0.701842 0.888682 0.055513 -0.111316
C74   C     C_R   0.299506 0.894523 0.945706 -0.112858
C75   C     C_R   0.199175 0.399163 0.053515 -0.112124
C76   C     C_R   0.803037 0.403834 0.946806 -0.111029
C77   C     C_R   0.694825 0.914609 0.104294 -0.126090
C78   C     C_R   0.305892 0.917932 0.896602 -0.126893
C79   C     C_R   0.193837 0.419890 0.102977 -0.127425
C80   C     C_R   0.807860 0.422697 0.897104 -0.126593
C81   C     C_R   0.715930 0.840714 0.949675 -0.110902
C82   C     C_R   0.279894 0.831969 0.049295 -0.111208
C83   C     C_R   0.219757 0.335980 0.950028 -0.111491
C84   C     C_R   0.791355 0.363208 0.053718 -0.110606
C85   C     C_R   0.722333 0.822057 0.899987 -0.127600
C86   C     C_R   0.274827 0.814789 0.099230 -0.125782
C87   C     C_R   0.225719 0.315519 0.900478 -0.125716
C88   C     C_R   0.783927 0.340605 0.103015 -0.127685
C89   C     C_R   0.819452 0.902502 0.902633 -0.119508
C90   C     C_R   0.189994 0.930665 0.101622 -0.122377
C91   C     C_R   0.304646 0.443149 0.895882 -0.122104
C92   C     C_R   0.686829 0.422097 0.100451 -0.118244
C93   C     C_R   0.813702 0.919995 0.951888 -0.113482
C94   C     C_R   0.195815 0.950583 0.052572 -0.115498
C95   C     C_R   0.297787 0.466514 0.944495 -0.114994
C96   C     C_R   0.693606 0.443362 0.051668 -0.114365
C97   C     C_R   0.761202 0.891799 0.976759 0.043733
C98   C     C_R   0.241007 0.901793 0.024850 0.045032
C99   C     C_R   0.255363 0.412843 0.973288 0.045194
C100  C     C_R   0.745956 0.414396 0.026666 0.043707
C101  C     C_R   0.773113 0.857065 0.875788 0.026523
C102  C     C_R   0.230612 0.866117 0.125961 0.028322
C103  C     C_R   0.267612 0.370399 0.872936 0.028236
C104  C     C_R   0.731911 0.371566 0.126895 0.027876
H17   H     H_    0.826262 0.042058 0.121571 0.132643
H18   H     H_    0.176132 0.053547 0.880210 0.128096
H19   H     H_    0.318104 0.571389 0.117224 0.125733
H20   H     H_    0.675530 0.548573 0.879915 0.130799
H21   H     H_    0.674842 0.814922 0.965625 0.095104
H22   H     H_    0.314392 0.788766 0.030801 0.093202
H23   H     H_    0.187446 0.288955 0.969145 0.095279
H24   H     H_    0.832941 0.339064 0.037840 0.096394
H25   H     H_    0.687695 0.780192 0.880631 0.124288
H26   H     H_    0.304570 0.759529 0.116537 0.120165
H27   H     H_    0.199055 0.254138 0.884259 0.123888
H28   H     H_    0.818415 0.297756 0.122150 0.123837
H29   H     H_    0.839886 0.996753 0.039713 0.094830
H30   H     H_    0.160114 0.003464 0.961217 0.094027
H31   H     H_    0.333154 0.527686 0.035589 0.091710
H32   H     H_    0.665860 0.516279 0.963402 0.092871
H33   H     H_    0.851522 0.956620 0.968915 0.095716
H34   H     H_    0.164284 0.006361 0.038109 0.091253
H35   H     H_    0.326584 0.528350 0.957600 0.092464
H36   H     H_    0.656180 0.481932 0.034934 0.093039
H37   H     H_    0.861324 0.923726 0.885754 0.131212
H38   H     H_    0.152561 0.965876 0.120393 0.131622
H39   H     H_    0.340285 0.481918 0.876390 0.133047
H40   H     H_    0.644605 0.442989 0.116992 0.132459
H41   H     H_    0.665402 0.847295 0.038979 0.094611
H42   H     H_    0.336538 0.853755 0.962440 0.095455
H43   H     H_    0.163085 0.354087 0.037626 0.096248
H44   H     H_    0.840198 0.364403 0.963500 0.094544
H45   H     H_    0.653392 0.895082 0.122244 0.124925
H46   H     H_    0.346660 0.894907 0.878267 0.125408
H47   H     H_    0.154906 0.391098 0.122248 0.125694
H48   H     H_    0.848578 0.400421 0.878617 0.123336
C105  C     C_R   0.534407 0.160554 0.373467 0.021757
C106  C     C_R   0.432362 0.156807 0.620760 0.022053
C107  C     C_R   0.030988 0.662315 0.371544 0.025074
C108  C     C_R   0.961413 0.662898 0.625268 0.022266
C109  C     C_R   0.526884 0.253315 0.398914 -0.126592
C110  C     C_R   0.434731 0.250534 0.595081 -0.121398
C111  C     C_R   0.023400 0.755974 0.396123 -0.124984
C112  C     C_R   0.955124 0.754204 0.598453 -0.119961
C113  C     C_R   0.506004 0.252302 0.446732 -0.106844
C114  C     C_R   0.450316 0.250650 0.545820 -0.103402
C115  C     C_R   0.008130 0.756218 0.445310 -0.105185
C116  C     C_R   0.966544 0.754039 0.548657 -0.102473
C117  C     C_R   0.490723 0.158358 0.470387 0.041093
C118  C     C_R   0.466434 0.157157 0.521584 0.045491
C119  C     C_R   0.999164 0.662309 0.470961 0.043791
C120  C     C_R   0.984450 0.661848 0.524283 0.044677
C121  C     C_R   0.501110 0.065226 0.444591 -0.114836
C122  C     C_R   0.460799 0.062554 0.547589 -0.119076
C123  C     C_R   0.006464 0.568436 0.445152 -0.122047
C124  C     C_R   0.988655 0.569392 0.551923 -0.126283
C125  C     C_R   0.524179 0.066580 0.397933 -0.114388
C126  C     C_R   0.443164 0.062616 0.595982 -0.116683
C127  C     C_R   0.023024 0.568964 0.396816 -0.112904
C128  C     C_R   0.977296 0.570672 0.601383 -0.125100
H49   H     H_    0.538030 0.326796 0.382189 0.126452
H50   H     H_    0.425942 0.324237 0.613084 0.125704
H51   H     H_    0.031175 0.829118 0.377889 0.128309
H52   H     H_    0.940020 0.825670 0.615616 0.126837
H53   H     H_    0.471909 0.986766 0.533120 0.096631
H54   H     H_    0.491408 0.989161 0.458906 0.108521
H55   H     H_    0.001034 0.494143 0.537155 0.098920
H56   H     H_    0.000230 0.492258 0.460680 0.100071
H57   H     H_    0.441492 0.988277 0.614253 0.140463
H58   H     H_    0.534104 0.992447 0.381044 0.143807
H59   H     H_    0.980513 0.498233 0.620935 0.149424
H60   H     H_    0.031127 0.494699 0.379813 0.155574
H61   H     H_    0.502859 0.326566 0.464519 0.105008
H62   H     H_    0.450035 0.325544 0.528024 0.101768
H63   H     H_    0.005477 0.831302 0.462515 0.107000
H64   H     H_    0.959780 0.827218 0.530196 0.105256
C129  C     C_R   0.738167 0.974782 0.374830 0.012171
C130  C     C_R   0.262958 0.971490 0.625583 0.008943
C131  C     C_R   0.233826 0.477587 0.375680 0.008565
C132  C     C_R   0.764919 0.473136 0.624494 0.007280
C133  C     C_R   0.702272 0.898484 0.396707 -0.021249
C134  C     C_R   0.304546 0.904518 0.601973 -0.019033
C135  C     C_R   0.190107 0.415570 0.399802 -0.014072
C136  C     C_R   0.811938 0.422506 0.598810 -0.009076
C137  C     C_R   0.715310 0.869932 0.444964 -0.006668
C138  C     C_R   0.296702 0.885732 0.552012 -0.012294
C139  C     C_R   0.200327 0.391967 0.448964 -0.013620
C140  C     C_R   0.805792 0.409012 0.548024 -0.016866
C141  C     C_R   0.754439 0.931175 0.473912 0.027745
C142  C     C_R   0.251950 0.939811 0.524631 0.025491
C143  C     C_R   0.246022 0.442558 0.476379 0.030066
C144  C     C_R   0.758135 0.457359 0.521700 0.039130
C145  C     C_R   0.785710 0.012230 0.452320 -0.125063
C146  C     C_R   0.213708 0.008463 0.548624 -0.108744
C147  C     C_R   0.285113 0.508951 0.452064 -0.108870
C148  C     C_R   0.714263 0.510163 0.548341 -0.084756
C149  C     C_R   0.779057 0.031591 0.403355 -0.131477
C150  C     C_R   0.218250 0.022025 0.598090 -0.129473
C151  C     C_R   0.279956 0.524237 0.402827 -0.133135
C152  C     C_R   0.716306 0.513591 0.598387 -0.125585
C153  C     C_R   0.811959 0.939364 0.552312 -0.116242
C154  C     C_R   0.188411 0.933652 0.448630 -0.107968
C155  C     C_R   0.306566 0.448675 0.554204 -0.112398
C156  C     C_R   0.695204 0.458532 0.444745 -0.104315
C157  C     C_R   0.815195 0.921530 0.601648 -0.151232
C158  C     C_R   0.182919 0.908696 0.400044 -0.145647
C159  C     C_R   0.311355 0.428092 0.603104 -0.155951
C160  C     C_R   0.688352 0.431723 0.396540 -0.148863
C161  C     C_R   0.716257 0.841268 0.600351 0.208887
C162  C     C_R   0.286768 0.845713 0.398800 0.197447
C163  C     C_R   0.212573 0.347081 0.602738 0.200884
C164  C     C_R   0.791464 0.370221 0.393552 0.196920
C165  C     C_R   0.710516 0.876958 0.553021 -0.048942
C166  C     C_R   0.293435 0.894951 0.443239 -0.049222
C167  C     C_R   0.204759 0.391326 0.557652 -0.046436
C168  C     C_R   0.799746 0.418383 0.438237 -0.045729
C169  C     C_R   0.759452 0.915447 0.527043 0.025770
C170  C     C_R   0.244290 0.924011 0.471506 0.026970
C171  C     C_R   0.252874 0.427211 0.529797 0.026430
C172  C     C_R   0.751149 0.447162 0.467616 0.040317
C173  C     C_R   0.768508 0.870661 0.626485 -0.000287
C174  C     C_R   0.231446 0.865179 0.373924 -0.003586
C175  C     C_R   0.266002 0.374017 0.628074 -0.002947
C176  C     C_R   0.735351 0.384411 0.370395 -0.000233
H65   H     H_    0.850685 0.972545 0.534617 0.128319
H66   H     H_    0.149039 0.961837 0.467432 0.125690
H67   H     H_    0.344846 0.483722 0.536927 0.127826
H68   H     H_    0.655821 0.486955 0.463137 0.116426
H69   H     H_    0.856327 0.943677 0.619832 0.154034
H70   H     H_    0.139213 0.920627 0.383399 0.152096
H71   H     H_    0.352525 0.451504 0.620867 0.153032
H72   H     H_    0.644103 0.442371 0.380734 0.151304
H73   H     H_    0.667158 0.871075 0.535899 0.133611
H74   H     H_    0.338322 0.905137 0.456861 0.133402
H75   H     H_    0.159586 0.396383 0.544658 0.129761
H76   H     H_    0.845088 0.429190 0.450273 0.129424
H77   H     H_    0.815103 0.062438 0.472934 0.187896
H78   H     H_    0.179810 0.052828 0.529524 0.191885
H79   H     H_    0.320426 0.550724 0.470289 0.184811
H80   H     H_    0.677053 0.549292 0.531355 0.173714
H81   H     H_    0.804035 0.095814 0.388489 0.208327
H82   H     H_    0.187440 0.076109 0.614714 0.221420
H83   H     H_    0.311472 0.577278 0.386424 0.217817
H84   H     H_    0.680352 0.553532 0.616739 0.210139
C177  C     C_2   0.650743 0.847654 0.371483 0.239179
H85   H     H_    0.609140 0.835052 0.391064 0.076442
O53   O     O_2   0.654680 0.814654 0.329889 -0.464985
C178  C     C_2   0.356648 0.850501 0.626953 0.240694
H86   H     H_    0.394663 0.823122 0.605567 0.087962
O54   O     O_2   0.357866 0.829806 0.669727 -0.465970
C179  C     C_2   0.132425 0.373970 0.377577 0.244678
H87   H     H_    0.094463 0.354689 0.400914 0.079750
O55   O     O_2   0.126165 0.353212 0.334828 -0.457300
C180  C     C_2   0.868561 0.381617 0.622105 0.265953
H88   H     H_    0.909557 0.376153 0.600714 0.078986
O56   O     O_2   0.869933 0.345316 0.662927 -0.460218
C181  C     C_2   0.690642 0.771539 0.463135 0.221307
H89   H     H_    0.642518 0.758970 0.462520 0.090866
O57   O     O_2   0.723710 0.705656 0.480198 -0.495216
C182  C     C_2   0.334047 0.803446 0.529614 0.218689
H90   H     H_    0.382228 0.819691 0.523851 0.088441
O58   O     O_2   0.311304 0.721369 0.516877 -0.489447
C183  C     C_2   0.164360 0.308342 0.470037 0.220217
H91   H     H_    0.117256 0.322673 0.477547 0.089180
O59   O     O_2   0.187729 0.226680 0.481119 -0.485188
C184  C     C_2   0.847474 0.335671 0.524519 0.217661
H92   H     H_    0.893280 0.359993 0.516917 0.089066
O60   O     O_2   0.830771 0.248917 0.513433 -0.481441
N1    N     N_R   0.669863 0.773567 0.618396 0.073489
O61   O     O_R   0.639186 0.719192 0.587252 -0.384215
O62   O     O_R   0.648213 0.783594 0.661931 -0.305031
N2    N     N_R   0.336084 0.777469 0.384447 0.057833
O63   O     O_R   0.376182 0.752748 0.417413 -0.364042
O64   O     O_R   0.344216 0.740530 0.339525 -0.309115
N3    N     N_R   0.166449 0.275839 0.618924 0.061294
O65   O     O_R   0.132925 0.231686 0.585881 -0.364665
O66   O     O_R   0.149906 0.267019 0.663719 -0.305895
N4    N     N_R   0.838807 0.303392 0.376283 0.065487
O67   O     O_R   0.873913 0.259076 0.407678 -0.342893
O68   O     O_R   0.854374 0.300551 0.330598 -0.309669

loop_
_geom_bond_atom_site_label_1
_geom_bond_atom_site_label_2
_geom_bond_distance
_ccdc_geom_bond_type
O4    C12   1.258168 A    
O7    Cr3   1.963768 S    
O39   C19   1.280979 A    
C62   C66   1.384993 A    
C132  C136  1.429003 A    
Cr7   O51   1.967944 S    
C5    C38   1.480117 S    
C110  H50   1.094722 S    
C135  C139  1.405288 A    
C7    C40   1.480769 S    
C129  C133  1.413534 A    
C91   C103  1.404558 A    
C29   C49   1.411513 A    
C166  C170  1.401036 A    
O25   C21   1.258772 A    
C89   H37   1.084035 S    
C32   C35   1.406641 A    
C109  C113  1.398834 A    
C93   H33   1.076247 S    
C13   C176  1.455529 S    
C107  C127  1.410226 A    
C69   C73   1.415521 A    
O44   Cr12  2.069016 S    
C11   C59   1.463528 S    
C116  H64   1.087997 S    
C3    O11   1.259663 A    
C72   C76   1.416685 A    
C9    C57   1.463750 S    
C120  C124  1.424710 A    
C71   C75   1.426095 A    
C61   C65   1.384012 A    
C142  C170  1.485210 S    
C33   H5    1.084964 S    
O2    C10   1.254934 A    
C59   C79   1.400277 A    
Cr8   O52   1.970904 S    
O17   Cr9   2.084650 S    
C112  C116  1.395378 A    
C181  H89   1.089327 S    
O9    Cr5   2.075910 S    
O31   Cr3   1.952327 S    
O16   Cr8   1.960530 S    
C84   C88   1.399380 A    
C55   H16   1.085862 S    
C56   H15   1.085739 S    
C68   H32   1.076322 S    
C135  C179  1.524666 S    
C30   C33   1.404338 A    
C161  C165  1.388517 A    
O28   Cr4   2.082186 S    
O12   Cr8   2.072069 S    
C72   C100  1.506217 S    
C163  C167  1.378366 A    
C117  C118  1.512905 S    
O46   Cr10  1.962908 S    
C71   C99   1.505964 S    
C4    C101  1.464004 S    
C76   C80   1.394778 A    
O48   C24   1.265274 A    
C6    C37   1.480500 S    
N2    O63   1.312500 A    
C30   C50   1.411536 A    
C178  O54   1.208078 D    
C106  C126  1.420047 A    
C81   C97   1.419313 A    
C82   H22   1.082096 S    
C8    O20   1.262360 A    
C90   C94   1.381727 A    
C87   H27   1.089899 S    
C146  H78   1.085636 S    
Cr12  O52   1.967186 S    
C182  O58   1.231231 D    
C161  N1    1.451323 S    
C95   C99   1.423406 A    
C28   C39   1.413335 A    
C17   O41   1.258212 A    
C47   C51   1.416116 A    
C19   O43   1.259857 A    
C34   H6    1.085122 S    
C20   O44   1.261573 A    
C20   C108  1.480087 S    
C74   H42   1.083529 S    
C1    C104  1.468337 S    
O46   C22   1.267027 A    
C157  H69   1.084339 S    
C118  C122  1.428491 A    
C153  H65   1.086148 S    
C152  H84   1.082991 S    
C95   H35   1.089993 S    
C155  C171  1.401516 A    
C16   O36   1.261907 A    
C128  H59   1.086275 S    
C113  H61   1.082865 S    
C22   C130  1.462573 S    
C74   C78   1.393767 A    
O27   C23   1.269190 A    
C108  C128  1.410733 A    
O31   C15   1.259264 A    
C81   C85   1.396459 A    
O32   C16   1.267638 A    
C131  C135  1.434145 A    
C115  C119  1.424722 A    
O47   Cr11  1.962991 S    
N1    O61   1.302988 A    
O21   C9    1.274009 A    
C131  C151  1.408199 A    
C86   C102  1.402630 A    
C33   C34   1.393250 A    
C51   C52   1.406895 A    
C109  H49   1.089674 S    
O24   C12   1.273015 A    
C122  H53   1.089596 S    
C122  C126  1.391013 A    
C111  C115  1.397838 A    
C23   C131  1.460525 S    
C28   C32   1.393622 A    
C164  N4    1.449515 S    
C46   C50   1.414226 A    
C177  O53   1.225184 D    
C14   C175  1.446924 S    
C1    O9    1.257240 A    
C59   C63   1.408905 A    
C150  H82   1.085332 S    
C140  C144  1.430710 A    
O27   Cr3   2.084720 S    
O3    Cr3   2.072538 S    
Cr5   O49   1.967944 S    
C66   C70   1.421930 A    
C90   C102  1.403434 A    
C136  C180  1.512673 S    
C130  C134  1.430195 A    
C117  C121  1.420443 A    
C163  N3    1.458777 S    
C134  C178  1.521099 S    
C43   H12   1.086750 S    
C36   H8    1.086630 S    
C79   H47   1.089122 S    
C41   H10   1.084579 S    
O22   C10   1.274072 A    
C75   C79   1.392898 A    
C4    O12   1.256748 A    
C164  C168  1.390425 A    
C16   C173  1.457143 S    
C2    O10   1.259771 A    
C111  H51   1.089352 S    
C180  H88   1.094572 S    
C114  C118  1.430493 A    
C25   C38   1.411119 A    
C10   C58   1.464296 S    
C44   C48   1.405734 A    
C157  C173  1.416182 A    
C27   C40   1.412628 A    
C66   H30   1.085574 S    
C67   C71   1.426811 A    
O5    C1    1.277486 A    
C179  O55   1.214050 D    
C58   C78   1.400328 A    
C184  O60   1.224855 D    
O3    C11   1.255277 A    
O8    C4    1.276565 A    
N4    O68   1.306847 A    
Cr1   O49   1.964669 S    
C37   C42   1.409359 A    
C41   C45   1.404957 A    
Cr3   O51   1.964669 S    
N3    O66   1.294338 A    
C43   C47   1.404823 A    
C183  O59   1.219689 D    
C83   C99   1.426728 A    
C125  H58   1.091046 S    
C91   H39   1.087889 S    
C105  C125  1.413901 A    
C123  H56   1.087406 S    
C21   C129  1.461967 S    
O26   Cr2   2.082186 S    
C31   C51   1.414162 A    
C94   C98   1.417663 A    
O29   C13   1.273250 A    
O28   C24   1.274142 A    
C127  H60   1.086311 S    
O14   C6    1.280113 A    
C68   C72   1.416434 A    
C178  H86   1.095252 S    
C24   C132  1.474251 S    
C78   H46   1.085918 S    
O40   Cr8   1.950321 S    
C57   C77   1.396974 A    
C145  C149  1.378508 A    
C148  C152  1.378550 A    
O41   Cr9   2.067034 S    
C60   C80   1.398586 A    
C18   C106  1.486196 S    
C138  C182  1.489715 S    
O33   Cr5   2.079473 S    
C25   C29   1.393495 A    
O35   Cr7   2.079473 S    
C82   C98   1.422819 A    
O29   Cr1   1.952327 S    
C96   C100  1.411587 A    
C89   C93   1.380763 A    
C119  C123  1.419145 A    
C26   C37   1.410626 A    
C84   H24   1.075913 S    
C45   C53   1.405401 A    
C165  H73   1.079084 S    
C92   C96   1.380297 A    
C137  C181  1.481035 S    
C47   C55   1.407713 A    
C53   H14   1.084037 S    
C18   O42   1.293865 A    
Cr11  O51   1.970110 S    
O26   C22   1.265369 A    
C168  H76   1.074933 S    
O20   Cr12  2.084601 S    
C161  C173  1.421848 A    
C96   H36   1.076712 S    
C67   H31   1.091909 S    
C163  C175  1.424658 A    
C129  C149  1.410803 A    
C158  H70   1.088656 S    
C140  C184  1.481801 S    
C162  N2    1.469084 S    
C90   H38   1.086083 S    
C154  H66   1.086544 S    
O38   C18   1.315835 A    
C80   H48   1.084342 S    
C94   H34   1.084753 S    
O30   C14   1.264110 A    
C151  H83   1.086762 S    
C137  C141  1.423565 A    
C5    O17   1.262658 A    
C145  H77   1.084283 S    
C82   C86   1.397859 A    
C139  C143  1.427832 A    
C147  H79   1.080032 S    
N2    O64   1.338529 A    
C130  C150  1.412457 A    
C26   C30   1.393415 A    
C39   C44   1.409685 A    
C144  C172  1.501551 S    
C84   C100  1.420944 A    
O42   Cr10  2.069016 S    
O18   Cr10  2.084601 S    
C162  C166  1.386605 A    
C105  C109  1.402388 A    
C2    C103  1.463203 S    
C3    C102  1.469796 S    
O34   Cr6   2.080052 S    
C181  O57   1.222647 D    
O6    Cr2   1.960973 S    
C153  C157  1.379290 A    
O24   Cr12  1.949773 S    
O30   Cr2   1.955719 S    
C155  C159  1.376111 A    
O48   Cr12  1.962908 S    
C86   H26   1.086516 S    
C156  C160  1.378894 A    
C58   C62   1.405027 A    
C153  C169  1.397269 A    
O37   C17   1.286701 A    
C31   C36   1.406518 A    
C15   O35   1.267281 A    
Cr10  O50   1.967186 S    
C156  C172  1.405836 A    
C113  C117  1.426272 A    
O40   C20   1.280881 A    
O43   Cr11  2.067034 S    
O7    C3    1.277416 A    
C179  H87   1.096988 S    
O21   Cr9   1.947234 S    
O39   Cr7   1.953629 S    
O45   Cr9   1.962991 S    
C13   O33   1.259404 A    
C144  C148  1.405120 A    
O13   Cr5   1.960249 S    
C182  H90   1.111008 S    
O15   Cr7   1.960249 S    
C89   C101  1.400559 A    
C49   C50   1.406935 A    
C142  C146  1.401269 A    
C53   C54   1.399746 A    
C42   H9    1.084956 S    
O23   C11   1.275502 A    
C15   C174  1.450650 S    
C55   C56   1.400166 A    
C116  C120  1.428747 A    
C57   C61   1.400168 A    
C123  C127  1.382791 A    
C158  C174  1.421008 A    
C60   C64   1.402246 A    
O6    C2    1.275573 A    
C167  C171  1.405326 A    
C48   C56   1.407351 A    
C73   C77   1.393164 A    
C35   H7    1.086631 S    
C141  C145  1.399503 A    
O1    Cr1   2.072538 S    
O19   Cr11  2.084650 S    
C143  C171  1.491030 S    
C73   H41   1.075827 S    
C17   C105  1.478418 S    
O45   C21   1.271930 A    
O47   C23   1.260819 A    
C165  C169  1.403792 A    
C177  H85   1.090654 S    
O13   C5    1.280517 A    
C107  C111  1.400897 A    
C168  C172  1.407898 A    
C6    O18   1.263495 A    
C148  H80   1.079335 S    
O36   Cr8   2.080052 S    
C65   C69   1.414973 A    
O38   Cr6   1.950321 S    
C183  H91   1.090614 S    
O22   Cr10  1.949773 S    
C25   H2    1.085190 S    
C76   H44   1.076933 S    
C156  H68   1.082404 S    
O15   C7    1.280075 A    
O8    Cr4   1.960973 S    
C27   H4    1.086552 S    
C64   C68   1.385449 A    
C141  C169  1.480441 S    
O1    C9    1.257922 A    
C63   C67   1.383898 A    
C143  C147  1.402158 A    
C132  C152  1.402251 A    
C180  O56   1.219253 D    
C121  H54   1.086374 S    
C110  C114  1.401607 A    
O23   Cr11  1.947234 S    
O32   Cr4   1.955719 S    
C45   C49   1.414250 A    
C133  C177  1.496523 S    
C28   H3    1.086382 S    
C166  H74   1.078461 S    
C87   C103  1.404282 A    
N3    O65   1.308039 A    
C54   H13   1.084112 S    
C139  C183  1.473836 S    
C88   C104  1.397583 A    
C147  C151  1.374098 A    
C162  C174  1.433691 A    
C7    O19   1.264036 A    
Cr4   O52   1.964573 S    
O2    Cr2   2.076447 S    
O14   Cr6   1.960530 S    
C70   C98   1.504832 S    
Cr6   O50   1.970904 S    
N1    O62   1.300924 A    
C159  C175  1.416275 A    
O5    Cr1   1.963768 S    
C160  C176  1.415918 A    
C124  H55   1.093185 S    
C8    C39   1.480822 S    
C155  H67   1.082980 S    
C106  C110  1.409270 A    
C62   H18   1.088634 S    
O11   Cr7   2.075910 S    
C32   C52   1.413133 A    
O16   C8    1.280706 A    
C92   H40   1.084600 S    
C81   H21   1.074964 S    
C138  C142  1.433452 A    
C112  H52   1.094149 S    
C115  H63   1.084625 S    
C91   C95   1.380654 A    
C124  C128  1.386089 A    
C83   C87   1.395948 A    
C26   H1    1.085045 S    
C65   H29   1.074824 S    
C92   C104  1.403233 A    
C35   C36   1.393871 A    
C93   C97   1.411637 A    
C136  C140  1.414427 A    
C167  H75   1.072300 S    
C69   C97   1.504112 S    
Cr2   O50   1.964573 S    
C133  C137  1.408398 A    
C12   C60   1.467169 S    
C38   C41   1.408423 A    
C42   C46   1.405083 A    
C154  C158  1.380274 A    
C126  H57   1.089688 S    
C88   H28   1.085098 S    
O37   Cr5   1.953629 S    
C61   H17   1.085325 S    
C108  C112  1.403738 A    
C154  C170  1.402411 A    
C64   H20   1.085718 S    
O25   Cr1   2.084720 S    
C149  H81   1.086189 S    
C146  C150  1.375734 A    
C63   H19   1.090488 S    
C85   H25   1.084464 S    
C134  C138  1.406251 A    
C83   H23   1.085596 S    
C14   O34   1.264805 A    
C77   H45   1.083300 S    
C121  C125  1.386566 A    
C85   C101  1.396917 A    
C75   H43   1.087603 S    
C19   C107  1.471615 S    
C184  H92   1.094221 S    
C44   H11   1.086209 S    
C164  C176  1.416933 A    
O10   Cr6   2.072069 S    
N4    O67   1.299055 A    
Cr9   O49   1.970110 S    
O4    Cr4   2.076447 S    
C114  H62   1.089320 S    
C27   C31   1.394629 A    
C70   C74   1.420589 A    
C119  C120  1.505660 S    
C46   C54   1.405757 A    
C159  H71   1.084325 S    
C29   C34   1.404466 A    
C160  H72   1.088024 S    
C40   C43   1.410912 A    
C48   C52   1.416898 A    
