data_mof_unit_61279.cif
_audit_creation_date              2013-03-05T16:38:38-0500
_audit_creation_method            fapswitch 2.2
_symmetry_space_group_name_H-M    P1
_symmetry_Int_Tables_number       1
_space_group_crystal_system       triclinic
_cell_length_a                    15.955129
_cell_length_b                    16.031069
_cell_length_c                    14.788478
_cell_angle_alpha                 90.01506
_cell_angle_beta                  90.045152
_cell_angle_gamma                 89.96755
_cell_volume                      3782.56207084

loop_
_atom_site_label
_atom_site_type_symbol
_atom_site_description
_atom_site_fract_x
_atom_site_fract_y
_atom_site_fract_z
_atom_type_partial_charge
O1    O     O_R   0.500040 0.380310 0.575320 -0.582678
O2    O     O_R   0.499960 0.619690 0.424680 -0.582678
O3    O     O_R   0.500000 0.380310 0.424640 -0.543363
O4    O     O_R   0.500000 0.619690 0.575360 -0.543361
C1    C     C_R   0.499897 0.341013 0.499964 0.824298
C2    C     C_R   0.500103 0.658987 0.500036 0.824298
O5    O     O_R   0.379100 0.499990 0.575330 -0.552714
O6    O     O_R   0.620900 0.500010 0.424670 -0.552714
O7    O     O_R   0.379060 0.499990 0.424640 -0.553664
O8    O     O_R   0.620940 0.500010 0.575360 -0.553670
C3    C     C_R   0.339715 0.499992 0.499963 0.810068
C4    C     C_R   0.660285 0.500008 0.500037 0.810067
Cu1   Cu    Cu3+1 0.500020 0.500000 0.589220 1.097820
Cu2   Cu    Cu3+1 0.499980 0.500000 0.410780 1.097824
C5    C     C_3   0.972165 0.428282 0.534204 0.164837
C6    C     C_3   0.027835 0.571718 0.465796 0.164837
C7    C     C_3   0.027953 0.436843 0.449739 0.161445
C8    C     C_3   0.972047 0.563157 0.550261 0.161444
C9    C     C_1   0.250721 0.500019 0.499913 -0.042034
C10   C     C_1   0.749279 0.499981 0.500087 -0.042037
C11   C     C_3   0.028106 0.491481 0.584384 0.157464
C12   C     C_3   0.971894 0.508519 0.415616 0.157465
C13   C     C_3   0.084673 0.500042 0.499918 -0.225469
C14   C     C_3   0.915326 0.499958 0.500082 -0.225468
C15   C     C_1   0.175718 0.500041 0.499891 0.246710
C16   C     C_1   0.824282 0.499959 0.500108 0.246709
C17   C     C_R   0.506521 0.956380 0.583354 -0.019319
C18   C     C_R   0.493480 0.043620 0.416645 -0.019317
C19   C     C_R   0.503980 0.912593 0.500271 0.025772
C20   C     C_R   0.496021 0.087407 0.499728 0.025772
C21   C     C_R   0.496991 0.955445 0.417088 -0.101229
C22   C     C_R   0.503009 0.044555 0.582911 -0.101229
C23   C     C_1   0.502486 0.822634 0.500316 0.022531
C24   C     C_1   0.497515 0.177366 0.499683 0.022532
C25   C     C_1   0.498788 0.252212 0.499886 -0.075760
C26   C     C_1   0.501212 0.747788 0.500114 -0.075759
C27   C     C_R   0.571614 0.529125 0.952766 -0.152352
C28   C     C_R   0.428383 0.470877 0.047233 -0.152353
C29   C     C_R   0.500125 0.502665 0.902851 -0.126027
C30   C     C_R   0.499873 0.497336 0.097149 -0.126029
C31   C     C_R   0.428969 0.473730 0.950716 0.254247
C32   C     C_R   0.571029 0.526271 0.049283 0.254245
C33   C     C_1   0.500081 0.500982 0.802506 0.384476
C34   C     C_1   0.499918 0.499018 0.197494 0.384494
N1    N     N_1   0.500030 0.499980 0.276710 -0.126807
N2    N     N_1   0.499970 0.500020 0.723290 -0.126810
N3    N     N_R   0.055137 0.366911 0.394055 0.202519
O9    O     O_R   0.999701 0.318902 0.356030 -0.227271
O10   O     O_R   0.134461 0.352105 0.381914 -0.274735
N4    N     N_R   0.944863 0.633089 0.605944 0.202519
O11   O     O_R   0.000299 0.681099 0.643969 -0.227270
O12   O     O_R   0.865539 0.647895 0.618086 -0.274737
N5    N     N_R   0.945123 0.348862 0.572091 0.202010
O13   O     O_R   0.000654 0.294478 0.597994 -0.227482
O14   O     O_R   0.865828 0.331848 0.580286 -0.295575
N6    N     N_R   0.054877 0.651138 0.427909 0.202010
O15   O     O_R   0.999345 0.705522 0.402006 -0.227482
O16   O     O_R   0.134172 0.668152 0.419714 -0.295573
N7    N     N_R   0.944545 0.517946 0.322148 0.203370
O17   O     O_R   0.999871 0.524398 0.258026 -0.224677
O18   O     O_R   0.865185 0.519946 0.302224 -0.255515
N8    N     N_R   0.055455 0.482054 0.677852 0.203371
O19   O     O_R   0.000129 0.475602 0.741973 -0.224680
O20   O     O_R   0.134814 0.480053 0.697776 -0.255515
C35   C     C_2   0.509204 0.093635 0.668536 0.386831
H1    H     H_    0.476135 0.152495 0.675100 0.104324
O21   O     O_2   0.553923 0.070865 0.730868 -0.481182
C36   C     C_2   0.490796 0.906365 0.331463 0.386832
H2    H     H_    0.523865 0.847505 0.324899 0.104324
O22   O     O_2   0.446077 0.929135 0.269132 -0.481182
C37   C     C_2   0.507817 0.910434 0.671093 0.510205
H3    H     H_    0.473889 0.934823 0.728896 0.110412
O23   O     O_2   0.547964 0.846131 0.680353 -0.477414
C38   C     C_2   0.492184 0.089566 0.328906 0.510203
H4    H     H_    0.526112 0.065177 0.271103 0.110412
O24   O     O_2   0.452037 0.153869 0.319647 -0.477420
N9    N     N_R   0.642555 0.555441 0.099303 0.104482
O25   O     O_R   0.678714 0.507409 0.158582 -0.284005
O26   O     O_R   0.669020 0.631605 0.088974 -0.294800
N10   N     N_R   0.357444 0.444558 0.900696 0.104477
O27   O     O_R   0.321281 0.492592 0.841421 -0.283999
O28   O     O_R   0.330987 0.368392 0.911018 -0.294809
C39   C     C_2   0.649466 0.557053 0.905906 0.512430
H5    H     H_    0.709493 0.553234 0.940156 0.148660
O29   O     O_2   0.647818 0.586026 0.829593 -0.490833
C40   C     C_2   0.350529 0.442953 0.094092 0.512429
H6    H     H_    0.290505 0.446757 0.059835 0.148669
O30   O     O_2   0.352171 0.413998 0.170414 -0.490847

loop_
_geom_bond_atom_site_label_1
_geom_bond_atom_site_label_2
_geom_bond_distance
_ccdc_geom_bond_type
O5    Cu1   1.940039 S    
C28   C30   1.422994 A    
C17   C19   1.415454 A    
C8    C11   1.540579 S    
C18   C38   1.492297 S    
C31   N10   1.437812 S    
C29   C31   1.416743 A    
N5    O13   1.300243 A    
O5    C3    1.279065 A    
C3    C9    1.419915 S    
C7    C13   1.547807 S    
C38   O24   1.221022 D    
C28   C40   1.491904 S    
C8    C14   1.547806 S    
C5    N5    1.456879 S    
C14   C16   1.452630 S    
Cu1   N2    1.982692 S    
C40   O30   1.220775 D    
C19   C23   1.442350 S    
C27   C32   1.428121 A    
C23   C26   1.200046 T    
N6    O15   1.300242 A    
C24   C25   1.200046 T    
O4    Cu1   1.929729 S    
N8    O20   1.300169 A    
N3    O9    1.300254 A    
N6    O16   1.300129 A    
C36   H2    1.085194 S    
C35   O21   1.221002 D    
N4    O12   1.300137 A    
N9    O26   1.301229 A    
N7    O17   1.300225 A    
Cu1   Cu2   2.638854 S    
O2    C2    1.279997 A    
C9    C15   1.196681 T    
Cu2   N1    1.982692 S    
N5    O14   1.300129 A    
C21   C36   1.493858 S    
C27   C29   1.422987 A    
N7    O18   1.300169 A    
C38   H4    1.084866 S    
C20   C24   1.442350 S    
C28   C31   1.428122 A    
N10   O28   1.301228 A    
C12   N7    1.457044 S    
C37   O23   1.221023 D    
C40   H6    1.084767 S    
C29   C33   1.484185 S    
O6    Cu2   1.940037 S    
N9    O25   1.301269 A    
O7    Cu2   1.940312 S    
C6    N6    1.456879 S    
N8    O19   1.300224 A    
C39   H5    1.084768 S    
C5    C11   1.540572 S    
O6    C4    1.279066 A    
C4    C10   1.419915 S    
N4    O11   1.300254 A    
O7    C3    1.279055 A    
C11   N8    1.457046 S    
O3    Cu2   1.929730 S    
O8    C4    1.279055 A    
O4    C2    1.279872 A    
C5    C14   1.547812 S    
C39   O29   1.220776 D    
C6    C13   1.547812 S    
C11   C13   1.547815 S    
O1    C1    1.279997 A    
O1    Cu1   1.929684 S    
C17   C37   1.492296 S    
C34   N1    1.171587 T    
C8    N4    1.456914 S    
C5    C7    1.540572 S    
C6    C12   1.540572 S    
C17   C22   1.414642 A    
C18   C21   1.414644 A    
C7    N3    1.456913 S    
N10   O27   1.301271 A    
O3    C1    1.279872 A    
O8    Cu1   1.940311 S    
N3    O10   1.300137 A    
C7    C12   1.540581 S    
C18   C20   1.415454 A    
C37   H3    1.084866 S    
C19   C21   1.413421 A    
C20   C22   1.413422 A    
C10   C16   1.196681 T    
C1    C25   1.423697 S    
C30   C32   1.416745 A    
C2    C26   1.423697 S    
C12   C14   1.547815 S    
C13   C15   1.452630 S    
O2    Cu2   1.929683 S    
C33   N2    1.171587 T    
C30   C34   1.484186 S    
C32   N9    1.437815 S    
C6    C8    1.540572 S    
C35   H1    1.085194 S    
C36   O22   1.221002 D    
C27   C39   1.491896 S    
C22   C35   1.493857 S    
