data_mof_unit_11483.cif
_audit_creation_date              2012-12-10T18:50:44-0500
_audit_creation_method            fapswitch 2.2
_symmetry_space_group_name_H-M    P1
_symmetry_Int_Tables_number       1
_space_group_crystal_system       triclinic
_cell_length_a                    10.718672
_cell_length_b                    9.840478
_cell_length_c                    15.761913
_cell_angle_alpha                 89.984556
_cell_angle_beta                  90.125074
_cell_angle_gamma                 89.990618
_cell_volume                      1662.51298384

loop_
_atom_site_label
_atom_site_type_symbol
_atom_type_description
_atom_site_fract_x
_atom_site_fract_y
_atom_site_fract_z
_atom_type_partial_charge
C1    C     C_R   0.259839 0.500008 0.499974 0.866959
C2    C     C_3   0.632401 0.477293 0.949410 -0.336697
C3    C     C_3   0.636693 0.481376 0.048115 0.840079
C4    C     C_1   0.498099 0.500193 0.825603 -0.102897
C5    C     C_1   0.500225 0.500402 0.174356 -0.013798
C6    C     C_1   0.500053 0.500127 0.249545 -0.162665
C7    C     C_R   0.063847 0.378572 0.484475 -0.184084
C8    C     C_R   0.063915 0.621410 0.515703 -0.183983
C9    C     C_R   0.936044 0.378547 0.484561 -0.182263
C10   C     C_R   0.936107 0.621385 0.515790 -0.183773
C11   C     C_R   0.872553 0.499967 0.500167 -0.014017
C12   C     C_R   0.127399 0.500007 0.500035 -0.013577
C13   C     C_R   0.583048 0.071910 0.548736 -0.064454
C14   C     C_R   0.583049 0.928013 0.548736 -0.063553
C15   C     C_R   0.499946 0.500021 0.338282 0.905984
C16   C     C_R   0.416870 0.928089 0.451242 -0.064884
C17   C     C_R   0.416868 0.071987 0.451242 -0.062286
C18   C     C_R   0.740106 0.499990 0.500081 0.867960
C19   C     C_R   0.500016 0.499986 0.661727 0.914975
C20   C     C_3   0.446926 0.637695 0.050619 -0.410712
C21   C     C_3   0.412441 0.386806 0.050708 -0.478883
C22   C     C_3   0.414102 0.379506 0.952238 0.354892
C23   C     C_3   0.451995 0.643812 0.952073 0.373854
C24   C     C_1   0.499160 0.499997 0.750431 -0.164831
C25   C     C_3   0.500445 0.500816 0.082866 0.027840
C26   C     C_3   0.496619 0.500644 0.917445 -0.019877
H1    H     H_    0.350448 0.873590 0.412267 0.130828
H2    H     H_    0.350441 0.126546 0.412270 0.127472
H3    H     H_    0.349662 0.649865 0.074505 0.150468
H4    H     H_    0.316423 0.406438 0.075012 0.171178
H5    H     H_    0.439516 0.287205 0.078704 0.228772
H6    H     H_    0.500500 0.723823 0.078552 0.248567
H7    H     H_    0.695816 0.555821 0.922478 0.224208
H8    H     H_    0.669334 0.379060 0.925107 0.185543
H9    H     H_    0.112471 0.284210 0.471761 0.155250
H10   H     H_    0.112599 0.715788 0.528344 0.160323
H11   H     H_    0.887374 0.284161 0.471920 0.160780
H12   H     H_    0.887482 0.715746 0.528505 0.155798
H13   H     H_    0.649450 0.126408 0.587727 0.132554
H14   H     H_    0.649453 0.873455 0.587727 0.128802
N1    N     N_R   0.499970 0.857200 0.499980 -0.082000
N2    N     N_R   0.499970 0.142800 0.499980 -0.082138
O1    O     O_R   0.316750 0.614620 0.499990 -0.629758
O2    O     O_R   0.316750 0.385380 0.499990 -0.628896
O3    O     O_R   0.499990 0.614720 0.377140 -0.612595
O4    O     O_R   0.499990 0.385280 0.377140 -0.608433
O5    O     O_R   0.683220 0.614710 0.500000 -0.628668
O6    O     O_R   0.683220 0.385290 0.500000 -0.628870
O7    O     O_R   0.499980 0.614620 0.622860 -0.613881
O8    O     O_R   0.499980 0.385380 0.622860 -0.612256
Zn1   Zn    Zn3+2 0.499980 0.653120 0.500000 0.958054
Zn2   Zn    Zn3+2 0.499980 0.346880 0.500000 0.960542
C27   C     C_1   0.327590 0.683629 0.918800 0.149419
N3    N     N_1   0.230788 0.715337 0.892814 -0.168295
C28   C     C_1   0.284060 0.383960 0.919739 0.170592
N4    N     N_1   0.182673 0.386728 0.894370 -0.173493
O9    O     O_3   0.466246 0.253032 0.929110 -0.757401
H15   H     H_    0.462723 0.244131 0.866376 0.348716
O10   O     O_3   0.537995 0.746288 0.929469 -0.718833
H16   H     H_    0.538187 0.755681 0.866719 0.341848
O11   O     O_3   0.711388 0.592842 0.072259 -0.724585
H17   H     H_    0.731141 0.583066 0.133522 0.353400
O12   O     O_3   0.691832 0.361484 0.080477 -0.766055
H18   H     H_    0.648151 0.281822 0.055976 0.347730

loop_
_geom_bond_atom_site_label_1
_geom_bond_atom_site_label_2
_ccdc_geom_bond_type
C4    C26   S    
C28   N4    T    
C11   C18   S    
C27   N3    T    
C22   C28   S    
C3    O12   S    
C9    C11   A    
C21   H4    S    
C19   O7    A    
C1    O2    A    
O8    Zn2   S    
C20   C23   S    
C10   H12   S    
C8    C12   A    
O1    Zn1   S    
C18   O5    A    
C2    H8    S    
C22   O9    S    
C9    H11   S    
C2    C3    S    
C10   C11   A    
N1    Zn1   S    
O10   H16   S    
C2    C26   S    
C13   C14   A    
C23   O10   S    
C21   H5    S    
C19   O8    A    
O2    Zn2   S    
O9    H15   S    
C7    C12   A    
C1    C12   S    
C16   H1    S    
C14   N1    A    
C5    C25   S    
C5    C6    T    
C2    H7    S    
C13   N2    A    
C14   H14   S    
C19   C24   S    
C23   C27   S    
C20   H3    S    
C3    O11   S    
C20   H6    S    
O11   H17   S    
C4    C24   T    
C13   H13   S    
C20   C25   S    
O3    Zn1   S    
C22   C26   S    
O12   H18   S    
O4    Zn2   S    
O6    Zn2   S    
C3    C25   S    
C8    C10   A    
C8    H10   S    
C23   C26   S    
C7    C9    A    
C21   C25   S    
C17   N2    A    
O5    Zn1   S    
C15   O4    A    
C6    C15   S    
C21   C22   S    
C17   H2    S    
C7    H9    S    
C16   N1    A    
C1    O1    A    
N2    Zn2   S    
C16   C17   A    
O7    Zn1   S    
C15   O3    A    
C18   O6    A    
