data_mof_unit_17026.cif
_audit_creation_date              2012-12-11T14:42:17-0500
_audit_creation_method            fapswitch 2.2
_symmetry_space_group_name_H-M    P1
_symmetry_Int_Tables_number       1
_space_group_crystal_system       triclinic
_cell_length_a                    19.028196
_cell_length_b                    10.884488
_cell_length_c                    18.883826
_cell_angle_alpha                 89.962026
_cell_angle_beta                  90.364104
_cell_angle_gamma                 90.156047
_cell_volume                      3910.97590881

loop_
_atom_site_label
_atom_site_type_symbol
_atom_type_description
_atom_site_fract_x
_atom_site_fract_y
_atom_site_fract_z
_atom_type_partial_charge
C1    C     C_R   0.727209 0.956247 0.853580 0.549924
C2    C     C_R   0.241250 0.426122 0.927577 -0.018979
C3    C     C_R   0.252499 0.918714 0.075624 -0.022480
C4    C     C_R   0.747552 0.918298 0.924276 -0.023052
C5    C     C_R   0.812710 0.374278 0.033021 -0.091726
C6    C     C_R   0.186730 0.375797 0.967363 -0.090756
C7    C     C_R   0.290441 0.825856 0.043098 -0.103593
C8    C     C_R   0.708934 0.826179 0.957069 -0.103433
C9    C     C_R   0.808034 0.369358 0.960790 -0.146499
C10   C     C_R   0.191543 0.371097 0.039602 -0.147153
C11   C     C_R   0.286771 0.812486 0.970843 -0.132059
C12   C     C_R   0.272830 0.956466 0.146375 0.551778
C13   C     C_R   0.712597 0.813119 0.029333 -0.132025
C14   C     C_R   0.746711 0.407445 0.925742 0.017609
C15   C     C_R   0.253290 0.408241 0.074396 0.017028
C16   C     C_R   0.243226 0.889181 0.929527 0.030139
C17   C     C_R   0.756895 0.889231 0.070405 0.029502
C18   C     C_R   0.463343 0.274607 0.549333 -0.179405
C19   C     C_R   0.445990 0.275631 0.478601 -0.185714
C20   C     C_R   0.963342 0.774602 0.549333 -0.179899
C21   C     C_R   0.945991 0.775625 0.478601 -0.185872
C22   C     C_R   0.448997 0.167704 0.438924 -0.010633
C23   C     C_R   0.226182 0.457612 0.854471 0.549812
C24   C     C_R   0.484551 0.165199 0.582031 -0.002386
C25   C     C_R   0.949006 0.667701 0.438923 -0.011312
C26   C     C_R   0.984551 0.665195 0.582032 -0.003276
C27   C     C_R   0.461389 0.053412 0.473616 0.246278
C28   C     C_R   0.476434 0.052455 0.546183 0.247173
C29   C     C_R   0.961407 0.553410 0.473612 0.245531
C30   C     C_R   0.976442 0.552452 0.546182 0.246542
C31   C     C_R   0.793406 0.319204 0.529983 -0.089331
C32   C     C_R   0.199455 0.333837 0.467023 -0.104150
C33   C     C_R   0.293373 0.819146 0.529972 -0.089622
C34   C     C_R   0.773788 0.457653 0.145575 0.551437
C35   C     C_R   0.699459 0.833840 0.467023 -0.104469
C36   C     C_R   0.794859 0.329403 0.457401 -0.098680
C37   C     C_R   0.197252 0.342736 0.539497 -0.111618
C38   C     C_R   0.294827 0.829358 0.457390 -0.098989
C39   C     C_R   0.697254 0.842740 0.539497 -0.111837
C40   C     C_R   0.530410 0.176678 0.851231 0.571076
C41   C     C_R   0.469524 0.176870 0.148729 0.581821
C42   C     C_R   0.029151 0.676882 0.850597 0.564545
C43   C     C_R   0.970778 0.677068 0.149353 0.575832
C44   C     C_R   0.752410 0.415774 0.423335 0.024417
C45   C     C_R   0.697980 0.469327 0.038503 -0.114918
C46   C     C_R   0.245001 0.418574 0.575398 0.024190
C47   C     C_R   0.252404 0.915778 0.423333 0.024850
C48   C     C_R   0.745001 0.918579 0.575398 0.024646
C49   C     C_R   0.702820 0.482856 0.462368 -0.131963
C50   C     C_R   0.298230 0.479294 0.537681 -0.141852
C51   C     C_R   0.202840 0.982901 0.462374 -0.131691
C52   C     C_R   0.798230 0.979299 0.537681 -0.141622
C53   C     C_R   0.699110 0.468481 0.535566 -0.138136
C54   C     C_R   0.301468 0.467990 0.464257 -0.151753
C55   C     C_R   0.199131 0.968518 0.535572 -0.137813
C56   C     C_R   0.302195 0.469114 0.961410 -0.115881
C57   C     C_R   0.801472 0.967984 0.464257 -0.151447
C58   C     C_R   0.745865 0.388756 0.569919 0.029954
C59   C     C_R   0.251930 0.394976 0.428583 0.030208
C60   C     C_R   0.245861 0.888742 0.569916 0.029447
C61   C     C_R   0.751933 0.894972 0.428584 0.029839
C62   C     C_R   0.737745 0.363467 0.853297 0.567327
C63   C     C_R   0.262261 0.363786 0.146752 0.570073
C64   C     C_R   0.236979 0.859188 0.854652 0.578227
C65   C     C_R   0.763059 0.859339 0.145318 0.581108
C66   C     C_R   0.727637 0.955426 0.647214 0.538342
C67   C     C_R   0.206001 0.992043 0.035749 -0.096148
C68   C     C_R   0.271965 0.954968 0.352459 0.535151
C69   C     C_R   0.227637 0.455425 0.647215 0.542426
C70   C     C_R   0.771966 0.454967 0.352459 0.539088
C71   C     C_R   0.526604 0.175553 0.646615 0.564269
C72   C     C_R   0.436559 0.179390 0.362756 0.565618
C73   C     C_R   0.026603 0.675553 0.646616 0.564461
C74   C     C_R   0.936563 0.679389 0.362757 0.565193
C75   C     C_R   0.738235 0.357927 0.644500 0.549486
C76   C     C_R   0.261240 0.359871 0.354854 0.539472
C77   C     C_R   0.238234 0.857922 0.644499 0.553460
C78   C     C_R   0.794805 0.990948 0.963873 -0.096809
C79   C     C_R   0.761242 0.859866 0.354855 0.543583
C80   C     C_2   0.499387 0.163832 0.921722 -0.112574
C81   C     C_2   0.500487 0.164222 0.078210 -0.114151
C82   C     C_2   0.998320 0.666885 0.921591 -0.113364
C83   C     C_2   0.001458 0.667190 0.078287 -0.114719
C84   C     C_2   0.492078 0.061422 0.038196 0.219434
C85   C     C_2   0.507895 0.061338 0.961939 0.221171
C86   C     C_2   0.998460 0.562285 0.039519 0.204441
C87   C     C_2   0.001169 0.562151 0.960502 0.205707
C88   C     C_R   0.691319 0.460297 0.965192 0.200214
C89   C     C_R   0.758551 0.425762 0.072560 -0.019702
C90   C     C_R   0.308937 0.460360 0.034729 0.199788
C91   C     C_R   0.200945 0.977603 0.962732 0.209733
C92   C     C_R   0.799914 0.976717 0.036908 0.209181
Cl1   Cl    Cl    0.464687 0.917631 0.073351 -0.462659
Cl2   Cl    Cl    0.485977 0.909304 0.590232 -0.541456
Cl3   Cl    Cl    0.965344 0.410525 0.428723 -0.540185
Cl4   Cl    Cl    0.985986 0.409301 0.590231 -0.539556
Cl5   Cl    Cl    0.535350 0.917768 0.927023 -0.462724
Cl6   Cl    Cl    0.997769 0.416639 0.082003 -0.521240
Cl7   Cl    Cl    0.001548 0.416483 0.918161 -0.521253
Cl8   Cl    Cl    0.612829 0.516127 0.927008 -0.543653
Cl9   Cl    Cl    0.387832 0.515586 0.072669 -0.541945
Cl10  Cl    Cl    0.143948 0.075601 0.915450 -0.559090
Cl11  Cl    Cl    0.858010 0.073747 0.083798 -0.557571
Cl12  Cl    Cl    0.465300 0.910520 0.428732 -0.541550
Cr1   Cr    Cr6+3 0.769270 0.163730 0.750710 1.063482
Cr2   Cr    Cr6+3 0.385840 0.322500 0.252290 1.091426
Cr3   Cr    Cr6+3 0.114160 0.822500 0.747710 1.093639
Cr4   Cr    Cr6+3 0.885840 0.822500 0.252290 1.089519
Cr5   Cr    Cr6+3 0.230730 0.163730 0.249290 1.054835
Cr6   Cr    Cr6+3 0.269270 0.663730 0.750710 1.061720
Cr7   Cr    Cr6+3 0.730730 0.663730 0.249290 1.052909
Cr8   Cr    Cr6+3 0.612620 0.009790 0.748780 1.147834
Cr9   Cr    Cr6+3 0.387380 0.009790 0.251220 1.145571
Cr10  Cr    Cr6+3 0.112620 0.509790 0.748780 1.149937
Cr11  Cr    Cr6+3 0.887380 0.509790 0.251220 1.147634
Cr12  Cr    Cr6+3 0.614160 0.322500 0.747710 1.095786
H1    H     H_    0.832436 0.274658 0.428428 0.178447
H2    H     H_    0.342826 0.514714 0.435646 0.129501
H3    H     H_    0.160590 0.020096 0.565174 0.137378
H4    H     H_    0.842833 0.014697 0.435648 0.130506
H5    H     H_    0.522640 0.246936 0.055050 0.103787
H6    H     H_    0.477155 0.246356 0.944718 0.103424
H7    H     H_    0.014725 0.754084 0.053818 0.087943
H8    H     H_    0.985109 0.753736 0.945930 0.088109
H9    H     H_    0.656476 0.512276 0.068632 0.175423
H10   H     H_    0.343944 0.511384 0.931089 0.175072
H11   H     H_    0.176496 0.065207 0.060508 0.178113
H12   H     H_    0.155533 0.294658 0.566905 0.172826
H13   H     H_    0.824904 0.063459 0.938879 0.177787
H14   H     H_    0.860438 0.341052 0.057512 0.253120
H15   H     H_    0.138696 0.343180 0.943040 0.252886
H16   H     H_    0.325984 0.767859 0.073038 0.222717
H17   H     H_    0.672825 0.768676 0.927337 0.224036
H18   H     H_    0.851761 0.328711 0.932915 0.213433
H19   H     H_    0.147589 0.331203 0.067704 0.213319
H20   H     H_    0.318166 0.740375 0.947601 0.182063
H21   H     H_    0.680583 0.741673 0.052760 0.182767
H22   H     H_    0.465438 0.361890 0.576844 0.162464
H23   H     H_    0.332385 0.774585 0.428410 0.177396
H24   H     H_    0.434282 0.362982 0.453935 0.155026
H25   H     H_    0.965432 0.861882 0.576845 0.162523
H26   H     H_    0.934277 0.862975 0.453937 0.155109
H27   H     H_    0.829058 0.254460 0.554514 0.168495
H28   H     H_    0.160687 0.275495 0.441544 0.162737
H29   H     H_    0.329006 0.754364 0.554498 0.168259
H30   H     H_    0.660691 0.775500 0.441543 0.162496
H31   H     H_    0.655535 0.794665 0.566905 0.172051
H32   H     H_    0.669143 0.549803 0.436896 0.139697
H33   H     H_    0.335753 0.538102 0.564555 0.134571
H34   H     H_    0.169184 0.049888 0.436910 0.139864
H35   H     H_    0.835750 0.038115 0.564554 0.134694
H36   H     H_    0.660545 0.520018 0.565161 0.136251
O1    O     O_R   0.784320 0.290430 0.830510 -0.517654
O2    O     O_R   0.456080 0.282180 0.333210 -0.515987
O3    O     O_R   0.043920 0.782180 0.666790 -0.531840
O4    O     O_R   0.956080 0.782180 0.333210 -0.515388
O5    O     O_R   0.679040 0.374160 0.674430 -0.504164
O6    O     O_R   0.320960 0.374160 0.325570 -0.525188
O7    O     O_R   0.179040 0.874160 0.674430 -0.499712
O8    O     O_R   0.820960 0.874160 0.325570 -0.520812
O9    O     O_3   0.665350 0.165340 0.749070 -0.286490
O10   O     O_3   0.334650 0.165340 0.250930 -0.308217
O11   O     O_3   0.165350 0.665340 0.749070 -0.291324
O12   O     O_R   0.215680 0.290430 0.169490 -0.516769
O13   O     O_3   0.834650 0.665340 0.250930 -0.312833
O14   O     O_R   0.762640 0.040960 0.825200 -0.513933
O15   O     O_R   0.237360 0.040960 0.174800 -0.510822
O16   O     O_R   0.262640 0.540960 0.825200 -0.517182
O17   O     O_R   0.737360 0.540960 0.174800 -0.514035
O18   O     O_R   0.667400 0.923970 0.829950 -0.462003
O19   O     O_R   0.332600 0.923970 0.170050 -0.461706
O20   O     O_R   0.167400 0.423970 0.829950 -0.469696
O21   O     O_R   0.832600 0.423970 0.170050 -0.469912
O22   O     O_R   0.553960 0.081340 0.821780 -0.441297
O23   O     O_R   0.284320 0.790430 0.830510 -0.515188
O24   O     O_R   0.446040 0.081340 0.178220 -0.437152
O25   O     O_R   0.053960 0.581340 0.821780 -0.440220
O26   O     O_R   0.946040 0.581340 0.178220 -0.436018
O27   O     O_R   0.543180 0.283240 0.826740 -0.473867
O28   O     O_R   0.456820 0.283240 0.173260 -0.467175
O29   O     O_R   0.043180 0.783240 0.826740 -0.494160
O30   O     O_R   0.956820 0.783240 0.173260 -0.487116
O31   O     O_R   0.678360 0.375140 0.822710 -0.441969
O32   O     O_R   0.321640 0.375140 0.177290 -0.440783
O33   O     O_R   0.178360 0.875140 0.822710 -0.443427
O34   O     O_R   0.715680 0.790430 0.169490 -0.514511
O35   O     O_R   0.821640 0.875140 0.177290 -0.442051
O36   O     O_R   0.785050 0.289380 0.670560 -0.500569
O37   O     O_R   0.214950 0.289380 0.329440 -0.508571
O38   O     O_R   0.285050 0.789380 0.670560 -0.500375
O39   O     O_R   0.714950 0.789380 0.329440 -0.508439
O40   O     O_R   0.763320 0.039990 0.676930 -0.512169
O41   O     O_R   0.236680 0.039990 0.323070 -0.513856
O42   O     O_R   0.263320 0.539990 0.676930 -0.511420
O43   O     O_R   0.736680 0.539990 0.323070 -0.513152
O44   O     O_R   0.668130 0.922920 0.670000 -0.492397
O45   O     O_R   0.554640 0.080370 0.673500 -0.441931
O46   O     O_R   0.331870 0.922920 0.330000 -0.484240
O47   O     O_R   0.168130 0.422920 0.670000 -0.487424
O48   O     O_R   0.831870 0.422920 0.330000 -0.479482
O49   O     O_R   0.445360 0.080370 0.326500 -0.433694
O50   O     O_R   0.054640 0.580370 0.673500 -0.440253
O51   O     O_R   0.945360 0.580370 0.326500 -0.431827
O52   O     O_R   0.543920 0.282180 0.666790 -0.532344

loop_
_geom_bond_atom_site_label_1
_geom_bond_atom_site_label_2
_ccdc_geom_bond_type
C44   C49   A    
Cr1   O1    S    
Cr4   O13   S    
C65   O35   A    
C43   O26   A    
Cr7   O39   S    
C8    C13   A    
C53   C58   A    
C43   C83   S    
C47   C68   S    
Cr4   O35   S    
Cr8   O22   S    
C75   O36   A    
C42   C82   S    
C4    C8    A    
C12   O15   A    
Cr9   O19   S    
C80   H6    S    
Cr6   O23   S    
Cr10  O20   S    
Cr8   O9    S    
C76   O6    A    
C29   C30   A    
Cr3   O29   S    
C18   C24   A    
C77   O38   A    
Cr1   O36   S    
C68   O46   A    
C78   H13   S    
C21   H26   S    
C18   C19   A    
C3    C7    A    
Cr5   O10   S    
C74   O51   A    
C42   O25   A    
C82   C87   D    
C14   C62   S    
Cr12  O31   S    
C1    O18   A    
C26   C73   S    
Cr1   O14   S    
C28   Cl2   S    
C25   C74   S    
C22   C72   S    
C18   H22   S    
Cr8   O44   S    
C46   C69   S    
C30   Cl4   S    
C76   O37   A    
C41   O28   A    
C92   Cl11  S    
Cr9   O10   S    
Cr6   O16   S    
Cr8   O18   S    
C23   O20   A    
C51   H34   S    
C45   H9    S    
C19   H24   S    
Cr2   O2    S    
Cr11  O51   S    
Cr10  O50   S    
Cr6   O42   S    
C53   H36   S    
C38   H23   S    
C40   C80   S    
Cr5   O41   S    
C68   O41   A    
C3    C12   S    
Cr9   O49   S    
Cr11  O13   S    
C45   C89   A    
C64   O33   A    
C37   H12   S    
C9    H18   S    
C75   O5    A    
C56   C90   A    
C62   O31   A    
C79   O39   A    
C55   C60   A    
Cr1   O40   S    
C63   O12   A    
C17   C92   A    
C82   H8    S    
Cr12  O52   S    
C58   C75   S    
C71   O45   A    
C12   O19   A    
C87   Cl7   S    
C54   C59   A    
C42   O29   A    
C25   C29   A    
C71   O52   A    
C60   C77   S    
C72   O2    A    
Cr12  O9    S    
C19   C22   A    
C10   H19   S    
Cr5   O37   S    
C79   O8    A    
C29   Cl3   S    
C86   C87   S    
C70   O43   A    
C47   C51   A    
C78   C92   A    
Cr2   O6    S    
Cr6   O38   S    
C66   O44   A    
C2    C6    A    
C49   H32   S    
C81   H5    S    
C10   C15   A    
Cr7   O17   S    
C35   H30   S    
C13   H21   S    
Cr3   O33   S    
C35   C39   A    
C9    C14   A    
C90   Cl9   S    
C5    C9    A    
C80   C85   D    
C67   H11   S    
C40   O27   A    
C11   C16   A    
C7    C11   A    
Cr4   O4    S    
C48   C52   A    
Cr9   O46   S    
Cr10  O25   S    
C41   C81   S    
C73   O3    A    
C67   C91   A    
C38   C47   A    
C74   O4    A    
C35   C61   A    
C50   C54   A    
C32   C37   A    
C84   C85   S    
C64   O23   A    
C44   C70   S    
C36   H1    S    
Cr2   O32   S    
C7    H16   S    
C88   Cl8   S    
C34   O17   A    
C33   H29   S    
C77   O7    A    
Cr9   O24   S    
Cr7   O13   S    
C45   C88   A    
C5    H14   S    
C41   O24   A    
Cr3   O11   S    
C26   C30   A    
C33   C60   A    
C56   H10   S    
C22   C27   A    
C57   H4    S    
Cr1   O9    S    
C36   C44   A    
C91   Cl10  S    
C32   H28   S    
Cr8   O45   S    
C2    C23   S    
C81   C84   D    
C31   C58   A    
Cr11  O48   S    
C21   C25   A    
C65   O34   A    
Cr7   O34   S    
C70   O48   A    
C63   O32   A    
C8    H17   S    
C20   H25   S    
C3    C67   A    
C24   C28   A    
C6    H15   S    
Cr5   O12   S    
Cr5   O15   S    
C6    C10   A    
Cr3   O7    S    
Cr6   O11   S    
C57   C61   A    
Cr4   O8    S    
Cr2   O10   S    
Cr4   O30   S    
C4    C78   A    
C73   O50   A    
C46   C50   A    
C43   O30   A    
C17   C65   S    
C33   C38   A    
C62   O1    A    
C13   C17   A    
Cr10  O47   S    
C1    C4    S    
C48   C66   S    
C54   H2    S    
C34   C89   S    
C14   C88   A    
Cr12  O5    S    
Cr11  O21   S    
C34   O21   A    
C2    C56   A    
C11   H20   S    
C15   C90   A    
C40   O22   A    
C50   H33   S    
Cr10  O11   S    
C20   C26   A    
C1    O14   A    
C61   C79   S    
C52   H35   S    
C49   C53   A    
C69   O42   A    
C51   C55   A    
C84   Cl1   S    
Cr2   O28   S    
C31   H27   S    
C86   Cl6   S    
C5    C89   A    
C66   O40   A    
Cr11  O26   S    
C85   Cl5   S    
C52   C57   A    
C23   O16   A    
C55   H3    S    
C83   C86   D    
C20   C21   A    
C16   C91   A    
Cr12  O27   S    
C39   H31   S    
C27   C28   A    
C69   O47   A    
C15   C63   S    
C31   C36   A    
C72   O49   A    
C27   Cl12  S    
C16   C64   S    
C32   C59   A    
C83   H7    S    
C37   C46   A    
C59   C76   S    
Cr3   O3    S    
C24   C71   S    
Cr7   O43   S    
C39   C48   A    
