data_mof_unit_17463.cif
_audit_creation_date              2012-10-26T18:50:01-0400
_audit_creation_method            fapswitch 2.2
_symmetry_space_group_name_H-M    P1
_symmetry_Int_Tables_number       1
_space_group_crystal_system       triclinic
_cell_length_a                    10.856
_cell_length_b                    12.99672
_cell_length_c                    11.642372
_cell_angle_alpha                 100.335173
_cell_angle_beta                  94.445881
_cell_angle_gamma                 91.515826
_cell_volume                      1609.77108335

loop_
_atom_site_label
_atom_site_type_symbol
_atom_type_description
_atom_site_fract_x
_atom_site_fract_y
_atom_site_fract_z
_atom_type_partial_charge
C1    C     C_R   0.500649 0.298775 0.477745 0.572220
C2    C     C_R   0.506551 0.860188 0.438006 -0.176406
C3    C     C_R   0.472863 0.030857 0.550130 -0.001442
C4    C     C_R   0.503426 0.967732 0.445605 -0.007039
C5    C     C_R   0.401710 0.385689 0.018854 0.249895
C6    C     C_R   0.596225 0.614816 0.981598 0.227521
C7    C     C_R   0.408903 0.399357 0.141789 0.157530
C8    C     C_R   0.590009 0.601028 0.858693 0.136036
C9    C     C_R   0.539064 0.551202 0.159375 0.097703
C10   C     C_R   0.460579 0.448692 0.840584 0.077956
C11   C     C_R   0.534088 0.542200 0.035779 0.001131
C12   C     C_R   0.493773 0.700785 0.521926 0.587217
C13   C     C_R   0.464780 0.457774 0.964291 0.006915
C14   C     C_R   0.263602 0.513894 0.501000 0.553619
C15   C     C_R   0.738707 0.502697 0.500297 0.564095
C16   C     C_R   0.140405 0.623592 0.710501 -0.088789
C17   C     C_R   0.875474 0.407781 0.300955 -0.101021
C18   C     C_R   0.080433 0.677105 0.803187 0.286641
C19   C     C_R   0.924500 0.396522 0.192436 0.264910
C20   C     C_R   0.956943 0.702273 0.784549 0.255684
C21   C     C_R   0.028953 0.457900 0.179046 0.255566
C22   C     C_R   0.891001 0.663096 0.675022 0.016906
C23   C     C_R   0.483096 0.814190 0.534532 0.016200
C24   C     C_R   0.093612 0.519752 0.279655 0.033759
C25   C     C_R   0.943835 0.583996 0.594976 -0.025998
C26   C     C_R   0.055128 0.511615 0.392317 -0.033391
C27   C     C_R   0.073779 0.578162 0.603258 -0.039390
C28   C     C_R   0.933595 0.476512 0.398817 -0.053240
C29   C     C_R   0.873798 0.517289 0.500233 0.039782
C30   C     C_R   0.130873 0.536764 0.499778 0.035378
C31   C     C_2   0.795447 0.727820 0.627629 0.601640
C32   C     C_2   0.181768 0.607097 0.268337 0.664992
C33   C     C_R   0.501939 0.184809 0.463463 0.009605
C34   C     C_R   0.533065 0.012968 0.350658 -0.039047
C35   C     C_R   0.445125 0.985355 0.645586 -0.033574
C36   C     C_R   0.533779 0.121068 0.358854 0.237695
C37   C     C_R   0.450140 0.877455 0.638883 0.271856
C38   C     C_R   0.471370 0.138717 0.558032 -0.133180
Cl1   Cl    Cl    0.071932 0.458943 0.035813 -0.395148
Cl2   Cl    Cl    0.894030 0.793408 0.893570 -0.320329
Cl3   Cl    Cl    0.314352 0.276866 0.937641 -0.490929
Cl4   Cl    Cl    0.679138 0.725402 0.064088 -0.465546
Cl5   Cl    Cl    0.168440 0.725469 0.936575 -0.348887
Cl6   Cl    Cl    0.844051 0.313842 0.072081 -0.396186
Cl7   Cl    Cl    0.410688 0.826726 0.762452 -0.463284
Cl8   Cl    Cl    0.581368 0.171186 0.237433 -0.479797
Cu1   Cu    Cu3+1 0.509250 0.507730 0.615930 1.030270
Cu2   Cu    Cu3+1 0.490750 0.492270 0.384070 1.035239
H1    H     H_    0.239304 0.624498 0.724698 0.209500
H2    H     H_    0.360383 0.344091 0.183250 0.178811
H3    H     H_    0.733643 0.790095 0.487931 0.340779
H4    H     H_    0.258230 0.749680 0.340165 0.350654
H5    H     H_    0.791619 0.363057 0.307039 0.203471
H6    H     H_    0.531191 0.812490 0.357304 0.158768
H7    H     H_    0.446579 0.186863 0.638394 0.158499
H8    H     H_    0.557991 0.964373 0.270678 0.199324
H9    H     H_    0.420273 0.033726 0.725717 0.193587
H10   H     H_    0.406458 0.385909 0.783917 0.181808
H11   H     H_    0.593399 0.613817 0.216091 0.182217
H12   H     H_    0.637644 0.656905 0.817814 0.213331
N1    N     N_R   0.523180 0.519350 0.790130 -0.285762
N2    N     N_R   0.476820 0.480650 0.209870 -0.268964
O1    O     O_R   0.506570 0.354460 0.582000 -0.516374
O2    O     O_R   0.790254 0.734500 0.508725 -0.677546
O3    O     O_2   0.241123 0.602524 0.182717 -0.428930
O4    O     O_R   0.196540 0.695613 0.357244 -0.673340
O5    O     O_R   0.493430 0.645540 0.418000 -0.520774
O6    O     O_R   0.490940 0.341410 0.386200 -0.466126
O7    O     O_R   0.509060 0.658590 0.613800 -0.449266
O8    O     O_R   0.327470 0.506520 0.597900 -0.520521
O9    O     O_R   0.672530 0.493480 0.402100 -0.499864
O10   O     O_R   0.311840 0.493460 0.402100 -0.512624
O11   O     O_R   0.688160 0.506540 0.597900 -0.504930
O12   O     O_2   0.728086 0.780644 0.691820 -0.441067

loop_
_geom_bond_atom_site_label_1
_geom_bond_atom_site_label_2
_ccdc_geom_bond_type
C12   O7    A    
C34   H8    S    
C33   C36   A    
C1    C33   S    
C7    N2    A    
C12   C23   S    
C28   C29   A    
C10   H10   S    
C24   C26   A    
Cu1   O1    S    
C20   Cl2   S    
C1    O6    A    
C18   C20   A    
Cu1   O7    S    
C38   H7    S    
C3    C38   A    
C22   C25   A    
C36   Cl8   S    
C5    C13   A    
C8    N1    A    
C16   C27   A    
C27   C30   A    
C14   O8    A    
Cu2   O10   S    
C1    O1    A    
C15   C29   S    
C25   C29   A    
C12   O5    A    
C4    C34   A    
C22   C31   S    
C9    N2    A    
C16   H1    S    
Cu1   O11   S    
C2    H6    S    
C6    C11   A    
C5    C7    A    
C31   O12   D    
C6    C8    A    
C14   C30   S    
C9    H11   S    
C2    C4    A    
C24   C32   S    
Cu1   O8    S    
Cu2   N2    S    
Cu1   Cu2   S    
C21   Cl1   S    
C3    C35   A    
Cu2   O6    S    
C9    C11   A    
C15   O11   A    
C20   C22   A    
C26   C30   A    
C10   N1    A    
Cu2   O9    S    
C37   Cl7   S    
C3    C4    A    
C17   H5    S    
H4    O4    S    
C19   Cl6   S    
C32   O4    S    
C5    Cl3   S    
C35   C37   A    
C17   C28   A    
C14   O10   A    
C31   O2    S    
H3    O2    S    
C7    H2    S    
C10   C13   A    
Cu1   N1    S    
C25   C27   A    
C15   O9    A    
C26   C28   A    
C33   C38   A    
C35   H9    S    
C23   C37   A    
C18   Cl5   S    
C8    H12   S    
C11   C13   A    
C17   C19   A    
C34   C36   A    
Cu2   O5    S    
C16   C18   A    
C6    Cl4   S    
C21   C24   A    
C2    C23   A    
C32   O3    D    
C19   C21   A    
