data_mof_unit_65162.cif
_audit_creation_date              2012-12-10T16:48:40-0500
_audit_creation_method            fapswitch 2.2
_symmetry_space_group_name_H-M    P1
_symmetry_Int_Tables_number       1
_space_group_crystal_system       triclinic
_cell_length_a                    18.434487
_cell_length_b                    18.403225
_cell_length_c                    18.419345
_cell_angle_alpha                 119.76806
_cell_angle_beta                  119.596668
_cell_angle_gamma                 90.570696
_cell_volume                      4438.80743388

loop_
_atom_site_label
_atom_site_type_symbol
_atom_type_description
_atom_site_fract_x
_atom_site_fract_y
_atom_site_fract_z
_atom_type_partial_charge
C1    C     C_R   0.138315 0.361278 0.000334 0.882904
C2    C     C_2   0.808969 0.696693 0.004457 -0.295622
C3    C     C_2   0.721190 0.281354 0.444038 -0.158266
C4    C     C_R   0.861792 0.638789 0.000388 0.851505
C5    C     C_2   0.696854 0.192378 0.387705 -0.296103
C6    C     C_2   0.779933 0.337439 0.556409 -0.161795
C7    C     C_2   0.803172 0.304448 0.612247 -0.295918
C8    C     C_2   0.338582 0.283581 0.069116 0.477542
C9    C     C_2   0.306619 0.194971 0.997248 -0.334679
C10   C     C_2   0.280728 0.338287 0.060212 -0.290336
C11   C     C_2   0.192178 0.304494 0.003824 -0.345246
C12   C     C_3   0.711983 0.318604 0.970694 -0.394305
C13   C     C_2   0.217385 0.775794 0.937405 -0.167689
C14   C     C_2   0.304998 0.811984 0.007486 -0.286260
C15   C     C_2   0.161656 0.724620 0.941896 -0.168925
C16   C     C_R   0.138474 0.638772 0.276957 0.850081
C17   C     C_2   0.195349 0.687948 0.992831 -0.286171
C18   C     C_2   0.219098 0.778585 0.556406 -0.161818
C19   C     C_2   0.307847 0.803236 0.612260 -0.295332
C20   C     C_2   0.162780 0.719849 0.444007 -0.164419
C21   C     C_2   0.195309 0.696724 0.387694 -0.293787
C22   C     C_R   0.638873 0.138452 0.277005 0.849693
C23   C     C_3   0.800851 0.300361 0.999548 0.194563
C24   C     C_R   0.361693 0.861166 0.723030 0.849849
C25   C     C_R   0.638259 0.861181 0.999752 0.850105
C26   C     C_R   0.361741 0.138886 0.000420 0.881849
C27   C     C_R   0.359513 0.860436 0.000975 0.861063
C28   C     C_R   0.861162 0.361368 0.722984 0.851892
C29   C     C_R   0.641464 0.141322 0.999970 0.741362
C30   C     C_R   0.140446 0.639512 0.998952 0.860732
C31   C     C_R   0.858589 0.358453 0.999864 0.745744
C32   C     C_3   0.779651 0.200417 0.920897 -0.381418
C33   C     C_3   0.720326 0.141125 0.920958 -0.380590
C34   C     C_3   0.699217 0.198786 0.999663 0.194956
C35   C     C_3   0.847851 0.318641 0.106743 -0.393919
C36   C     C_3   0.788132 0.258966 0.106809 -0.393865
C37   C     C_3   0.652278 0.258935 0.970778 -0.391739
C38   C     C_2   0.724002 0.780036 0.942752 -0.164160
C39   C     C_2   0.691039 0.803250 0.998651 -0.293895
C40   C     C_2   0.777647 0.721312 0.940265 -0.161677
H1    H     H_    0.842180 0.184940 0.939792 0.177155
H2    H     H_    0.720131 0.156165 0.421460 0.150751
H3    H     H_    0.745355 0.184911 0.842833 0.177428
H4    H     H_    0.778931 0.234248 0.578111 0.149762
H5    H     H_    0.238355 0.161305 0.931133 0.105230
H6    H     H_    0.312928 0.409513 0.104397 0.181842
H7    H     H_    0.157338 0.234555 0.961990 0.152257
H8    H     H_    0.185119 0.784571 0.875910 0.179544
H9    H     H_    0.338431 0.808911 0.073017 0.148636
H10   H     H_    0.091526 0.716239 0.901225 0.178783
H11   H     H_    0.263791 0.690660 0.028970 0.148528
H12   H     H_    0.636689 0.301646 0.026150 0.185828
H13   H     H_    0.185433 0.801185 0.593962 0.175709
H14   H     H_    0.657758 0.097349 0.842910 0.177420
H15   H     H_    0.343833 0.780244 0.578108 0.150011
H16   H     H_    0.091770 0.695958 0.406871 0.174849
H17   H     H_    0.265233 0.720999 0.421496 0.150522
H18   H     H_    0.911703 0.305564 0.128897 0.154933
H19   H     H_    0.823227 0.217153 0.128990 0.154639
H20   H     H_    0.676820 0.305495 0.893701 0.155233
H21   H     H_    0.588366 0.217099 0.893829 0.154871
H22   H     H_    0.803744 0.408737 0.593963 0.175887
H23   H     H_    0.863568 0.389744 0.164991 0.181116
H24   H     H_    0.438207 0.388582 0.196917 0.323223
H25   H     H_    0.754577 0.097369 0.939859 0.176710
H26   H     H_    0.724777 0.389707 0.026012 0.182227
H27   H     H_    0.775426 0.301674 0.165069 0.182418
H28   H     H_    0.710584 0.803855 0.895471 0.174653
H29   H     H_    0.700727 0.779060 0.044476 0.150776
H30   H     H_    0.792483 0.698694 0.883883 0.175153
H31   H     H_    0.797901 0.719683 0.063526 0.150039
H32   H     H_    0.698342 0.315321 0.406938 0.181352
O1    O     O_3   0.000000 0.500000 0.000000 -0.485848
O2    O     O_R   0.324760 0.053850 0.939900 -0.662535
O3    O     O_R   0.443270 0.883090 0.060070 -0.647026
O4    O     O_R   0.053940 0.324750 0.939940 -0.647871
O5    O     O_R   0.616890 0.176890 0.060090 -0.644702
O6    O     O_R   0.323100 0.883090 0.939900 -0.646378
O7    O     O_R   0.616910 0.056740 0.939940 -0.651469
O8    O     O_R   0.615250 0.885990 0.939940 -0.643287
O9    O     O_R   0.446110 0.175200 0.060060 -0.569954
O10   O     O_R   0.614030 0.053850 0.229160 -0.646107
O11   O     O_R   0.324790 0.884790 0.770830 -0.643417
O12   O     O_R   0.053880 0.613970 0.229150 -0.643225
O13   O     O_R   0.884790 0.613970 0.060060 -0.645828
O14   O     O_R   0.175250 0.615170 0.229170 -0.644754
O15   O     O_R   0.886020 0.446110 0.770840 -0.643465
O16   O     O_R   0.176940 0.616860 0.060100 -0.648238
O17   O     O_R   0.883150 0.323060 0.939910 -0.649845
O18   O     O_R   0.056770 0.616860 0.939930 -0.647873
O19   O     O_R   0.883130 0.443210 0.060060 -0.647343
O20   O     O_3   0.426891 0.324362 0.151195 -0.734265
O21   O     O_R   0.884840 0.324750 0.770840 -0.645615
O22   O     O_R   0.175280 0.446110 0.060100 -0.641125
O23   O     O_R   0.885990 0.615170 0.939900 -0.643880
O24   O     O_3   0.500040 0.999960 0.000000 -0.492731
O25   O     O_R   0.615200 0.175200 0.229160 -0.635160
O26   O     O_R   0.446160 0.885990 0.770850 -0.646283
O27   O     O_R   0.614060 0.884790 0.060100 -0.644146
Zn1   Zn    Zn3+2 0.956210 0.542060 0.085830 0.958457
Zn2   Zn    Zn3+2 0.129620 0.543770 0.085850 0.966267
Zn3   Zn    Zn3+2 0.957930 0.543770 0.914160 0.960822
Zn4   Zn    Zn3+2 0.956240 0.370390 0.914160 0.959191
Zn5   Zn    Zn3+2 0.543830 0.957900 0.914170 0.954088
Zn6   Zn    Zn3+2 0.542120 0.956180 0.085840 0.967850
Zn7   Zn    Zn3+2 0.370430 0.956180 0.914150 0.959390
Zn8   Zn    Zn3+2 0.543800 0.129560 0.085840 0.992914

loop_
_geom_bond_atom_site_label_1
_geom_bond_atom_site_label_2
_ccdc_geom_bond_type
O1    Zn1   S    
O24   Zn6   S    
O9    Zn8   S    
C9    H5    S    
C16   C21   S    
C25   O8    A    
C11   H7    S    
C35   C36   S    
C1    C11   S    
C20   H16   S    
C27   O6    A    
C17   H11   S    
O16   Zn2   S    
C36   H27   S    
C33   H25   S    
C12   C23   S    
C40   H30   S    
O8    Zn5   S    
C35   H18   S    
C24   O26   A    
C22   O10   A    
C24   O11   A    
C38   C39   D    
O10   Zn6   S    
C14   H9    S    
O15   Zn3   S    
C16   O12   A    
C18   C19   D    
C15   H10   S    
C12   C37   S    
O18   Zn3   S    
C18   H13   S    
C36   H19   S    
C25   O27   A    
C5    C22   S    
O22   Zn2   S    
C1    O22   A    
C31   O17   A    
C10   H6    S    
C32   H1    S    
C8    O20   S    
C14   C27   S    
C18   C20   S    
O23   Zn3   S    
C30   O18   A    
C3    C6    S    
O4    Zn4   S    
O1    Zn2   S    
C22   O25   A    
C13   C14   D    
O17   Zn4   S    
C16   O14   A    
C17   C30   S    
O21   Zn4   S    
C27   O3    A    
C9    C26   S    
O27   Zn6   S    
O12   Zn1   S    
O5    Zn8   S    
C37   H12   S    
C8    C9    D    
C4    O13   A    
C12   H26   S    
C29   C34   S    
C7    C28   S    
C28   O21   A    
O25   Zn8   S    
C2    C4    S    
C21   H17   S    
O2    Zn7   S    
C4    O23   A    
C29   O7    A    
C28   O15   A    
C33   C34   S    
C39   H29   S    
C7    H4    S    
O1    Zn3   S    
O24   Zn8   S    
C38   H28   S    
O3    Zn6   S    
C26   O9    A    
C23   C35   S    
O24   Zn5   S    
O19   Zn1   S    
O7    Zn5   S    
H24   O20   S    
C30   O16   A    
C2    H31   S    
C5    H2    S    
C19   H15   S    
C33   H14   S    
C15   C17   D    
O24   Zn7   S    
C1    O4    A    
C3    C5    D    
C13   H8    S    
C37   H21   S    
C6    C7    D    
C34   C37   S    
C31   O19   A    
O11   Zn7   S    
O6    Zn7   S    
C32   C33   S    
C6    H22   S    
C13   C15   S    
C19   C24   S    
O13   Zn1   S    
C23   C32   S    
C38   C40   S    
O26   Zn5   S    
C26   O2    A    
C32   H3    S    
C3    H32   S    
C34   C36   S    
C10   C11   D    
C12   H20   S    
C2    C40   D    
O1    Zn4   S    
C29   O5    A    
C20   C21   D    
C8    C10   S    
C35   H23   S    
O14   Zn2   S    
C25   C39   S    
C23   C31   S    
