data_mof_unit_30944.cif
_audit_creation_date              2012-12-10T17:36:35-0500
_audit_creation_method            fapswitch 2.2
_symmetry_space_group_name_H-M    P1
_symmetry_Int_Tables_number       1
_space_group_crystal_system       triclinic
_cell_length_a                    12.061474
_cell_length_b                    12.848545
_cell_length_c                    15.703783
_cell_angle_alpha                 90.800608
_cell_angle_beta                  83.848403
_cell_angle_gamma                 93.348346
_cell_volume                      2415.43591267

loop_
_atom_site_label
_atom_site_type_symbol
_atom_type_description
_atom_site_fract_x
_atom_site_fract_y
_atom_site_fract_z
_atom_type_partial_charge
C1    C     C_R   0.522077 0.699937 0.497672 0.915502
C2    C     C_R   0.533585 0.023155 0.530536 0.098746
C3    C     C_R   0.955077 0.381069 0.442517 0.328083
C4    C     C_R   0.045065 0.618989 0.556922 0.321363
C5    C     C_R   0.843717 0.404922 0.432774 0.371577
C6    C     C_R   0.156479 0.595606 0.566622 0.399249
C7    C     C_R   0.857093 0.549319 0.527164 0.012768
C8    C     C_R   0.142981 0.450493 0.472979 0.013647
C9    C     C_R   0.975374 0.543273 0.520515 -0.147981
C10   C     C_R   0.024654 0.456453 0.479516 -0.152794
C11   C     C_R   0.498068 0.499774 0.662115 0.899383
C12   C     C_R   0.477973 0.300051 0.503029 0.923336
C13   C     C_R   0.501962 0.500537 0.337912 0.893960
C14   C     C_3   0.516512 0.602468 0.026835 -0.367182
C15   C     C_3   0.483231 0.401972 0.973435 -0.358637
C16   C     C_3   0.595698 0.543333 0.961585 0.383534
C17   C     C_3   0.403991 0.461077 0.038673 0.379274
C18   C     C_1   0.493868 0.499336 0.751196 -0.048376
C19   C     C_1   0.506277 0.502630 0.248901 -0.056383
C20   C     C_3   0.415972 0.557972 0.981579 0.363027
C21   C     C_3   0.583702 0.446481 0.018652 0.400120
C22   C     C_3   0.495416 0.500376 0.917123 -0.197966
C23   C     C_R   0.605926 0.962728 0.570414 -0.154502
C24   C     C_3   0.504352 0.504030 0.083105 -0.203136
C25   C     C_1   0.492854 0.499280 0.826520 0.189067
C26   C     C_1   0.507180 0.504126 0.173637 0.186955
C27   C     C_R   0.464768 0.189146 0.500732 -0.059585
C28   C     C_R   0.535401 0.810865 0.499460 -0.059666
C29   C     C_3   0.711578 0.207109 0.583976 -0.606817
C30   C     C_3   0.444699 0.804295 0.312567 -0.712929
C31   C     C_R   0.393323 0.037311 0.429898 -0.154593
C32   C     C_R   0.607644 0.857339 0.554054 -0.197986
C33   C     C_R   0.394091 0.143166 0.444676 -0.166210
C34   C     C_R   0.464667 0.868861 0.456101 0.160754
C35   C     C_R   0.532308 0.130302 0.546338 0.127419
C36   C     C_R   0.463129 0.976123 0.471695 0.085938
H1    H     H_    0.530278 0.683788 0.049886 0.233508
H2    H     H_    0.117163 0.348458 0.057093 0.404712
H3    H     H_    0.820101 0.281400 0.976183 0.394988
H4    H     H_    0.176986 0.642977 0.059877 0.404643
H5    H     H_    0.579184 0.147432 0.670129 0.240999
H6    H     H_    0.765557 0.155024 0.614744 0.236193
H7    H     H_    0.731352 0.288387 0.604716 0.245376
H8    H     H_    0.731395 0.201887 0.513393 0.278062
H9    H     H_    0.312462 0.838368 0.404462 0.257419
H10   H     H_    0.462898 0.881543 0.281639 0.256920
H11   H     H_    0.386687 0.756765 0.275291 0.261378
H12   H     H_    0.469490 0.320614 0.950470 0.233854
H13   H     H_    0.523311 0.763145 0.311939 0.233870
H14   H     H_    0.149879 0.715805 0.782244 0.417192
H15   H     H_    0.851027 0.288891 0.215526 0.409801
H16   H     H_    0.125386 0.191254 0.323028 0.389719
H17   H     H_    0.893699 0.847671 0.516903 0.390043
H18   H     H_    0.343168 0.190067 0.409221 0.184129
H19   H     H_    0.661058 0.811006 0.587746 0.192794
H20   H     H_    0.660722 0.995452 0.615166 0.177321
H21   H     H_    0.340290 0.005443 0.383549 0.170242
H22   H     H_    0.184120 0.390241 0.435220 0.214520
H23   H     H_    0.816212 0.609661 0.565044 0.210914
H24   H     H_    0.879486 0.662768 0.945521 0.407422
N1    N     N_R   0.207800 0.519340 0.515560 -0.189318
N2    N     N_R   0.792200 0.480660 0.484440 -0.191938
N3    N     N_2   0.594626 0.179386 0.609844 -0.336989
N4    N     N_2   0.393948 0.817024 0.399459 -0.305367
O1    O     O_R   0.421700 0.658830 0.504150 -0.564275
O2    O     O_2   0.696893 0.691110 0.856431 -0.252633
O3    O     O_3   0.809430 0.638099 0.979872 -0.470857
O4    O     O_2   0.303279 0.308120 0.138681 -0.250515
O5    O     O_2   0.228844 0.481591 0.157638 -0.276435
O6    O     O_3   0.186594 0.373420 0.022086 -0.476418
O7    O     O_2   0.777839 0.441648 0.087550 -0.211473
O8    O     O_2   0.647762 0.287590 0.107483 -0.262947
O9    O     O_3   0.757056 0.317620 0.956900 -0.491354
O10   O     O_2   0.353572 0.716731 0.891640 -0.222761
O11   O     O_2   0.222387 0.564228 0.911474 -0.219607
O12   O     O_R   0.578300 0.341170 0.495850 -0.581157
O13   O     O_3   0.243395 0.689552 0.041754 -0.494756
O14   O     O_2   0.220770 0.536314 0.714923 -0.249924
O15   O     O_2   0.315334 0.696848 0.652797 -0.269641
O16   O     O_3   0.115459 0.703378 0.728227 -0.440297
O17   O     O_2   0.685768 0.304780 0.345462 -0.279470
O18   O     O_2   0.779200 0.467023 0.285383 -0.244538
O19   O     O_3   0.885851 0.301045 0.269399 -0.435067
O20   O     O_2   0.064431 0.219227 0.489929 -0.310051
O21   O     O_2   0.907867 0.176994 0.406429 -0.245208
O22   O     O_3   0.092107 0.260057 0.327450 -0.477214
O23   O     O_R   0.609310 0.646410 0.494170 -0.633690
O24   O     O_2   0.922509 0.747587 0.659934 -0.232167
O25   O     O_2   0.096433 0.823780 0.583557 -0.220444
O26   O     O_3   0.927620 0.782003 0.497137 -0.555910
O27   O     O_R   0.390690 0.353590 0.505830 -0.632788
O28   O     O_R   0.406210 0.506220 0.628210 -0.535635
O29   O     O_R   0.593790 0.493780 0.371790 -0.532242
O30   O     O_R   0.593830 0.493800 0.618230 -0.633521
O31   O     O_R   0.406170 0.506200 0.381770 -0.623252
O32   O     O_2   0.775960 0.519036 0.848342 -0.231044
S1    S     S_3+6 0.722406 0.599044 0.907462 0.116767
S2    S     S_3+6 0.277881 0.404723 0.093308 0.091383
S3    S     S_3+6 0.694506 0.371792 0.046129 0.103337
S4    S     S_3+6 0.305989 0.633297 0.953397 0.113546
S5    S     S_3+6 0.206484 0.633501 0.666097 0.133325
S6    S     S_3+6 0.794200 0.368919 0.332772 0.130982
S7    S     S_3+6 0.003449 0.254548 0.417812 0.059227
S8    S     S_3+6 0.998702 0.746806 0.577635 0.075723
Zn1   Zn    Zn3+2 0.374730 0.508290 0.506660 1.060151
Zn2   Zn    Zn3+2 0.625270 0.491710 0.493340 1.041483

loop_
_geom_bond_atom_site_label_1
_geom_bond_atom_site_label_2
_ccdc_geom_bond_type
C2    C35   A    
C1    O23   A    
C29   N3    S    
C11   C18   S    
C16   C21   S    
O19   S6    S    
C30   N4    S    
C29   H6    S    
O27   Zn1   S    
C12   O27   A    
H2    O6    S    
C23   H20   S    
C27   C33   A    
C14   C24   S    
C13   O31   A    
C6    N1    A    
C24   C26   S    
C21   S3    S    
C16   S1    S    
C2    C36   A    
C17   C20   S    
O13   S4    S    
O9    S3    S    
C6    S5    S    
O1    Zn1   S    
C19   C26   T    
O31   Zn1   S    
C8    H22   S    
C11   O28   A    
C15   C22   S    
H24   O3    S    
C22   C25   S    
C1    C28   S    
C1    O1    A    
C31   C33   A    
N1    Zn1   S    
C9    C10   A    
C32   H19   S    
O21   S7    D    
C8    N1    A    
O5    S2    D    
C28   C34   A    
C29   H7    S    
O14   S5    D    
C18   C25   T    
C15   H12   S    
O22   S7    S    
C7    H23   S    
O24   S8    D    
O17   S6    D    
C17   C24   S    
C13   C19   S    
C12   C27   S    
C14   C20   S    
C30   H11   S    
C28   C32   A    
C4    C6    A    
O10   S4    D    
C27   C35   A    
O7    S3    D    
C16   C22   S    
C7    N2    A    
O29   Zn2   S    
C20   S4    S    
O32   S1    D    
C34   N4    S    
O18   S6    D    
O26   S8    S    
C11   O30   A    
C30   H13   S    
C20   C22   S    
C12   O12   A    
O25   S8    D    
C14   C16   S    
H5    N3    S    
H15   O19   S    
H17   O26   S    
O2    S1    D    
C17   S2    S    
C3    S7    S    
C33   H18   S    
C15   C17   S    
C5    S6    S    
O30   Zn2   S    
O12   Zn2   S    
C31   C36   A    
C30   H10   S    
C3    C5    A    
H14   O16   S    
N2    Zn2   S    
H9    N4    S    
O16   S5    S    
C23   C32   A    
C31   H21   S    
H16   O22   S    
C29   H8    S    
C3    C10   A    
C14   H1    S    
O23   Zn2   S    
C4    S8    S    
O11   S4    D    
C5    N2    A    
C34   C36   A    
H3    O9    S    
O4    S2    D    
O3    S1    S    
C7    C9    A    
O28   Zn1   S    
C15   C21   S    
C8    C10   A    
C21   C24   S    
C13   O29   A    
C2    C23   A    
O20   S7    D    
H4    O13   S    
O15   S5    D    
C35   N3    S    
C4    C9    A    
O6    S2    S    
O8    S3    D    
