data_mof_unit_34210.cif
_audit_creation_date              2012-12-11T15:29:44-0500
_audit_creation_method            fapswitch 2.2
_symmetry_space_group_name_H-M    P1
_symmetry_Int_Tables_number       1
_space_group_crystal_system       triclinic
_cell_length_a                    21.410626
_cell_length_b                    7.247407
_cell_length_c                    14.772483
_cell_angle_alpha                 90.496791
_cell_angle_beta                  74.40185
_cell_angle_gamma                 89.87399
_cell_volume                      2207.73984166

loop_
_atom_site_label
_atom_site_type_symbol
_atom_type_description
_atom_site_fract_x
_atom_site_fract_y
_atom_site_fract_z
_atom_type_partial_charge
O1    O     O_R   0.464160 0.506670 0.130070 -0.534665
O2    O     O_R   0.535840 0.006670 0.869930 -0.534977
O3    O     O_R   0.589710 0.179080 0.006710 -0.545636
O4    O     O_R   0.410290 0.679080 0.993290 -0.544624
C1    C     C_R   0.616331 0.343997 0.002040 0.648792
C2    C     C_R   0.383684 0.844614 0.998002 0.649642
O5    O     O_R   0.467940 0.177220 0.138010 -0.538502
O6    O     O_R   0.532060 0.677220 0.861990 -0.538347
O7    O     O_R   0.413200 0.002810 0.002170 -0.540978
O8    O     O_R   0.586800 0.502810 0.997830 -0.539732
C3    C     C_R   0.456256 0.346511 0.174326 0.684838
C4    C     C_R   0.543781 0.844520 0.825582 0.684953
O9    O     O_3   0.482180 0.337850 0.955280 -0.376366
O10   O     O_3   0.517820 0.837850 0.044720 -0.376532
V1    V     V_3+5 0.503310 0.064600 0.008300 1.390949
V2    V     V_3+5 0.496690 0.564600 0.991700 1.393490
C5    C     C_R   0.571511 0.847682 0.723886 -0.026530
C6    C     C_R   0.428362 0.359350 0.275811 -0.026478
C7    C     C_R   0.928459 0.870066 0.276273 -0.027226
C8    C     C_R   0.071663 0.359034 0.724013 -0.027239
C9    C     C_R   0.560315 0.796780 0.567494 -0.163558
C10   C     C_R   0.439014 0.436580 0.430011 -0.162850
C11   C     C_R   0.532594 0.810245 0.663959 -0.173441
C12   C     C_R   0.466932 0.410995 0.334189 -0.174075
C13   C     C_R   0.638350 0.871007 0.687518 -0.215782
C14   C     C_R   0.361718 0.333807 0.312979 -0.215550
C15   C     C_R   0.668195 0.853514 0.589840 0.083318
C16   C     C_R   0.331698 0.362440 0.409907 0.083039
C17   C     C_R   0.627551 0.816266 0.530133 0.142483
C18   C     C_R   0.371957 0.414250 0.468118 0.141848
C19   C     C_R   0.736756 0.868496 0.549825 0.060026
C20   C     C_R   0.263328 0.343995 0.450537 0.059722
C21   C     C_R   0.763333 0.846230 0.450448 0.059705
C22   C     C_R   0.236542 0.377511 0.549057 0.059372
C23   C     C_R   0.720492 0.809765 0.394474 -0.194024
C24   C     C_R   0.278981 0.428511 0.603571 -0.193715
C25   C     C_R   0.654160 0.795732 0.433694 -0.205965
C26   C     C_R   0.345137 0.445889 0.563750 -0.205442
C27   C     C_R   0.779629 0.904117 0.605847 -0.193296
C28   C     C_R   0.220848 0.293868 0.395944 -0.193087
C29   C     C_R   0.845949 0.918410 0.566619 -0.206070
C30   C     C_R   0.154706 0.276225 0.435782 -0.205651
C31   C     C_R   0.872516 0.899027 0.470121 0.142661
C32   C     C_R   0.127942 0.306678 0.531515 0.142054
C33   C     C_R   0.831866 0.861994 0.410393 0.083307
C34   C     C_R   0.168210 0.358257 0.589755 0.083037
C35   C     C_R   0.939712 0.919424 0.432735 -0.163410
C36   C     C_R   0.060933 0.283424 0.569682 -0.162696
C37   C     C_R   0.967384 0.907147 0.336226 -0.174013
C38   C     C_R   0.033077 0.307786 0.665595 -0.174691
C39   C     C_R   0.861663 0.845807 0.312650 -0.216082
C40   C     C_R   0.138254 0.385536 0.686797 -0.215739
H1    H     H_    0.623335 0.766867 0.387856 0.119837
H2    H     H_    0.375652 0.485899 0.608446 0.119565
H3    H     H_    0.834535 0.820378 0.262131 0.089441
H4    H     H_    0.165087 0.422661 0.736263 0.089127
H5    H     H_    0.019054 0.928215 0.308150 0.099215
H6    H     H_    0.981550 0.285357 0.694428 0.099591
H7    H     H_    0.876792 0.946738 0.612494 0.119453
H8    H     H_    0.124166 0.236772 0.391030 0.119165
H9    H     H_    0.529268 0.767676 0.522060 0.111725
H10   H     H_    0.469767 0.476646 0.474291 0.112059
H11   H     H_    0.480895 0.789690 0.692034 0.099250
H12   H     H_    0.518491 0.432919 0.305379 0.099614
H13   H     H_    0.665456 0.896906 0.738014 0.089146
H14   H     H_    0.334913 0.296197 0.263554 0.088811
H15   H     H_    0.736433 0.790196 0.319496 0.118507
H16   H     H_    0.262852 0.457147 0.677811 0.118906
H17   H     H_    0.763734 0.922600 0.680888 0.117329
H18   H     H_    0.236918 0.266353 0.321601 0.117576
H19   H     H_    0.970762 0.948327 0.478192 0.111949
H20   H     H_    0.030174 0.243585 0.525369 0.112286
C41   C     C_3   0.228824 0.769777 0.909614 -0.318521
C42   C     C_3   0.787615 0.159843 0.005351 -0.311564
H21   H     H_    0.223207 0.846683 0.847381 0.128825
H22   H     H_    0.793872 0.094287 0.070259 0.136628
C43   C     C_3   0.301679 0.763604 0.908268 -0.328551
C44   C     C_3   0.715326 0.153186 0.006599 -0.313972
H23   H     H_    0.330898 0.837627 0.845442 0.122371
H24   H     H_    0.687456 0.084314 0.072053 0.137971
H25   H     H_    0.318631 0.617598 0.901719 0.139860
H26   H     H_    0.710047 0.067599 0.946150 0.134173
H27   H     H_    0.179020 0.610091 0.084108 0.143472
H28   H     H_    0.831172 0.370822 0.845488 0.121540
H29   H     H_    0.286160 0.600700 0.082432 0.138598
H30   H     H_    0.723515 0.361011 0.847389 0.127935
C45   C     C_3   0.197163 0.753455 0.086052 -0.326483
C46   C     C_3   0.801779 0.447258 0.908256 -0.325989
C47   C     C_3   0.214861 0.061251 0.006459 -0.310111
C48   C     C_3   0.770055 0.470834 0.084746 -0.318304
C49   C     C_3   0.187408 0.863524 0.001171 0.121202
C50   C     C_3   0.812662 0.361995 0.998967 0.121813
H31   H     H_    0.186907 0.132766 0.071875 0.136318
H32   H     H_    0.785931 0.617268 0.082281 0.136912
H33   H     H_    0.209481 0.144412 0.945953 0.137708
H34   H     H_    0.776305 0.411705 0.151049 0.128390
C51   C     C_3   0.312415 0.852640 0.998946 0.120619
C52   C     C_3   0.687656 0.350521 0.001184 0.119908
C53   C     C_3   0.269997 0.747152 0.084801 -0.315294
C54   C     C_3   0.728942 0.440627 0.909562 -0.315158
C55   C     C_3   0.287157 0.054875 0.005232 -0.315492
C56   C     C_3   0.697225 0.464164 0.086006 -0.328668
H35   H     H_    0.315888 0.134846 0.944203 0.139773
H36   H     H_    0.668647 0.401791 0.152872 0.122269
H37   H     H_    0.293326 0.122961 0.070118 0.133055
H38   H     H_    0.678801 0.607353 0.083970 0.141493
H39   H     H_    0.168460 0.818504 0.152859 0.121746
H40   H     H_    0.818421 0.593100 0.901662 0.141580
H41   H     H_    0.276119 0.809097 0.151061 0.128122
H42   H     H_    0.711233 0.583303 0.903567 0.137656
O11   O     O_R   0.913210 0.208550 0.002110 -0.539566
O12   O     O_R   0.086790 0.708550 0.997890 -0.538717
O13   O     O_R   0.032060 0.539960 0.861980 -0.538376
O14   O     O_R   0.967940 0.039960 0.138020 -0.538451
C57   C     C_R   0.043776 0.371596 0.825500 0.687671
C58   C     C_R   0.956180 0.873538 0.174587 0.687591
O15   O     O_R   0.910290 0.538020 0.993280 -0.544563
O16   O     O_R   0.089710 0.038020 0.006720 -0.545245
O17   O     O_R   0.964160 0.712340 0.130090 -0.535441
O18   O     O_R   0.035840 0.212340 0.869910 -0.535342
C59   C     C_R   0.883997 0.369892 0.997986 0.640931
C60   C     C_R   0.116027 0.870040 0.002080 0.641247
O19   O     O_3   0.017820 0.379210 0.044690 -0.375865
O20   O     O_3   0.982180 0.879210 0.955310 -0.376106
V3    V     V_3+5 0.996690 0.652500 0.991710 1.392703
V4    V     V_3+5 0.003310 0.152500 0.008290 1.393023
H43   H     H_    0.211407 0.626737 0.903753 0.135465
H44   H     H_    0.816438 0.077444 0.944347 0.138393

loop_
_geom_bond_atom_site_label_1
_geom_bond_atom_site_label_2
_ccdc_geom_bond_type
H27   C45   S    
C3    C6    S    
C54   H42   S    
C45   C49   S    
O11   C59   A    
C21   C33   A    
O1    C3    A    
O2    C4    A    
C2    O7    A    
C27   C29   A    
O5    C3    A    
C5    C11   A    
C28   H18   S    
C6    C12   A    
C23   C25   A    
C36   C38   A    
C46   H40   S    
C44   H24   S    
O13   V3    S    
C33   C39   A    
C53   H41   S    
C34   C40   A    
C37   H5    S    
C15   C17   A    
C18   C26   A    
O16   C60   A    
C42   C50   S    
C7    C37   A    
C48   C56   S    
C8    C38   A    
C42   H44   S    
C46   C50   S    
C49   C60   S    
C6    C14   A    
C4    C5    S    
C44   C52   S    
C19   C21   A    
C43   C51   S    
C22   C34   A    
C23   H15   S    
C47   C49   S    
H30   C54   S    
C9    H9    S    
C25   H1    S    
C11   H11   S    
C41   C49   S    
O6    V2    S    
C29   C31   A    
C30   C32   A    
C36   H20   S    
O4    V2    S    
C51   C53   S    
C32   C34   A    
C48   H32   S    
C45   C53   S    
C43   H23   S    
C55   H37   S    
C15   C19   A    
C14   H14   S    
C2    C51   S    
C16   C20   A    
C13   H13   S    
C29   H7    S    
C35   C37   A    
C30   H8    S    
O19   V4    S    
O5    V1    S    
C52   C56   S    
C9    C17   A    
C38   H6    S    
C47   H33   S    
O12   C60   A    
H29   C53   S    
C10   H10   S    
C44   H26   S    
C48   C50   S    
C26   H2    S    
C43   H25   S    
O6    C4    A    
O11   V4    S    
C27   H17   S    
O1    V2    S    
C56   H36   S    
O2    V1    S    
C31   C33   A    
C35   H19   S    
O12   V3    S    
C46   C54   S    
O18   V4    S    
C42   H22   S    
O17   V3    S    
O4    C2    A    
C52   C54   S    
C9    C11   A    
C10   C12   A    
C41   H21   S    
O3    V1    S    
C55   H35   S    
C10   C18   A    
C47   C55   S    
H28   C46   S    
O3    C1    A    
C8    C57   S    
O14   C58   A    
C24   H16   S    
C48   H34   S    
O15   C59   A    
C13   C15   A    
C14   C16   A    
C58   O17   A    
C5    C13   A    
C24   C26   A    
O7    V1    S    
C16   C18   A    
C8    C40   A    
C32   C36   A    
C41   H43   S    
C50   C59   S    
C31   C35   A    
C7    C58   S    
O14   V4    S    
C28   C30   A    
C21   C23   A    
C22   C24   A    
C19   C27   A    
C56   H38   S    
C39   H3    S    
C20   C28   A    
C47   H31   S    
C7    C39   A    
C1    O8    A    
C45   H39   S    
C1    C52   S    
C12   H12   S    
C57   O18   A    
C42   C44   S    
O9    V2    S    
C17   C25   A    
C41   C43   S    
O10   V1    S    
O8    V2    S    
O16   V4    S    
O15   V3    S    
C51   C55   S    
C40   H4    S    
C20   C22   A    
O20   V3    S    
O13   C57   A    
