data_mof_unit_9009.cif
_audit_creation_date              2013-03-05T16:09:16-0500
_audit_creation_method            fapswitch 2.2
_symmetry_space_group_name_H-M    P1
_symmetry_Int_Tables_number       1
_space_group_crystal_system       triclinic
_cell_length_a                    8.594925
_cell_length_b                    10.677901
_cell_length_c                    9.855892
_cell_angle_alpha                 90.156972
_cell_angle_beta                  98.623975
_cell_angle_gamma                 90.202729
_cell_volume                      894.294581999

loop_
_atom_site_label
_atom_site_type_symbol
_atom_site_description
_atom_site_fract_x
_atom_site_fract_y
_atom_site_fract_z
_atom_type_partial_charge
O1    O     O_R   0.499990 0.316750 0.614620 -0.602616
O2    O     O_R   0.500010 0.683250 0.385380 -0.602605
O3    O     O_R   0.499990 0.316780 0.385290 -0.596873
O4    O     O_R   0.500010 0.683220 0.614710 -0.596856
C1    C     C_R   0.499249 0.260322 0.499625 1.020765
C2    C     C_R   0.500749 0.739678 0.500375 1.020738
O5    O     O_R   0.271750 0.499990 0.587840 -0.607596
O6    O     O_R   0.728250 0.500010 0.412160 -0.607591
O7    O     O_R   0.271750 0.500010 0.358510 -0.637506
O8    O     O_R   0.728250 0.499990 0.641490 -0.637508
C3    C     C_R   0.201125 0.500182 0.464089 1.012577
C4    C     C_R   0.798875 0.499819 0.535911 1.012625
Zn1   Zn    Zn3+2 0.500000 0.499980 0.653120 1.040310
Zn2   Zn    Zn3+2 0.500000 0.500020 0.346880 1.040306
N1    N     N_R   0.499960 0.499970 0.857200 -0.101409
N2    N     N_R   0.500040 0.500030 0.142800 -0.101413
C5    C     C_2   0.036005 0.500249 0.444786 -0.223455
C6    C     C_2   0.963995 0.499753 0.555214 -0.223445
H1    H     H_    0.974139 0.500696 0.340050 0.171666
H2    H     H_    0.025861 0.499307 0.659950 0.171663
C7    C     C_R   0.608234 0.065155 0.431513 0.214433
C8    C     C_R   0.391770 0.934846 0.568490 0.214460
C9    C     C_R   0.610610 0.935680 0.433090 0.211626
C10   C     C_R   0.389391 0.064320 0.566910 0.211600
C11   C     C_R   0.501745 0.872155 0.501228 -0.354968
C12   C     C_R   0.498256 0.127845 0.498773 -0.354969
C13   C     C_R   0.603529 0.573241 0.085616 -0.019198
C14   C     C_R   0.396471 0.426758 0.914384 -0.019206
H3    H     H_    0.686478 0.631700 0.150991 0.178481
H4    H     H_    0.313522 0.368300 0.849009 0.178465
C15   C     C_R   0.603417 0.573277 0.941812 -0.017081
C16   C     C_R   0.396583 0.426723 0.058188 -0.017108
H5    H     H_    0.686128 0.631935 0.898386 0.155450
H6    H     H_    0.313872 0.368065 0.101613 0.155449
N3    N     N_R   0.724889 0.133043 0.371272 0.251311
O9    O     O_R   0.832312 0.197322 0.449065 -0.347984
O10   O     O_R   0.711053 0.144316 0.238608 -0.302079
N4    N     N_R   0.275125 0.866957 0.628743 0.251334
O11   O     O_R   0.167644 0.802736 0.550954 -0.347927
O12   O     O_R   0.289038 0.855607 0.761394 -0.302123
N5    N     N_R   0.729495 0.869251 0.373998 0.238525
O13   O     O_R   0.744913 0.885657 0.245930 -0.317151
O14   O     O_R   0.822196 0.791449 0.448118 -0.367252
N6    N     N_R   0.270510 0.130749 0.626012 0.238507
O15   O     O_R   0.255039 0.114291 0.754047 -0.317137
O16   O     O_R   0.177796 0.208543 0.551891 -0.367237

loop_
_geom_bond_atom_site_label_1
_geom_bond_atom_site_label_2
_geom_bond_distance
_ccdc_geom_bond_type
N4    O12   1.300905 A    
O7    Zn2   1.982221 S    
C15   H5    1.081867 S    
N1    C15   1.366731 A    
C7    N3    1.434924 S    
C13   H3    1.081650 S    
N5    O14   1.300810 A    
N5    O13   1.301022 A    
N3    O9    1.300675 A    
C9    N5    1.437977 S    
C14   C16   1.417170 A    
O6    C4    1.278305 A    
N2    C13   1.366670 A    
C14   H4    1.081649 S    
C5    C6    1.330280 D    
N6    O15   1.300899 A    
O5    C3    1.278306 A    
O7    C3    1.280899 A    
N1    C14   1.366669 A    
O2    C2    1.281292 A    
O3    Zn2   1.993923 S    
O8    C4    1.280898 A    
O1    C1    1.281290 A    
C8    C10   1.382835 A    
N3    O10   1.300993 A    
C7    C12   1.403932 A    
C10   C12   1.404650 A    
C6    H2    1.088013 S    
Zn1   N1    2.011443 S    
C7    C9    1.382842 A    
N4    O11   1.300636 A    
O2    Zn2   1.991945 S    
Zn2   N2    2.011442 S    
C2    C11   1.414562 S    
O1    Zn1   1.991944 S    
C13   C15   1.417169 A    
C1    C12   1.414561 S    
C8    N4    1.434931 S    
O5    Zn1   1.970800 S    
C9    C11   1.404658 A    
C10   N6    1.437994 S    
O4    C2    1.280297 A    
C4    C6    1.403332 S    
O4    Zn1   1.993924 S    
N2    C16   1.366730 A    
C3    C5    1.403332 S    
O6    Zn2   1.970800 S    
C5    H1    1.088013 S    
O8    Zn1   1.982221 S    
N6    O16   1.300812 A    
O3    C1    1.280299 A    
C8    C11   1.403922 A    
C16   H6    1.081865 S    
