data_mof_unit_59298.cif
_audit_creation_date              2012-12-10T17:02:58-0500
_audit_creation_method            fapswitch 2.2
_symmetry_space_group_name_H-M    P1
_symmetry_Int_Tables_number       1
_space_group_crystal_system       triclinic
_cell_length_a                    9.777528
_cell_length_b                    10.858226
_cell_length_c                    13.43369
_cell_angle_alpha                 93.821578
_cell_angle_beta                  81.718019
_cell_angle_gamma                 110.385117
_cell_volume                      1322.73848445

loop_
_atom_site_label
_atom_site_type_symbol
_atom_type_description
_atom_site_fract_x
_atom_site_fract_y
_atom_site_fract_z
_atom_type_partial_charge
C1    C     C_R   0.556323 0.746943 0.505112 0.749399
C2    C     C_R   0.439434 0.507450 0.972277 0.113784
C3    C     C_R   0.480151 0.544344 0.870093 0.091946
C4    C     C_R   0.550681 0.541838 0.037487 0.037914
C5    C     C_R   0.697793 0.621764 0.002354 0.020806
C6    C     C_R   0.728561 0.671558 0.905039 -0.156612
C7    C     C_R   0.621666 0.634952 0.840830 -0.183660
C8    C     C_R   0.519735 0.497593 0.136581 -0.215023
C9    C     C_R   0.771068 0.611252 0.166424 -0.231129
C10   C     C_R   0.377159 0.491297 0.800264 -0.090813
C11   C     C_2   0.587959 0.888910 0.498804 0.324228
C12   C     C_R   0.423710 0.494617 0.690747 0.792665
C13   C     C_2   0.506467 0.929457 0.444005 -0.333893
C14   C     C_2   0.423302 0.113846 0.478002 -0.351928
C15   C     C_2   0.527112 0.067587 0.429848 0.062225
C16   C     C_2   0.922511 0.488835 0.491901 -0.011927
C17   C     C_2   0.076507 0.509252 0.509481 -0.045002
C18   C     C_R   0.446596 0.254120 0.488776 0.908362
C19   C     C_R   0.578070 0.513701 0.309617 0.871400
C20   C     C_R   0.809225 0.652332 0.066578 0.349309
C21   C     C_R   0.626064 0.537300 0.202004 -0.103874
C22   C     C_R   0.229768 0.421840 0.835610 -0.163466
C23   C     C_R   0.185741 0.398630 0.937488 -0.121199
C24   C     C_R   0.288780 0.438361 0.005078 -0.120082
Cu1   Cu    Cu3+1 0.362000 0.479240 0.482530 0.984603
Cu2   Cu    Cu3+1 0.638000 0.520760 0.517470 1.025175
H1    H     H_    0.853385 0.640522 0.217538 0.201582
H2    H     H_    0.417937 0.858220 0.408281 0.164772
H3    H     H_    0.323737 0.046997 0.518841 0.163041
H4    H     H_    0.124287 0.577280 0.568359 0.163942
H5    H     H_    0.874015 0.419252 0.434111 0.184653
H6    H     H_    0.107128 0.384598 0.400359 0.214286
H7    H     H_    0.894149 0.618107 0.597828 0.207168
H8    H     H_    0.835282 0.739959 0.876995 0.223553
H9    H     H_    0.412265 0.432833 0.165972 0.161135
H10   H     H_    0.148625 0.382455 0.784101 0.168841
H11   H     H_    0.245717 0.415698 0.082633 0.133448
H12   H     H_    0.071334 0.345869 0.964041 0.154001
H13   H     H_    0.651246 0.681565 0.768507 0.200964
N1    N     N_2   0.845330 0.551960 0.543750 -0.282564
N2    N     N_2   0.154690 0.448120 0.456210 -0.273285
O1    O     O_R   0.426290 0.668220 0.490680 -0.608394
O2    O     O_R   0.659360 0.703290 0.520190 -0.522216
O3    O     O_R   0.326580 0.473880 0.629020 -0.574574
O4    O     O_R   0.559660 0.508940 0.658530 -0.573204
O5    O     O_R   0.340640 0.296710 0.479810 -0.555553
O6    O     O_R   0.573710 0.331780 0.509320 -0.532135
O7    O     O_R   0.440340 0.491060 0.341470 -0.585025
O8    O     O_R   0.673420 0.526120 0.370980 -0.565967
S1    S     S_3+6 0.731361 0.998423 0.562401 0.027396
O9    O     O_2   0.873982 0.031681 0.493252 -0.254693
O10   O     O_2   0.700920 0.122578 0.594866 -0.285530
O11   O     O_3   0.745901 0.924445 0.664501 -0.550417
H14   H     H_    0.833207 0.986631 0.692348 0.376314
S2    S     S_3+6 0.996737 0.742546 0.025677 0.012924
O12   O     O_2   0.011960 0.882148 0.007870 -0.243802
O13   O     O_2   0.092785 0.741717 0.103359 -0.270232
O14   O     O_3   0.053219 0.677030 0.917454 -0.517415
H15   H     H_    0.020062 0.581512 0.929599 0.334609
C25   C     C_2   0.653540 0.144226 0.356548 0.908479
O15   O     O_2   0.655649 0.246047 0.321561 -0.637032
O16   O     O_R   0.766631 0.094731 0.322697 -0.706565
H16   H     H_    0.845343 0.154019 0.272291 0.334290

loop_
_geom_bond_atom_site_label_1
_geom_bond_atom_site_label_2
_ccdc_geom_bond_type
Cu1   O1    S    
S1    O10   D    
H6    N2    S    
C13   H2    S    
C6    C7    A    
C12   O4    A    
C23   H12   S    
C22   H10   S    
C15   C25   S    
C14   C18   S    
C9    C20   A    
C2    C4    A    
C1    C11   S    
C4    C8    A    
C23   C24   A    
C9    C21   A    
C18   O6    A    
S2    O12   D    
C13   C15   S    
C24   H11   S    
O14   H15   S    
C12   O3    A    
C3    C10   A    
O11   H14   S    
C10   C22   A    
C16   H5    S    
C17   H4    S    
C11   C13   D    
Cu1   O7    S    
Cu2   N1    S    
O16   H16   S    
C10   C12   S    
Cu2   O6    S    
C16   N1    D    
C20   S2    S    
C18   O5    A    
Cu1   O3    S    
C19   C21   S    
Cu2   O2    S    
C2    C3    A    
C3    C7    A    
S2    O13   D    
C2    C24   A    
C5    C6    A    
C5    C20   A    
C17   N2    D    
S2    O14   S    
S1    O11   S    
C16   C17   S    
C14   H3    S    
H7    N1    S    
C1    O1    A    
C9    H1    S    
C25   O16   S    
Cu2   O8    S    
Cu1   N2    S    
C11   S1    S    
C19   O8    A    
C14   C15   D    
C4    C5    A    
C7    H13   S    
Cu2   O4    S    
S1    O9    D    
Cu1   Cu2   S    
C19   O7    A    
Cu1   O5    S    
C1    O2    A    
C22   C23   A    
C6    H8    S    
C25   O15   D    
C8    H9    S    
C8    C21   A    
