data_mof_unit_17029.cif
_audit_creation_date              2012-12-11T16:56:19-0500
_audit_creation_method            fapswitch 2.2
_symmetry_space_group_name_H-M    P1
_symmetry_Int_Tables_number       1
_space_group_crystal_system       triclinic
_cell_length_a                    6.957812
_cell_length_b                    14.540156
_cell_length_c                    16.198779
_cell_angle_alpha                 90.460502
_cell_angle_beta                  90.156135
_cell_angle_gamma                 89.922285
_cell_volume                      1638.7322842

loop_
_atom_site_label
_atom_site_type_symbol
_atom_type_description
_atom_site_fract_x
_atom_site_fract_y
_atom_site_fract_z
_atom_type_partial_charge
O1    O     O_R   0.505830 0.583360 0.413880 -0.537210
O2    O     O_R   0.175830 0.595460 0.585520 -0.543555
O3    O     O_R   0.005520 0.416640 0.586120 -0.541447
C1    C     C_R   0.344732 0.617427 0.614446 0.695568
O4    O     O_R   0.176120 0.594390 0.414490 -0.544249
O5    O     O_R   0.005810 0.415570 0.413870 -0.539843
C2    C     C_R   0.344757 0.616238 0.385880 0.691421
O6    O     O_R   0.505540 0.584430 0.586130 -0.537277
O7    O     O_3   0.339200 0.441330 0.500000 -0.368525
V1    V     V_3+5 0.064350 0.510880 0.500000 1.385805
O8    O     O_R   0.676100 0.404540 0.414480 -0.539955
C3    C     C_R   0.845070 0.382539 0.385730 0.694458
O9    O     O_R   0.675810 0.405610 0.585510 -0.538913
C4    C     C_R   0.845414 0.383519 0.613430 0.770359
V2    V     V_3+5 0.564340 0.489120 0.500000 1.397990
O10   O     O_3   0.839360 0.558670 0.500000 -0.374416
C5    C     C_2   0.714826 0.205888 0.782642 0.386155
C6    C     C_2   0.879639 0.183099 0.823030 -0.326564
C7    C     C_2   0.707958 0.278833 0.717539 -0.236590
C8    C     C_2   0.862075 0.313553 0.678761 -0.349818
H1    H     H_    0.566576 0.303352 0.699408 0.139627
C9    C     C_R   0.728336 0.181057 0.242997 0.098315
C10   C     C_R   0.882656 0.180447 0.187566 -0.107665
C11   C     C_R   0.033896 0.242514 0.203187 -0.178961
H2    H     H_    0.156263 0.244507 0.162348 0.134395
C12   C     C_R   0.022389 0.307195 0.268227 -0.178647
H3    H     H_    0.136935 0.356770 0.275728 0.127856
C13   C     C_R   0.858977 0.311979 0.319412 -0.110254
C14   C     C_R   0.716510 0.245317 0.307132 0.103677
C15   C     C_3   0.505654 0.257383 0.295166 -0.408553
C16   C     C_3   0.518390 0.186952 0.225615 -0.399122
H4    H     H_    0.421737 0.232941 0.348982 0.176659
H5    H     H_    0.488343 0.216089 0.163667 0.172486
H6    H     H_    0.442634 0.121598 0.239378 0.166670
C17   C     C_R   0.508051 0.681697 0.741405 0.106034
C18   C     C_R   0.353202 0.682193 0.685828 -0.113274
C19   C     C_R   0.201298 0.743534 0.702950 -0.179070
H7    H     H_    0.078425 0.746392 0.662156 0.132857
C20   C     C_R   0.212490 0.806375 0.769602 -0.171367
H8    H     H_    0.097369 0.855525 0.778124 0.127870
C21   C     C_R   0.376234 0.810112 0.821113 -0.114243
C22   C     C_R   0.519616 0.744158 0.807101 0.098646
C23   C     C_3   0.730100 0.757050 0.795490 -0.410891
C24   C     C_3   0.717669 0.688667 0.724270 -0.397611
H9    H     H_    0.815001 0.731201 0.848719 0.174427
H10   H     H_    0.794680 0.623109 0.736464 0.169420
C25   C     C_R   0.507444 0.681221 0.260359 0.100504
C26   C     C_R   0.352741 0.681246 0.315657 -0.112568
C27   C     C_R   0.201409 0.743193 0.299918 -0.179558
H11   H     H_    0.078756 0.745804 0.340602 0.133208
C28   C     C_R   0.213061 0.806994 0.234979 -0.177465
H12   H     H_    0.098238 0.856427 0.227448 0.126771
C29   C     C_R   0.376758 0.811135 0.183911 -0.108878
C30   C     C_R   0.519412 0.744593 0.196343 0.102643
C31   C     C_3   0.730130 0.756714 0.208572 -0.411267
C32   C     C_3   0.717264 0.687287 0.277937 -0.397390
H13   H     H_    0.814431 0.731447 0.154774 0.175472
H14   H     H_    0.746873 0.717308 0.339997 0.170417
H15   H     H_    0.793333 0.621698 0.264071 0.167651
O11   O     O_R   0.229930 0.912420 0.917160 -0.541839
O12   O     O_R   0.559420 0.902500 0.088780 -0.542864
O13   O     O_R   0.729660 0.081330 0.089380 -0.539913
C33   C     C_R   0.390549 0.880807 0.117556 0.683055
O14   O     O_R   0.559650 0.901420 0.917750 -0.538537
O15   O     O_R   0.729880 0.080250 0.917130 -0.498135
C34   C     C_R   0.390494 0.879597 0.888686 0.713021
O16   O     O_R   0.229700 0.913500 0.089410 -0.542489
O17   O     O_3   0.396250 0.055540 0.003280 -0.358390
V3    V     V_3+5 0.671130 0.986010 0.003260 1.439565
O18   O     O_R   0.059600 0.091310 0.917720 -0.545095
C35   C     C_R   0.889945 0.113124 0.889285 0.775956
O19   O     O_R   0.059370 0.092380 0.088750 -0.547187
C36   C     C_R   0.890647 0.114547 0.117346 0.681460
V4    V     V_3+5 0.171120 0.007820 0.003230 1.420005
O20   O     O_3   0.896130 0.938240 0.003240 -0.378740
O21   O     O_3   0.545879 0.161493 0.803237 -0.631707
H16   H     H_    0.440307 0.184439 0.767702 0.270786
H17   H     H_    0.765278 0.828008 0.775569 0.169858
H18   H     H_    0.746418 0.719718 0.663055 0.169695
H19   H     H_    0.766305 0.827252 0.230431 0.165783
H20   H     H_    0.013462 0.217364 0.808831 0.088046
H21   H     H_    0.005737 0.289945 0.693509 0.129191
H22   H     H_    0.469096 0.327621 0.273533 0.166257

loop_
_geom_bond_atom_site_label_1
_geom_bond_atom_site_label_2
_ccdc_geom_bond_type
C31   C32   S    
C1    C18   S    
C9    C14   A    
C8    H21   S    
C21   C22   A    
C7    C8    D    
C1    O6    A    
C20   C21   A    
C29   C30   A    
C23   H17   S    
C12   H3    S    
C19   H7    S    
C3    C13   S    
C13   C14   A    
C7    H1    S    
C11   C12   A    
O5    C3    A    
C15   C16   S    
O17   V4    S    
V2    O10   S    
C6    H20   S    
C15   H22   S    
O12   C33   A    
C17   C22   A    
O8    V2    S    
C17   C18   A    
O17   V3    S    
C27   C28   A    
O18   V4    S    
C5    O21   S    
C10   C11   A    
C16   H5    S    
O13   C36   A    
O18   C35   A    
O1    V2    S    
O7    V1    S    
O11   C34   A    
O9    C4    A    
C10   C36   S    
C24   H10   S    
C33   O16   A    
C9    C16   S    
C28   H12   S    
C4    C8    S    
O21   H16   S    
O19   V4    S    
V4    O20   S    
C20   H8    S    
O4    C2    A    
O15   C35   A    
O13   V3    S    
C28   C29   A    
O14   C34   A    
O2    C1    A    
C23   C24   S    
C14   C15   S    
C25   C26   A    
C5    C6    D    
C16   H6    S    
O16   V4    S    
O14   V3    S    
C11   H2    S    
C17   C24   S    
C23   H9    S    
O3    C4    A    
C25   C30   A    
C26   C27   A    
O6    V2    S    
C31   H13   S    
C22   C23   S    
O2    V1    S    
O12   V3    S    
C6    C35   S    
C30   C31   S    
C18   C19   A    
O1    C2    A    
C24   H18   S    
O19   C36   A    
O5    V1    S    
O8    C3    A    
C21   C34   S    
C12   C13   A    
C32   H15   S    
C2    C26   S    
O9    V2    S    
O7    V2    S    
O4    V1    S    
C19   C20   A    
O3    V1    S    
V1    O10   S    
C15   H4    S    
C31   H19   S    
C29   C33   S    
O15   V3    S    
O11   V4    S    
C5    C7    S    
C32   H14   S    
V3    O20   S    
C27   H11   S    
C9    C10   A    
C25   C32   S    
