data_mof_unit_51526.cif
_audit_creation_date              2013-03-05T16:17:52-0500
_audit_creation_method            fapswitch 2.2
_symmetry_space_group_name_H-M    P1
_symmetry_Int_Tables_number       1
_space_group_crystal_system       triclinic
_cell_length_a                    16.340884
_cell_length_b                    16.770642
_cell_length_c                    10.468661
_cell_angle_alpha                 88.586855
_cell_angle_beta                  90.401238
_cell_angle_gamma                 89.81782
_cell_volume                      2867.94734479

loop_
_atom_site_label
_atom_site_type_symbol
_atom_site_description
_atom_site_fract_x
_atom_site_fract_y
_atom_site_fract_z
_atom_type_partial_charge
O1    O     O_R   0.092530 0.407440 0.616040 -0.665892
O2    O     O_R   0.092530 0.407440 0.383960 -0.660555
O3    O     O_R   0.092530 0.592560 0.383960 -0.675113
O4    O     O_R   0.092530 0.592560 0.616040 -0.671830
O5    O     O_R   0.592530 0.907440 0.616040 -0.672540
O6    O     O_R   0.592530 0.907440 0.383960 -0.654416
O7    O     O_R   0.592530 0.092560 0.383960 -0.674137
O8    O     O_R   0.592530 0.092560 0.616040 -0.637208
C1    C     C_R   0.122099 0.381485 0.500405 0.931389
C2    C     C_R   0.123234 0.619499 0.500200 0.928555
C3    C     C_R   0.625395 0.884568 0.500872 0.889131
C4    C     C_R   0.622484 0.119347 0.500554 0.934107
O9    O     O_R   0.907330 0.407420 0.616040 -0.550819
O10   O     O_R   0.907330 0.407420 0.383960 -0.613683
O11   O     O_R   0.907330 0.592580 0.383960 -0.556057
O12   O     O_R   0.907330 0.592580 0.616040 -0.606959
O13   O     O_R   0.407330 0.907420 0.616040 -0.546746
O14   O     O_R   0.407330 0.907420 0.383960 -0.612112
O15   O     O_R   0.407330 0.092580 0.383960 -0.572285
O16   O     O_R   0.407330 0.092580 0.616040 -0.609667
C5    C     C_R   0.880065 0.379245 0.501334 0.961214
C6    C     C_R   0.878156 0.619652 0.498830 0.853938
C7    C     C_R   0.380049 0.879981 0.500827 0.953439
C8    C     C_R   0.380234 0.121949 0.498332 0.830122
Zn1   Zn    Zn3+2 0.999890 0.500000 0.654960 0.975043
Zn2   Zn    Zn3+2 0.999890 0.500000 0.345040 0.971311
Zn3   Zn    Zn3+2 0.499890 1.000000 0.654960 0.972168
Zn4   Zn    Zn3+2 0.499890 0.000000 0.345040 0.965512
C9    C     C_3   0.830148 0.244041 0.620776 -0.044973
C10   C     C_3   0.810016 0.264660 0.368617 -0.000882
C11   C     C_3   0.809890 0.744436 0.364346 0.061987
C12   C     C_3   0.828523 0.751594 0.615372 0.026610
C13   C     C_3   0.327975 0.749235 0.621366 0.027933
C14   C     C_3   0.316025 0.763922 0.368747 0.002814
C15   C     C_3   0.313513 0.247997 0.361954 0.039045
C16   C     C_3   0.328273 0.255746 0.610877 0.043582
C17   C     C_3   0.257215 0.681545 0.629374 -0.093183
C18   C     C_3   0.251941 0.690124 0.373162 -0.034224
C19   C     C_3   0.234893 0.307897 0.355478 -0.073919
C20   C     C_3   0.269024 0.334003 0.596679 0.069475
C21   C     C_3   0.756538 0.177832 0.630476 -0.022758
C22   C     C_3   0.748807 0.188597 0.375930 -0.065486
C23   C     C_3   0.733066 0.806194 0.357533 -0.071460
C24   C     C_3   0.775792 0.833722 0.594863 0.053580
C25   C     C_3   0.720137 0.345527 0.527396 -0.030931
C26   C     C_3   0.718452 0.658173 0.518574 -0.082602
C27   C     C_3   0.219251 0.847899 0.516340 -0.049398
C28   C     C_3   0.220207 0.158711 0.512731 -0.083506
C29   C     C_3   0.811813 0.309929 0.504708 -0.120096
C30   C     C_3   0.810433 0.690950 0.498534 -0.276938
C31   C     C_3   0.312224 0.811746 0.501940 -0.106445
C32   C     C_3   0.312498 0.193785 0.495316 -0.275515
C33   C     C_3   0.194989 0.689009 0.502964 -0.079166
C34   C     C_3   0.193637 0.315443 0.498556 -0.078007
C35   C     C_3   0.693569 0.187914 0.505872 -0.038322
C36   C     C_3   0.696849 0.817322 0.500609 -0.048780
C37   C     C_3   0.151820 0.776564 0.509321 0.085567
C38   C     C_3   0.155901 0.230570 0.542064 0.177047
C39   C     C_3   0.651685 0.275203 0.520977 0.032686
C40   C     C_3   0.656896 0.732823 0.545270 0.154993
C41   C     C_3   0.031159 0.421814 0.084035 0.268475
C42   C     C_3   0.030343 0.420013 0.925828 0.138804
C43   C     C_3   0.051601 0.565452 0.917659 0.203848
C44   C     C_3   0.051212 0.567029 0.074587 0.164124
C45   C     C_3   0.531635 0.921944 0.083902 0.269385
C46   C     C_3   0.531635 0.920459 0.925668 0.135483
C47   C     C_3   0.551078 0.066253 0.917638 0.202901
C48   C     C_3   0.551585 0.067358 0.074816 0.171714
C49   C     C_3   0.912560 0.511928 0.077845 0.144283
C50   C     C_3   0.911788 0.507786 0.918386 0.264406
C51   C     C_3   0.412868 0.011826 0.076875 0.140157
C52   C     C_3   0.411813 0.006965 0.917939 0.265991
N1    N     N_3   0.998760 0.500000 0.138610 -0.137228
N2    N     N_3   0.998760 0.500000 0.861390 -0.143576
N3    N     N_3   0.498760 0.000000 0.138610 -0.137502
N4    N     N_3   0.498760 1.000000 0.861390 -0.151504
N5    N     N_3   0.844276 0.282182 0.745990 -0.363269
H1    H     H_    0.859002 0.239335 0.817032 0.217914
H2    H     H_    0.797915 0.313532 0.787051 0.171042
N6    N     N_3   0.785737 0.321680 0.264692 -0.372341
H3    H     H_    0.806773 0.305594 0.174642 0.198778
H4    H     H_    0.723369 0.328379 0.251643 0.193756
N7    N     N_3   0.808218 0.697134 0.248162 -0.388296
H5    H     H_    0.821986 0.734058 0.168925 0.227778
H6    H     H_    0.752916 0.673446 0.220150 0.132632
N8    N     N_3   0.813537 0.713158 0.741751 -0.447581
H7    H     H_    0.834048 0.747476 0.817823 0.222932
H8    H     H_    0.754922 0.699408 0.768062 0.175341
N9    N     N_3   0.333807 0.792784 0.743671 -0.342196
H9    H     H_    0.354907 0.755629 0.818782 0.228175
H10   H     H_    0.278841 0.813160 0.779421 0.201535
N10   N     N_3   0.298301 0.820104 0.259815 -0.369388
H11   H     H_    0.316499 0.797615 0.171993 0.198550
H12   H     H_    0.237615 0.834420 0.243272 0.211860
N11   N     N_3   0.315214 0.201036 0.245262 -0.383167
H13   H     H_    0.327013 0.238821 0.166173 0.231383
H14   H     H_    0.262360 0.173859 0.215710 0.133174
N12   N     N_3   0.319643 0.214075 0.735719 -0.446475
H15   H     H_    0.340228 0.248209 0.812048 0.221516
H16   H     H_    0.261925 0.196161 0.762056 0.172566
C53   C     C_2   0.912337 0.203547 0.599818 0.287133
H17   H     H_    0.923350 0.167021 0.520273 0.039831
O17   O     O_2   0.965738 0.202939 0.681809 -0.600824
C54   C     C_2   0.896452 0.241645 0.327927 0.315270
H18   H     H_    0.947619 0.270063 0.371220 0.092479
O18   O     O_2   0.909046 0.199409 0.236501 -0.557476
C55   C     C_2   0.893256 0.784818 0.352333 0.384343
H19   H     H_    0.903747 0.847484 0.363509 0.088110
O19   O     O_2   0.951670 0.745626 0.319519 -0.591631
C56   C     C_2   0.918859 0.767493 0.626937 0.287042
H20   H     H_    0.961513 0.740014 0.563621 0.137819
O20   O     O_2   0.944500 0.807329 0.715084 -0.614259
C57   C     C_2   0.411273 0.709264 0.610464 0.251288
H21   H     H_    0.424315 0.670953 0.533270 0.037960
O21   O     O_2   0.461477 0.710241 0.697021 -0.610929
C58   C     C_2   0.403373 0.738684 0.334075 0.289079
H22   H     H_    0.453705 0.772839 0.366541 0.116981
O22   O     O_2   0.417550 0.691323 0.250019 -0.537242
C59   C     C_2   0.395279 0.292496 0.350914 0.461143
H23   H     H_    0.404467 0.351067 0.386790 0.040232
O23   O     O_2   0.452421 0.263879 0.293201 -0.585719
C60   C     C_2   0.415826 0.280688 0.617027 0.256878
H24   H     H_    0.458961 0.253327 0.555473 0.083452
O24   O     O_2   0.438517 0.327311 0.697922 -0.607121
C61   C     C_2   0.295226 0.597853 0.652712 0.510433
H25   H     H_    0.346915 0.576330 0.602211 0.079031
O25   O     O_2   0.276087 0.554396 0.742357 -0.564958
C62   C     C_2   0.296278 0.610285 0.357850 0.519228
H26   H     H_    0.348667 0.594412 0.413806 0.061957
O26   O     O_2   0.284343 0.568519 0.266163 -0.553080
C63   C     C_2   0.260270 0.388482 0.296096 0.388704
H27   H     H_    0.231420 0.442199 0.325097 0.184270
O27   O     O_2   0.303567 0.393048 0.201354 -0.551634
C64   C     C_2   0.310358 0.410054 0.548975 0.311971
H28   H     H_    0.375626 0.419568 0.548021 0.129551
O28   O     O_2   0.267576 0.467945 0.525749 -0.651424
C65   C     C_2   0.789494 0.092633 0.644329 0.378722
H29   H     H_    0.853657 0.076933 0.647625 0.111532
O29   O     O_2   0.742883 0.038049 0.666291 -0.539690
C66   C     C_2   0.796920 0.110365 0.364521 0.582016
H30   H     H_    0.843634 0.092687 0.430435 0.056450
O30   O     O_2   0.791532 0.069352 0.270051 -0.532437
C67   C     C_2   0.758930 0.884107 0.290692 0.428026
H31   H     H_    0.731635 0.939561 0.316545 0.179690
O31   O     O_2   0.800917 0.884690 0.194410 -0.580281
C68   C     C_2   0.829767 0.901116 0.542593 0.326572
H32   H     H_    0.895243 0.903401 0.556313 0.114193
O32   O     O_2   0.799906 0.960753 0.495841 -0.618834
N13   N     N_3   0.212700 0.696005 0.747598 -0.484655
H33   H     H_    0.243935 0.678799 0.831638 0.224310
H34   H     H_    0.157309 0.669033 0.747471 0.260943
N14   N     N_3   0.202761 0.701748 0.256982 -0.486110
H35   H     H_    0.234996 0.693638 0.172478 0.221258
H36   H     H_    0.143295 0.683664 0.257051 0.237015
N15   N     N_3   0.172527 0.281849 0.262397 -0.440672
H37   H     H_    0.193884 0.287219 0.168494 0.207040
H38   H     H_    0.157013 0.222709 0.268526 0.203037
N16   N     N_3   0.242823 0.359166 0.723752 -0.401790
H39   H     H_    0.291234 0.385445 0.773635 0.258232
H40   H     H_    0.224724 0.314389 0.786145 0.170993
N17   N     N_3   0.712546 0.184708 0.753594 -0.390430
H41   H     H_    0.747550 0.161323 0.830152 0.190868
H42   H     H_    0.700267 0.241606 0.783761 0.175627
N18   N     N_3   0.697449 0.189023 0.260694 -0.457350
H43   H     H_    0.728436 0.202300 0.175976 0.204600
H44   H     H_    0.638836 0.210751 0.262494 0.220919
N19   N     N_3   0.666051 0.779958 0.271939 -0.422442
H45   H     H_    0.683766 0.781199 0.175953 0.198164
H46   H     H_    0.644372 0.723037 0.286803 0.243158
N20   N     N_3   0.750780 0.865363 0.718072 -0.390754
H47   H     H_    0.801443 0.885949 0.769492 0.238227
H48   H     H_    0.725495 0.822954 0.778322 0.176594
C69   C     C_2   0.718088 0.390594 0.651540 0.358460
H49   H     H_    0.678824 0.377536 0.731834 0.093049
O33   O     O_2   0.764612 0.445505 0.666064 -0.572637
C70   C     C_2   0.695592 0.414542 0.439269 0.407919
H50   H     H_    0.633661 0.438006 0.441198 0.134655
O34   O     O_2   0.745010 0.448897 0.373026 -0.628539
C71   C     C_2   0.696650 0.607171 0.405231 0.418076
H51   H     H_    0.745978 0.581312 0.353224 0.146101
O35   O     O_2   0.627092 0.586779 0.378071 -0.555305
C72   C     C_2   0.712304 0.595937 0.624906 0.407012
H52   H     H_    0.764589 0.581330 0.682683 0.172639
O36   O     O_2   0.648225 0.560570 0.646522 -0.555787
C73   C     C_2   0.210137 0.898930 0.633507 0.326826
H53   H     H_    0.152276 0.910565 0.678738 0.118233
O37   O     O_2   0.265845 0.940291 0.668423 -0.563114
C74   C     C_2   0.196895 0.914201 0.422480 0.362553
H54   H     H_    0.134125 0.934892 0.412543 0.124563
O38   O     O_2   0.248900 0.950923 0.365594 -0.625788
C75   C     C_2   0.200502 0.108891 0.397472 0.402245
H55   H     H_    0.250917 0.083110 0.348113 0.158157
O39   O     O_2   0.131606 0.089239 0.365488 -0.580258
C76   C     C_2   0.214621 0.094884 0.616752 0.394183
H56   H     H_    0.266842 0.078800 0.673775 0.174917
O40   O     O_2   0.150174 0.060183 0.637750 -0.579994
N21   N     N_3   0.096171 0.779957 0.619331 -0.440733
H57   H     H_    0.121611 0.790358 0.708033 0.191213
H58   H     H_    0.062337 0.832398 0.607386 0.193312
N22   N     N_3   0.096676 0.786813 0.396854 -0.402025
H59   H     H_    0.051969 0.830072 0.412088 0.180199
H60   H     H_    0.123515 0.809043 0.314493 0.185127
N23   N     N_3   0.075174 0.217440 0.485299 -0.442680
H61   H     H_    0.067148 0.231043 0.390232 0.210294
H62   H     H_    0.055959 0.159398 0.505698 0.293384
N24   N     N_3   0.138648 0.233122 0.679866 -0.483330
H63   H     H_    0.096992 0.278111 0.698199 0.237395
H64   H     H_    0.109856 0.182105 0.715501 0.275431
N25   N     N_3   0.605406 0.275285 0.639803 -0.488383
H65   H     H_    0.566686 0.227210 0.648195 0.228973
H66   H     H_    0.573055 0.328418 0.647894 0.230778
N26   N     N_3   0.589696 0.290300 0.419576 -0.433143
H67   H     H_    0.547266 0.332782 0.448426 0.183722
H68   H     H_    0.611623 0.317338 0.336977 0.179976
N27   N     N_3   0.579417 0.721512 0.478657 -0.415833
H69   H     H_    0.539764 0.765706 0.508167 0.164005
H70   H     H_    0.554399 0.667840 0.511401 0.282154
N28   N     N_3   0.636273 0.735781 0.682303 -0.504791
H71   H     H_    0.596558 0.781970 0.701097 0.224979
H72   H     H_    0.605388 0.685241 0.715066 0.275857
N29   N     N_3   0.985674 0.354027 0.141162 -0.368153
H73   H     H_    0.022149 0.302582 0.143203 0.217777
H74   H     H_    0.934520 0.337812 0.088936 0.198454
N30   N     N_3   0.984276 0.351711 0.876840 -0.455072
H75   H     H_    0.992388 0.349418 0.778581 0.284049
H76   H     H_    0.005300 0.297112 0.915152 0.187480
N31   N     N_3   0.024533 0.644175 0.868922 -0.448491
H77   H     H_    0.012955 0.644421 0.771350 0.270885
H78   H     H_    0.067016 0.688739 0.888075 0.192264
N32   N     N_3   0.022632 0.644982 0.117185 -0.435122
H79   H     H_    0.014416 0.641715 0.215038 0.310341
H80   H     H_    0.062522 0.691733 0.094934 0.180641
N33   N     N_3   0.486141 0.853895 0.140186 -0.366233
H81   H     H_    0.522685 0.802517 0.142144 0.221090
H82   H     H_    0.435631 0.837527 0.086915 0.191435
N34   N     N_3   0.486490 0.851733 0.876577 -0.457494
H83   H     H_    0.492702 0.851144 0.777973 0.285191
H84   H     H_    0.509284 0.797253 0.912687 0.195667
N35   N     N_3   0.523060 0.144543 0.869207 -0.450925
H85   H     H_    0.506777 0.141240 0.773581 0.255413
H86   H     H_    0.569054 0.187421 0.876664 0.210442
N36   N     N_3   0.523692 0.145548 0.117787 -0.426803
H87   H     H_    0.516327 0.144014 0.216064 0.303776
H88   H     H_    0.563455 0.191769 0.092046 0.185111
N37   N     N_3   0.115819 0.407882 0.129361 -0.438981
H89   H     H_    0.165749 0.427355 0.076468 0.230297
H90   H     H_    0.125536 0.441960 0.204370 0.242806
N38   N     N_3   0.114034 0.401097 0.892429 -0.522639
H91   H     H_    0.127655 0.414545 0.802781 0.271670
H92   H     H_    0.128844 0.341554 0.914660 0.179300
N39   N     N_3   0.136227 0.557062 0.871210 -0.460678
H93   H     H_    0.177373 0.521509 0.923150 0.252337
H94   H     H_    0.136436 0.532575 0.782882 0.285110
N40   N     N_3   0.137172 0.562735 0.113665 -0.497062
H95   H     H_    0.146619 0.560505 0.209578 0.265854
H96   H     H_    0.169930 0.610123 0.073752 0.206305
N41   N     N_3   0.616005 0.908106 0.130164 -0.439891
H97   H     H_    0.666035 0.928117 0.077963 0.229407
H98   H     H_    0.624499 0.942884 0.204585 0.237074
N42   N     N_3   0.616038 0.902705 0.892719 -0.523938
H99   H     H_    0.629944 0.912762 0.802003 0.267844
H100  H     H_    0.631997 0.843804 0.917918 0.178651
N43   N     N_3   0.635071 0.059671 0.868692 -0.432974
H101  H     H_    0.677770 0.025214 0.919557 0.221213
H102  H     H_    0.631183 0.031357 0.784535 0.304288
N44   N     N_3   0.637931 0.062905 0.113066 -0.497536
H103  H     H_    0.647878 0.061147 0.209134 0.276295
H104  H     H_    0.670937 0.110327 0.073296 0.209710
N45   N     N_3   0.857758 0.451527 0.133091 -0.447120
H105  H     H_    0.845711 0.469246 0.224601 0.322162
H106  H     H_    0.799352 0.455063 0.091906 0.146232
N46   N     N_3   0.859599 0.440697 0.877130 -0.338869
H107  H     H_    0.797623 0.455664 0.882000 0.194176
H108  H     H_    0.860325 0.390983 0.937878 0.167247
N47   N     N_3   0.869720 0.577116 0.859527 -0.391713
H109  H     H_    0.892376 0.631662 0.882002 0.205385
H110  H     H_    0.808937 0.579931 0.889702 0.137181
N48   N     N_3   0.875349 0.587022 0.118358 -0.403162
H111  H     H_    0.891605 0.638491 0.069339 0.207616
H112  H     H_    0.812278 0.584372 0.101353 0.151753
N49   N     N_3   0.358343 0.951611 0.131841 -0.447679
H113  H     H_    0.299470 0.955725 0.092401 0.148458
H114  H     H_    0.348533 0.969455 0.223504 0.328460
N50   N     N_3   0.360388 0.939058 0.877502 -0.330452
H115  H     H_    0.361738 0.889297 0.938045 0.169188
H116  H     H_    0.298241 0.953206 0.883026 0.198381
N51   N     N_3   0.368934 0.075612 0.858181 -0.393515
H117  H     H_    0.307617 0.077354 0.885906 0.138360
H118  H     H_    0.390167 0.130379 0.882259 0.195087
N52   N     N_3   0.375589 0.086967 0.116552 -0.407963
H119  H     H_    0.312830 0.084680 0.096893 0.148416
H120  H     H_    0.393162 0.138396 0.068720 0.210893

loop_
_geom_bond_atom_site_label_1
_geom_bond_atom_site_label_2
_geom_bond_distance
_ccdc_geom_bond_type
C8    C32   1.632999 S    
N16   H40   1.028557 S    
N23   H61   1.022989 S    
N37   H90   0.994674 S    
C53   H17   1.061891 S    
C21   N17   1.486965 S    
N15   H38   1.025077 S    
C9    N5    1.489552 S    
C28   C76   1.511439 S    
C11   C23   1.624994 S    
C44   N1    1.557086 S    
C23   C67   1.529095 S    
N11   H13   1.049466 S    
C16   C60   1.493270 S    
C52   N4    1.548178 S    
C23   C36   1.629114 S    
N30   H75   1.039711 S    
C5    C29   1.613464 S    
O4    Zn1   2.204462 S    
C73   H53   1.079771 S    
N39   H93   1.039029 S    
N19   H46   1.027892 S    
C9    C29   1.647341 S    
N5    H1    1.047574 S    
N34   H83   1.038220 S    
C48   N3    1.563422 S    
N23   H62   1.041310 S    
O6    C3    1.378338 A    
N31   H77   1.037423 S    
C14   C31   1.627081 S    
O13   C7    1.373456 A    
C61   H25   1.066268 S    
C12   C56   1.505465 S    
O10   C5    1.382740 A    
C45   N33   1.476679 S    
N18   H43   1.043932 S    
N47   H110  1.045662 S    
C40   N27   1.456339 S    
C66   O30   1.221317 D    
Zn1   N2    2.161255 S    
C35   C39   1.625722 S    
N13   H34   1.013165 S    
N8    H8    1.023921 S    
C73   O37   1.206363 D    
C19   C34   1.654384 S    
N20   H47   1.048358 S    
N27   H70   1.041119 S    
C14   C58   1.535962 S    
C67   H31   1.071709 S    
N34   H84   1.046535 S    
Zn2   N1    2.160996 S    
C11   N7    1.468563 S    
C58   H22   1.062435 S    
C74   O38   1.203496 D    
N52   H119  1.045570 S    
N30   H76   1.046557 S    
N21   H58   1.041766 S    
C2    C33   1.656658 S    
C72   H52   1.067678 S    
C21   C35   1.660765 S    
C28   C75   1.517782 S    
N40   H96   1.040283 S    
C49   N45   1.465154 S    
C56   H20   1.075655 S    
C7    C31   1.595499 S    
O11   C6    1.383139 A    
O6    Zn4   2.193740 S    
N35   H85   1.036871 S    
C48   N36   1.468935 S    
N46   H107  1.044509 S    
C41   N29   1.476659 S    
C50   N2    1.551587 S    
N36   H88   1.044524 S    
C55   H19   1.074469 S    
N51   H118  1.019677 S    
C49   N1    1.551821 S    
C52   N50   1.485672 S    
C51   N52   1.468373 S    
C42   N30   1.473382 S    
C27   C73   1.520736 S    
C13   C31   1.630180 S    
N33   H81   1.046479 S    
C45   N41   1.473865 S    
C68   O32   1.203057 D    
C41   C42   1.657193 S    
C16   C32   1.633734 S    
C44   N40   1.461327 S    
N39   H94   1.021010 S    
C6    C30   1.626585 S    
C9    C21   1.641563 S    
C70   O34   1.206672 D    
C76   H56   1.068064 S    
C47   N35   1.466509 S    
C46   N4    1.570640 S    
C53   O17   1.219565 D    
O5    Zn3   2.211823 S    
N45   H105  1.030105 S    
C62   H26   1.063357 S    
C43   N39   1.476512 S    
O1    Zn1   2.211823 S    
C55   O19   1.213632 D    
O9    Zn1   2.214013 S    
N21   H57   1.033712 S    
C52   N51   1.470006 S    
C11   C55   1.527861 S    
N38   H91   0.986906 S    
C18   N14   1.461764 S    
C54   H18   1.067482 S    
N17   H42   1.032024 S    
N38   H92   1.046948 S    
N36   H87   1.036383 S    
N15   H37   1.047336 S    
C17   C61   1.546266 S    
C60   H24   1.068415 S    
C59   O23   1.219268 D    
C27   C74   1.507909 S    
O7    C4    1.396884 A    
C51   N3    1.551178 S    
C22   C66   1.535002 S    
C47   C48   1.645968 S    
C51   N49   1.459102 S    
O1    C1    1.386068 A    
O16   C8    1.384955 A    
N43   H101  1.039877 S    
O14   Zn4   2.203795 S    
C66   H30   1.061987 S    
N42   H100  1.047805 S    
C76   O40   1.223485 D    
C25   C70   1.513553 S    
C17   N13   1.464922 S    
N19   H45   1.047399 S    
C33   C37   1.630024 S    
N24   H63   1.036904 S    
N22   H59   1.043747 S    
O11   Zn2   2.211163 S    
C27   C31   1.643265 S    
C41   N1    1.537149 S    
N49   H113  1.045644 S    
C69   H49   1.079601 S    
C20   C64   1.520231 S    
N32   H79   1.034211 S    
C13   C17   1.624091 S    
O7    Zn4   2.214671 S    
C75   H55   1.071145 S    
C19   N15   1.479470 S    
C74   H54   1.085261 S    
N41   H98   0.993904 S    
C43   N2    1.525866 S    
O13   Zn3   2.214013 S    
O2    C1    1.368646 A    
C28   C38   1.632646 S    
C15   C19   1.628335 S    
N27   H69   1.037144 S    
C75   O39   1.220937 D    
C64   O28   1.213291 D    
N29   H73   1.046762 S    
C9    C53   1.522743 S    
C13   N9    1.492206 S    
C22   C35   1.637632 S    
C27   C37   1.631666 S    
C65   O29   1.211392 D    
C24   C36   1.646556 S    
N28   H72   1.039963 S    
N7    H5    1.048958 S    
C25   C29   1.631967 S    
C42   N38   1.450027 S    
O8    C4    1.373292 A    
C12   N8    1.479644 S    
C15   C59   1.536162 S    
N10   H12   1.032030 S    
N25   H65   1.028887 S    
C12   C24   1.631228 S    
N5    H2    1.023852 S    
O9    C5    1.373155 A    
C10   N6    1.481788 S    
N35   H86   1.045690 S    
O10   Zn2   2.203795 S    
N32   H80   1.044159 S    
O15   Zn4   2.211163 S    
N33   H82   1.034485 S    
C12   C30   1.635854 S    
C57   H21   1.066973 S    
C69   O33   1.207843 D    
N44   H104  1.042237 S    
C10   C54   1.529208 S    
N6    H4    1.032731 S    
C70   H50   1.085150 S    
N7    H6    1.031877 S    
N47   H109  1.020180 S    
N14   H36   1.018878 S    
C38   N23   1.462578 S    
C45   C46   1.657298 S    
C20   C34   1.634045 S    
N45   H106  1.045417 S    
N51   H117  1.045632 S    
N16   H39   1.049048 S    
N48   H112  1.045949 S    
C24   N20   1.466990 S    
N9    H10   1.035691 S    
C11   C30   1.647930 S    
O4    C2    1.381809 A    
Zn3   N4    2.161255 S    
C24   C68   1.528863 S    
N41   H97   1.038542 S    
C16   C20   1.631634 S    
C18   C62   1.532778 S    
C39   N26   1.478882 S    
N14   H35   1.044301 S    
N52   H120  1.029267 S    
C68   H32   1.079470 S    
C34   C38   1.609722 S    
C20   N16   1.471589 S    
O12   Zn1   2.193075 S    
C67   O31   1.223125 D    
C40   N28   1.477882 S    
C25   C39   1.630303 S    
O12   C6    1.379115 A    
C50   N47   1.468922 S    
C72   O36   1.224773 D    
C26   C40   1.634137 S    
N8    H7    1.047802 S    
C21   C65   1.528538 S    
C26   C71   1.520693 S    
C10   C29   1.630907 S    
O3    Zn2   2.214671 S    
C10   C22   1.624164 S    
N26   H68   1.033313 S    
N6    H3    1.046960 S    
C63   O27   1.223339 D    
C62   O26   1.217112 D    
O2    Zn2   2.193740 S    
C47   N43   1.473174 S    
C59   H23   1.070888 S    
N11   H14   1.027182 S    
O5    C3    1.385540 A    
C64   H28   1.078995 S    
C47   N4    1.530833 S    
O16   Zn3   2.193075 S    
C15   N11   1.470080 S    
C71   H51   1.072294 S    
N49   H114  1.025701 S    
C65   H29   1.080334 S    
C26   C30   1.615325 S    
C13   C57   1.521617 S    
C45   N3    1.538515 S    
N29   H74   1.036334 S    
C39   N25   1.460340 S    
C26   C72   1.511134 S    
N40   H95   1.014575 S    
N18   H44   1.024150 S    
C54   O18   1.222864 D    
N9    H9    1.046960 S    
C17   C33   1.665241 S    
C51   C52   1.667825 S    
C37   N22   1.483891 S    
N31   H78   1.043754 S    
N43   H102  1.012777 S    
N13   H33   1.047871 S    
N42   H99   0.988600 S    
C44   N32   1.467605 S    
C23   N19   1.484750 S    
C15   C32   1.647362 S    
N28   H71   1.032489 S    
Zn4   N3    2.160996 S    
C18   C33   1.652121 S    
N17   H41   1.048804 S    
N24   H64   1.040110 S    
O14   C7    1.374219 A    
O3    C2    1.398801 A    
C49   N48   1.469946 S    
N50   H116  1.044465 S    
N10   H11   1.046970 S    
N25   H66   1.040194 S    
C58   O22   1.222712 D    
O15   C8    1.381069 A    
C22   N18   1.464600 S    
C49   C50   1.672437 S    
N12   H16   1.028189 S    
C56   O20   1.224822 D    
C19   C63   1.533175 S    
C4    C35   1.638743 S    
N50   H115  1.035493 S    
N44   H103  1.017329 S    
C37   N21   1.474478 S    
C43   C44   1.643751 S    
C43   N31   1.469311 S    
C25   C69   1.519952 S    
C28   C32   1.630310 S    
C36   C40   1.621890 S    
N26   H67   1.044005 S    
N46   H108  1.036036 S    
N12   H15   1.048516 S    
C46   N34   1.471765 S    
C48   N44   1.465156 S    
C61   O25   1.217167 D    
O8    Zn3   2.204462 S    
C38   N24   1.473461 S    
N48   H111  1.029787 S    
C42   N2    1.570645 S    
C16   N12   1.474623 S    
C1    C34   1.608347 S    
N20   H48   1.028492 S    
C50   N46   1.484807 S    
C57   O21   1.218511 D    
C14   C18   1.623767 S    
N37   H89   1.038303 S    
C46   N42   1.455683 S    
C41   N37   1.475431 S    
C60   O24   1.223160 D    
N22   H60   1.032109 S    
C3    C36   1.620810 S    
C63   H27   1.067140 S    
C71   O35   1.221675 D    
C14   N10   1.487515 S    
