data_mof_unit_22560.cif
_audit_creation_date              2012-12-10T20:31:51-0500
_audit_creation_method            fapswitch 2.2
_symmetry_space_group_name_H-M    P1
_symmetry_Int_Tables_number       1
_space_group_crystal_system       triclinic
_cell_length_a                    9.881958
_cell_length_b                    10.695536
_cell_length_c                    15.475733
_cell_angle_alpha                 90.084331
_cell_angle_beta                  68.228549
_cell_angle_gamma                 89.263531
_cell_volume                      1518.84296296

loop_
_atom_site_label
_atom_site_type_symbol
_atom_type_description
_atom_site_fract_x
_atom_site_fract_y
_atom_site_fract_z
_atom_type_partial_charge
C1    C     C_R   0.501365 0.740214 0.496825 0.876709
C2    C     C_R   0.392430 0.554963 0.919022 0.098960
C3    C     C_R   0.251938 0.509018 0.971597 0.164533
C4    C     C_R   0.487924 0.588748 0.964139 0.049623
C5    C     C_R   0.452659 0.553334 0.057753 0.068122
C6    C     C_R   0.308907 0.514551 0.109929 -0.225325
C7    C     C_R   0.209054 0.495795 0.067514 -0.246435
C8    C     C_R   0.618223 0.654573 0.918645 -0.179557
C9    C     C_R   0.718891 0.671986 0.960782 -0.165879
C10   C     C_R   0.695046 0.620380 0.047638 0.152797
C11   C     C_R   0.562234 0.559107 0.096063 0.092031
C12   C     C_R   0.408760 0.501094 0.676001 0.869710
C13   C     C_R   0.801117 0.630521 0.087591 -0.206478
C14   C     C_R   0.773845 0.583924 0.176615 -0.213218
C15   C     C_R   0.544041 0.503108 0.180792 -0.243659
C16   C     C_R   0.396535 0.938430 0.470375 0.145579
C17   C     C_R   0.511502 0.871653 0.480634 -0.105909
C18   C     C_R   0.640863 0.933658 0.471029 -0.223810
C19   C     C_R   0.642116 0.062992 0.470554 -0.226523
C20   C     C_R   0.514097 0.128909 0.479511 -0.110057
C21   C     C_R   0.397998 0.066177 0.469847 0.131199
C22   C     C_3   0.238451 0.077712 0.525275 -0.459969
C23   C     C_R   0.502977 0.260055 0.496296 0.880369
C24   C     C_3   0.236679 0.936346 0.526219 -0.514401
C25   C     C_R   0.883589 0.537897 0.576911 0.247001
C26   C     C_R   0.971161 0.452466 0.426889 -0.156120
C27   C     C_R   0.114982 0.452531 0.426845 -0.138996
C28   C     C_R   0.025819 0.535892 0.577529 0.234371
C29   C     C_3   0.003995 0.660888 0.623369 -0.268334
C30   C     C_3   0.851749 0.664559 0.620718 -0.532164
C31   C     C_R   0.590713 0.501164 0.324064 0.863404
C32   C     C_R   0.349805 0.508758 0.777509 -0.087106
C33   C     C_R   0.642913 0.522721 0.224091 -0.058572
C34   C     C_R   0.158901 0.471294 0.926890 -0.201453
C35   C     C_R   0.208417 0.469810 0.830053 -0.166022
C36   C     C_R   0.438782 0.553766 0.822024 -0.257108
H1    H     H_    0.100683 0.464044 0.109129 0.147205
H2    H     H_    0.902528 0.678125 0.051398 0.145771
H3    H     H_    0.736885 0.883659 0.471015 0.168160
H4    H     H_    0.738487 0.110147 0.470549 0.173241
H5    H     H_    0.213767 0.119964 0.595315 0.208008
H6    H     H_    0.177816 0.119630 0.484336 0.204332
H7    H     H_    0.211428 0.897258 0.596973 0.192749
H8    H     H_    0.174642 0.897494 0.485593 0.203748
H9    H     H_    0.952195 0.416021 0.367188 0.146044
H10   H     H_    0.203827 0.415789 0.367077 0.146754
H11   H     H_    0.450356 0.446404 0.216254 0.141150
H12   H     H_    0.077145 0.731071 0.578437 0.138472
H13   H     H_    0.762621 0.663877 0.689893 0.204002
H14   H     H_    0.838340 0.736614 0.572685 0.191692
H15   H     H_    0.851444 0.600386 0.209598 0.155857
H16   H     H_    0.817141 0.723686 0.924439 0.158565
H17   H     H_    0.050811 0.437220 0.966567 0.157188
H18   H     H_    0.138889 0.433267 0.796312 0.199499
H19   H     H_    0.547876 0.579836 0.779581 0.156402
H20   H     H_    0.269882 0.500420 0.184165 0.141582
H21   H     H_    0.642301 0.696985 0.851526 0.142001
N1    N     N_R   0.856900 0.500860 0.500610 -0.111646
N2    N     N_R   0.142540 0.500820 0.500610 -0.125542
O1    O     O_R   0.385310 0.683210 0.499990 -0.618455
O2    O     O_R   0.614650 0.683240 0.500000 -0.622088
O3    O     O_R   0.319830 0.499970 0.632240 -0.614543
O4    O     O_R   0.549170 0.500000 0.632250 -0.605631
O5    O     O_R   0.385350 0.316760 0.500000 -0.615028
O6    O     O_R   0.614690 0.316790 0.500010 -0.616214
O7    O     O_R   0.450830 0.500000 0.367750 -0.618818
O8    O     O_R   0.680170 0.500030 0.367760 -0.621518
Zn1   Zn    Zn3+2 0.346870 0.499980 0.499990 0.942516
Zn2   Zn    Zn3+2 0.653130 0.500020 0.500010 0.942432
C37   C     C_2   0.007092 0.655309 0.719643 0.429405
H22   H     H_    0.067956 0.724242 0.741223 0.046281
O9    O     O_2   0.941339 0.574433 0.774094 -0.600887

loop_
_geom_bond_atom_site_label_1
_geom_bond_atom_site_label_2
_ccdc_geom_bond_type
C31   O7    A    
O7    Zn1   S    
C18   H3    S    
C31   C33   S    
N1    Zn2   S    
C37   H22   S    
C15   H11   S    
N2    Zn1   S    
C29   C30   S    
C12   O3    A    
C9    C10   A    
C1    C17   S    
C19   C20   A    
C26   H9    S    
C20   C23   S    
O3    Zn1   S    
C4    C8    A    
C23   O6    A    
C14   C33   A    
C17   C18   A    
C7    H1    S    
C23   O5    A    
C3    C7    A    
C16   C24   S    
C36   H19   S    
C27   N2    A    
C21   C22   S    
C12   C32   S    
C35   H18   S    
C31   O8    A    
C26   N1    A    
C13   H2    S    
C22   H6    S    
C9    H16   S    
C11   C15   A    
O6    Zn2   S    
C2    C4    A    
O5    Zn1   S    
C27   H10   S    
C28   C29   S    
C30   H13   S    
C5    C11   A    
C6    C7    A    
C2    C3    A    
C10   C11   A    
C14   H15   S    
C26   C27   A    
C5    C6    A    
C24   H8    S    
C22   C24   S    
C28   N2    A    
C22   H5    S    
C16   C17   A    
C25   N1    A    
C25   C28   A    
C29   H12   S    
C2    C36   A    
C13   C14   A    
C32   C35   A    
C32   C36   A    
C18   C19   A    
C20   C21   A    
O1    Zn1   S    
C34   H17   S    
C34   C35   A    
C19   H4    S    
C1    O1    A    
O2    Zn2   S    
C25   C30   S    
C12   O4    A    
C24   H7    S    
C4    C5    A    
C37   O9    D    
C3    C34   A    
C30   H14   S    
C29   C37   S    
C16   C21   A    
C15   C33   A    
C8    H21   S    
O4    Zn2   S    
C6    H20   S    
C8    C9    A    
O8    Zn2   S    
C10   C13   A    
C1    O2    A    
