data_mof_unit_58397.cif
_audit_creation_date              2012-12-10T16:37:31-0500
_audit_creation_method            fapswitch 2.2
_symmetry_space_group_name_H-M    P1
_symmetry_Int_Tables_number       1
_space_group_crystal_system       triclinic
_cell_length_a                    10.92831
_cell_length_b                    10.843286
_cell_length_c                    15.451622
_cell_angle_alpha                 96.769794
_cell_angle_beta                  74.616767
_cell_angle_gamma                 99.056781
_cell_volume                      1737.80938461

loop_
_atom_site_label
_atom_site_type_symbol
_atom_type_description
_atom_site_fract_x
_atom_site_fract_y
_atom_site_fract_z
_atom_type_partial_charge
C1    C     C_R   0.159139 0.478500 0.519387 0.542751
C2    C     C_R   0.537153 0.502508 0.112184 0.034171
C3    C     C_R   0.608574 0.304511 0.120934 -0.119336
C4    C     C_R   0.842565 0.520242 0.479230 0.510719
C5    C     C_R   0.408331 0.571168 0.843172 0.005359
C6    C     C_2   0.980266 0.532915 0.473525 -0.002466
C7    C     C_2   0.024597 0.466531 0.525743 0.030950
C8    C     C_2   0.537783 0.966255 0.465020 0.021906
C9    C     C_2   0.459760 0.035564 0.526570 -0.099070
C10   C     C_R   0.466241 0.167948 0.521804 0.556043
C11   C     C_R   0.528551 0.833387 0.478334 0.507530
C12   C     C_R   0.327838 0.699257 0.983259 0.010733
C13   C     C_R   0.555820 0.443761 0.258390 0.532829
C14   C     C_R   0.443296 0.553065 0.742605 0.530529
C15   C     C_R   0.604570 0.267337 0.032057 0.006047
C16   C     C_R   0.572921 0.419714 0.161377 0.004798
C17   C     C_R   0.354352 0.680532 0.888442 0.020028
C18   C     C_2   0.949443 0.359264 0.576278 0.589077
C19   C     C_2   0.631799 0.018917 0.384087 0.588250
C20   C     C_3   0.667975 0.153968 0.986189 -0.262825
C21   C     C_3   0.575165 0.032007 0.998741 -0.301120
C22   C     C_3   0.636892 0.923421 0.940456 -0.389105
C23   C     C_R   0.371780 0.620075 0.029729 -0.109561
C24   C     C_2   0.547441 0.637993 0.143474 0.585898
C25   C     C_2   0.331212 0.778607 0.837899 0.636869
C26   C     C_2   0.261755 0.804824 0.036251 0.586631
C27   C     C_2   0.384663 0.285899 0.797304 0.601503
C28   C     C_2   0.067680 0.623390 0.411087 0.566595
C29   C     C_R   0.441662 0.522831 0.984799 -0.012926
C30   C     C_R   0.435006 0.483664 0.895421 -0.002674
C31   C     C_R   0.507339 0.456377 0.028843 0.012581
C32   C     C_R   0.544637 0.338598 0.987937 0.024342
C33   C     C_R   0.513314 0.290326 0.907077 -0.120660
C34   C     C_R   0.451813 0.357693 0.863530 0.075020
H1    H     H_    0.641964 0.244209 0.158602 0.125861
H2    H     H_    0.549218 0.011434 0.070636 0.195373
H3    H     H_    0.485676 0.040506 0.979999 0.203551
H4    H     H_    0.710399 0.166844 0.913527 0.169554
H5    H     H_    0.750216 0.146532 0.014176 0.166386
H6    H     H_    0.623834 0.814092 0.114054 0.357816
H7    H     H_    0.401770 0.937145 0.775525 0.366138
H8    H     H_    0.233378 0.920503 0.150158 0.357215
H9    H     H_    0.235792 0.266184 0.740308 0.340820
H10   H     H_    0.221247 0.756937 0.388130 0.358581
H11   H     H_    0.394458 0.995959 0.585790 0.135289
H12   H     H_    0.528323 0.195723 0.880239 0.155823
H13   H     H_    0.345788 0.632096 0.102296 0.192972
H14   H     H_    0.838175 0.192271 0.573784 0.352850
H15   H     H_    0.750324 0.167118 0.328325 0.337391
H16   H     H_    0.659016 0.940149 0.868047 0.192011
H17   H     H_    0.726692 0.912555 0.957891 0.193149
H18   H     H_    0.570460 0.835229 0.951677 0.193921
O1    O     O_3   0.500000 0.500000 0.500000 -0.484376
O2    O     O_R   0.463530 0.379110 0.309170 -0.530547
O3    O     O_R   0.388210 0.611730 0.699360 -0.508836
O4    O     O_R   0.624720 0.532760 0.292120 -0.488990
O5    O     O_R   0.523540 0.476390 0.699360 -0.535128
O6    O     O_2   0.950057 0.354916 0.654881 -0.496563
O7    O     O_R   0.884522 0.260204 0.532500 -0.640457
O8    O     O_2   0.660046 0.951945 0.314246 -0.464146
O9    O     O_R   0.689028 0.143649 0.387597 -0.677430
O10   O     O_2   0.489432 0.673305 0.219272 -0.482304
O11   O     O_R   0.623220 0.725139 0.085161 -0.683788
O12   O     O_R   0.537910 0.240570 0.564270 -0.468718
O13   O     O_2   0.227655 0.773020 0.820336 -0.424575
O14   O     O_R   0.428359 0.876579 0.810139 -0.720204
O15   O     O_2   0.187438 0.852209 0.007638 -0.452046
O16   O     O_R   0.283257 0.848831 0.120507 -0.686218
O17   O     O_2   0.425210 0.192633 0.753619 -0.533202
O18   O     O_R   0.272319 0.322358 0.787195 -0.681683
O19   O     O_2   0.048942 0.631273 0.337446 -0.452214
O20   O     O_R   0.169575 0.700518 0.436567 -0.676973
O21   O     O_R   0.438950 0.782540 0.540270 -0.538324
O22   O     O_R   0.222350 0.398740 0.468260 -0.538181
O23   O     O_R   0.800790 0.578160 0.427210 -0.504800
O24   O     O_R   0.212140 0.566330 0.564260 -0.477460
O25   O     O_R   0.764730 0.456770 0.540270 -0.510240
O26   O     O_R   0.412790 0.208310 0.468260 -0.530066
O27   O     O_R   0.610350 0.768590 0.427210 -0.483277
Zn1   Zn    Zn3+2 0.580150 0.419820 0.574680 1.020371
Zn2   Zn    Zn3+2 0.401380 0.373730 0.437510 1.006838
Zn3   Zn    Zn3+2 0.631680 0.593260 0.413140 1.054491
Zn4   Zn    Zn3+2 0.386790 0.613180 0.574670 1.032934

loop_
_geom_bond_atom_site_label_1
_geom_bond_atom_site_label_2
_ccdc_geom_bond_type
C9    H11   S    
C10   O26   A    
C15   C32   A    
C21   H2    S    
C12   C23   A    
H6    O11   S    
C1    O22   A    
C23   C29   A    
C5    C30   A    
C5    C17   A    
O1    Zn2   S    
C4    O23   A    
C18   O6    D    
C6    C28   S    
C8    C9    D    
C12   C17   A    
C2    C16   A    
C9    C10   S    
C27   O17   D    
C22   H16   S    
C13   O4    A    
C14   O3    A    
C21   C22   S    
H8    O16   S    
C33   H12   S    
O12   Zn1   S    
O5    Zn1   S    
C28   O20   S    
O24   Zn4   S    
C27   C34   S    
C15   C20   S    
C8    C19   S    
C23   H13   S    
C30   C34   A    
O1    Zn1   S    
C25   O13   D    
C4    C6    S    
C11   O21   A    
C20   H5    S    
C12   C26   S    
C2    C31   A    
C29   C30   A    
C20   H4    S    
H15   O9    S    
C31   C32   A    
C3    H1    S    
C7    C18   S    
C33   C34   A    
C5    C14   S    
H7    O14   S    
C27   O18   S    
C11   O27   A    
C24   O11   S    
C2    C24   S    
C28   O19   D    
C26   O15   D    
O22   Zn2   S    
O3    Zn4   S    
C3    C15   A    
H14   O7    S    
C22   H18   S    
C13   O2    A    
O25   Zn1   S    
C14   O5    A    
C24   O10   D    
C1    C7    S    
C1    O24   A    
C10   O12   A    
C25   O14   S    
O27   Zn3   S    
O23   Zn3   S    
O4    Zn3   S    
C6    C7    D    
C19   O8    D    
H9    O18   S    
O1    Zn4   S    
C26   O16   S    
C32   C33   A    
C17   C25   S    
C4    O25   A    
C29   C31   A    
O26   Zn2   S    
C19   O9    S    
C8    C11   S    
H10   O20   S    
C18   O7    S    
C21   H3    S    
C20   C21   S    
C13   C16   S    
O1    Zn3   S    
O21   Zn4   S    
O2    Zn2   S    
C3    C16   A    
C22   H17   S    
