data_mof_unit_49708.cif
_audit_creation_date              2012-12-11T14:17:47-0500
_audit_creation_method            fapswitch 2.2
_symmetry_space_group_name_H-M    P1
_symmetry_Int_Tables_number       1
_space_group_crystal_system       triclinic
_cell_length_a                    6.939968
_cell_length_b                    13.632906
_cell_length_c                    20.431744
_cell_angle_alpha                 102.039742
_cell_angle_beta                  89.895143
_cell_angle_gamma                 90.789764
_cell_volume                      1890.38426717

loop_
_atom_site_label
_atom_site_type_symbol
_atom_type_description
_atom_site_fract_x
_atom_site_fract_y
_atom_site_fract_z
_atom_type_partial_charge
O1    O     O_R   0.506860 0.599390 0.449240 -0.534911
O2    O     O_R   0.180220 0.594600 0.586780 -0.500475
O3    O     O_R   0.004500 0.400610 0.550760 -0.530017
C1    C     C_R   0.348752 0.615208 0.613756 0.857610
O4    O     O_R   0.177490 0.611290 0.451970 -0.531600
O5    O     O_R   0.001750 0.417420 0.414990 -0.545250
C2    C     C_R   0.347190 0.637500 0.434669 0.870708
O6    O     O_R   0.509610 0.582580 0.585010 -0.536308
O7    O     O_3   0.337420 0.436370 0.488020 -0.396750
V1    V     V_3+5 0.064680 0.511800 0.502220 1.660436
O8    O     O_R   0.671710 0.405400 0.413220 -0.542062
C3    C     C_R   0.839880 0.383255 0.386939 0.727320
O9    O     O_R   0.674440 0.388710 0.548030 -0.554301
C4    C     C_R   0.842105 0.361877 0.564667 0.791462
V2    V     V_3+5 0.564010 0.488200 0.497780 1.602037
O10   O     O_3   0.841140 0.563630 0.511980 -0.357772
C5    C     C_R   0.782809 0.114602 0.615160 -0.096600
H1    H     H_    0.766380 0.164769 0.522748 0.193672
H2    H     H_    0.771249 0.990066 0.698363 0.161228
H3    H     H_    0.749510 0.037581 0.591181 0.202566
C6    C     C_R   0.844350 0.285298 0.605153 -0.170620
C7    C     C_R   0.881997 0.316447 0.929486 0.534981
C8    C     C_R   0.876148 0.392913 0.894025 0.627762
C9    C     C_R   0.860723 0.370515 0.824480 -0.268512
C10   C     C_R   0.855330 0.269980 0.787958 0.009092
C11   C     C_R   0.847973 0.192209 0.825087 -0.038709
C12   C     C_R   0.847834 0.243801 0.716275 0.019810
C13   C     C_R   0.809429 0.142000 0.684653 0.029513
C14   C     C_R   0.797521 0.067833 0.722373 -0.121606
C15   C     C_R   0.820968 0.092052 0.791201 -0.112718
C16   C     C_R   0.877706 0.313653 0.674203 0.553320
C17   C     C_R   0.794297 0.186444 0.576015 -0.221801
C18   C     C_R   0.865070 0.216303 0.895767 -0.317856
H4    H     H_    0.844607 0.433890 0.801406 0.260246
H5    H     H_    0.812267 0.031461 0.817881 0.150218
C19   C     C_2   0.002272 0.290426 0.284187 -0.004700
C20   C     C_2   0.842600 0.310987 0.321999 -0.190766
H6    H     H_    0.138115 0.325986 0.302760 0.173813
H7    H     H_    0.707771 0.272392 0.306476 0.229453
C21   C     C_2   0.008979 0.216916 0.218848 -0.192738
C22   C     C_2   0.856627 0.189335 0.177705 0.509420
H8    H     H_    0.149687 0.186670 0.203270 0.140240
C23   C     C_2   0.197274 0.783001 0.783621 0.329772
C24   C     C_2   0.357885 0.812724 0.820617 -0.408928
H9    H     H_    0.495873 0.781740 0.802783 0.162962
C25   C     C_2   0.199799 0.708710 0.718688 0.634696
C26   C     C_2   0.358296 0.684558 0.680105 -0.431022
H10   H     H_    0.497937 0.717442 0.695996 0.140588
C27   C     C_R   0.456937 0.884826 0.387011 0.672551
C28   C     C_R   0.362162 0.716102 0.395359 -0.306209
C29   C     C_R   0.355606 0.684690 0.073062 0.577519
C30   C     C_R   0.376456 0.610020 0.109475 -0.191101
C31   C     C_R   0.389470 0.634385 0.179080 0.642873
C32   C     C_R   0.367487 0.734833 0.214448 0.009145
C33   C     C_R   0.367759 0.811477 0.176774 -0.157945
C34   C     C_R   0.366117 0.762209 0.285877 -0.070670
C35   C     C_R   0.416253 0.862677 0.317610 -0.210694
C36   C     C_R   0.422300 0.937546 0.278927 0.479386
C37   C     C_R   0.388919 0.912007 0.210276 -0.178698
C38   C     C_R   0.312766 0.694218 0.327122 0.377675
C39   C     C_R   0.439505 0.810562 0.424591 0.231603
C40   C     C_R   0.357018 0.785597 0.105906 -0.218496
H11   H     H_    0.390918 0.532766 0.083342 0.217322
H12   H     H_    0.389620 0.971892 0.182791 0.135870
O11   O     O_R   0.203230 0.917310 0.915020 -0.511618
O12   O     O_R   0.535500 0.888690 0.048040 -0.543259
O13   O     O_R   0.711080 0.082610 0.085000 -0.519599
C41   C     C_R   0.366125 0.862436 0.065210 0.798135
O14   O     O_R   0.532630 0.905370 0.913230 -0.535048
O15   O     O_R   0.708190 0.099410 0.949230 -0.548444
C42   C     C_R   0.363364 0.883698 0.886548 0.845508
O16   O     O_R   0.206120 0.900510 0.050790 -0.544622
O17   O     O_3   0.375360 0.063570 0.011990 -0.381662
V3    V     V_3+5 0.648170 0.988200 0.997780 1.608456
O18   O     O_R   0.038240 0.111390 0.951940 -0.538556
C43   C     C_R   0.870386 0.137968 0.935175 0.818751
O19   O     O_R   0.041120 0.094710 0.086750 -0.567050
C44   C     C_R   0.872271 0.116682 0.113122 0.646082
V4    V     V_3+5 0.148810 0.011930 0.002180 1.583542
O20   O     O_3   0.871750 0.936430 0.988010 -0.355239
F1    F     F_    0.680964 0.230970 0.192917 -0.642755
Cl1   Cl    Cl    0.965455 0.826822 0.810466 -0.587621
F2    F     F_    0.026706 0.665474 0.697298 -0.597587
Cl2   Cl    Cl    0.503683 0.840064 0.510112 -0.602294
Cl3   Cl    Cl    0.461332 0.066324 0.313061 -0.577739
F3    F     F_    0.521256 0.976910 0.418758 -0.595071
Cl4   Cl    Cl    0.149930 0.592713 0.298557 -0.548832
F4    F     F_    0.348194 0.658944 0.005209 -0.613548
F5    F     F_    0.448432 0.561292 0.210201 -0.597949
F6    F     F_    0.946106 0.408064 0.697796 -0.673773
F7    F     F_    0.898836 0.340059 0.997205 -0.621565
F8    F     F_    0.883266 0.490030 0.927325 -0.573678

loop_
_geom_bond_atom_site_label_1
_geom_bond_atom_site_label_2
_ccdc_geom_bond_type
O12   C41   A    
O18   C43   A    
O11   V4    S    
C33   C37   A    
O17   V3    S    
C1    O6    A    
C31   C32   A    
C24   H9    S    
C6    C16   A    
C37   H12   S    
C15   H5    S    
C29   C40   A    
C4    C6    S    
C19   C20   D    
O16   V4    S    
O5    C3    A    
V2    O10   S    
O12   V3    S    
C33   C40   A    
C5    H3    S    
C27   C35   A    
C34   C35   A    
C24   C42   S    
C3    C20   S    
O14   C42   A    
C11   C18   A    
C25   C26   D    
O8    V2    S    
O15   V3    S    
C7    F7    S    
O1    V2    S    
O7    V1    S    
C8    F8    S    
O19   C44   A    
C21   H8    S    
V3    O20   S    
O9    C4    A    
O13   C44   A    
C38   Cl4   S    
O19   V4    S    
C6    C17   A    
C32   C34   A    
C27   C39   A    
C12   C16   A    
C29   C30   A    
C19   C21   S    
C9    C10   A    
C22   C44   S    
O4    C2    A    
C36   C37   A    
O11   C42   A    
C39   Cl2   S    
C9    H4    S    
V4    O20   S    
O2    C1    A    
C23   C24   D    
C14   C15   A    
C18   C43   S    
C26   H10   S    
C41   O16   A    
C16   F6    S    
C22   F1    S    
O17   V4    S    
O14   V3    S    
O13   V3    S    
O3    C4    A    
C21   C22   D    
C11   C15   A    
O6    V2    S    
O9    V2    S    
C31   F5    S    
H1    C17   S    
O2    V1    S    
C36   Cl3   S    
C30   C31   A    
C28   C39   A    
C7    C18   A    
C32   C33   A    
C13   C14   A    
O1    C2    A    
C5    C13   A    
C27   F3    S    
C2    C28   S    
C30   H11   S    
C29   F4    S    
O5    V1    S    
O8    C3    A    
C10   C12   A    
C40   C41   S    
C28   C38   A    
C19   H6    S    
C10   C11   A    
O4    V1    S    
C20   H7    S    
O3    V1    S    
V1    O10   S    
O15   C43   A    
C35   C36   A    
O7    V2    S    
C23   C25   S    
C8    C9    A    
C25   F2    S    
C34   C38   A    
C12   C13   A    
C5    C17   A    
C7    C8    A    
O18   V4    S    
C23   Cl1   S    
C1    C26   S    
H2    C14   S    
