data_mof_unit_63353.cif
_audit_creation_date              2012-12-10T16:58:19-0500
_audit_creation_method            fapswitch 2.2
_symmetry_space_group_name_H-M    P1
_symmetry_Int_Tables_number       1
_space_group_crystal_system       triclinic
_cell_length_a                    21.779242
_cell_length_b                    21.726055
_cell_length_c                    22.273401
_cell_angle_alpha                 60.78174
_cell_angle_beta                  119.608729
_cell_angle_gamma                 89.645941
_cell_volume                      7560.35471961

loop_
_atom_site_label
_atom_site_type_symbol
_atom_type_description
_atom_site_fract_x
_atom_site_fract_y
_atom_site_fract_z
_atom_type_partial_charge
C1    C     C_R   0.621861 0.496952 0.505754 0.788668
C2    C     C_R   0.828617 0.498061 0.699273 -0.258039
C3    C     C_R   0.876148 0.527221 0.676891 0.028312
C4    C     C_R   0.419800 0.580306 0.339660 0.819341
C5    C     C_R   0.869839 0.533001 0.608673 -0.155551
C6    C     C_R   0.813826 0.513072 0.560249 0.026602
C7    C     C_R   0.757589 0.495966 0.574282 0.081355
C8    C     C_R   0.692674 0.493042 0.512577 -0.091474
C9    C     C_R   0.691724 0.494455 0.448638 -0.199940
C10   C     C_R   0.752496 0.499754 0.443495 -0.199389
C11   C     C_R   0.813805 0.508248 0.499242 -0.085271
C12   C     C_3   0.291629 0.709435 0.082356 0.185580
C13   C     C_3   0.717084 0.196484 0.027495 0.038417
C14   C     C_3   0.676747 0.281089 0.972015 0.143683
C15   C     C_1   0.619489 0.374554 0.749766 -0.175955
C16   C     C_R   0.379091 0.502146 0.495825 0.791615
C17   C     C_1   0.873874 0.124606 0.249893 -0.147014
C18   C     C_3   0.743680 0.205684 0.971731 -0.252763
C19   C     C_3   0.703660 0.290436 0.916991 0.129050
C20   C     C_3   0.815377 0.216524 0.027708 -0.165965
C21   C     C_3   0.787931 0.207416 0.082564 0.144520
C22   C     C_3   0.774682 0.301898 0.971527 -0.173318
C23   C     C_3   0.196993 0.722256 0.971557 -0.154495
C24   C     C_3   0.747857 0.292362 0.027565 -0.183831
C25   C     C_1   0.657283 0.336567 0.825197 -0.071128
C26   C     C_1   0.835267 0.161995 0.174420 0.005186
C27   C     C_R   0.256419 0.466657 0.391881 -0.156617
C28   C     C_R   0.575395 0.419837 0.659943 0.808725
C29   C     C_R   0.204217 0.438961 0.353255 -0.140945
C30   C     C_R   0.148731 0.425953 0.367298 -0.140673
C31   C     C_R   0.143258 0.443579 0.417162 -0.152668
C32   C     C_R   0.194019 0.474316 0.454689 0.065729
C33   C     C_R   0.254329 0.481382 0.446295 0.093854
C34   C     C_3   0.209684 0.791730 0.917573 0.185950
C35   C     C_R   0.309723 0.504342 0.491203 -0.142326
C36   C     C_R   0.301019 0.526707 0.536417 -0.223613
C37   C     C_R   0.238993 0.525637 0.539967 0.128115
C38   C     C_R   0.185825 0.498111 0.500144 -0.130789
C39   C     C_R   0.998259 0.883161 0.496114 0.788901
C40   C     C_3   0.294113 0.750611 0.973293 -0.154534
C41   C     C_R   0.080422 0.919863 0.660276 0.814365
C42   C     C_R   0.001439 0.117023 0.503203 0.778315
C43   C     C_R   0.919575 0.079987 0.339753 0.811324
C44   C     C_R   0.002243 0.619035 0.499773 0.773717
C45   C     C_3   0.207196 0.750557 0.026632 -0.159364
C46   C     C_R   0.880761 0.503188 0.499460 0.781272
C47   C     C_R   0.997638 0.380932 0.500195 0.784016
C48   C     C_R   0.119097 0.499457 0.500367 0.779146
C49   C     C_R   0.022434 0.871853 0.382090 -0.157998
C50   C     C_R   0.043324 0.862392 0.336430 -0.137858
C51   C     C_R   0.055558 0.793755 0.347270 -0.135480
C52   C     C_3   0.304323 0.778912 0.028379 -0.153051
C53   C     C_R   0.044333 0.734960 0.401554 -0.180525
C54   C     C_R   0.020805 0.743952 0.446531 0.098202
C55   C     C_R   0.013754 0.812078 0.440246 0.100784
C56   C     C_3   0.219191 0.820730 0.971258 -0.157470
C57   C     C_R   0.996835 0.818634 0.491208 -0.106486
C58   C     C_R   0.982396 0.760554 0.542592 -0.182622
C59   C     C_R   0.985981 0.695434 0.545679 -0.179324
C60   C     C_R   0.004860 0.686546 0.498342 -0.111331
C61   C     C_R   0.985925 0.124582 0.623492 -0.169578
C62   C     C_R   0.969392 0.131720 0.673237 -0.140035
C63   C     C_R   0.957040 0.199879 0.663370 -0.136149
C64   C     C_1   0.374934 0.625551 0.249734 -0.173797
C65   C     C_R   0.963823 0.260575 0.605841 -0.169171
C66   C     C_R   0.983366 0.253932 0.556872 0.095535
C67   C     C_1   0.337324 0.663448 0.174220 -0.070433
C68   C     C_R   0.990387 0.186143 0.562482 0.096945
C69   C     C_R   0.002789 0.181672 0.507748 -0.094752
C70   C     C_R   0.012214 0.241788 0.452330 -0.197601
C71   C     C_R   0.008417 0.306932 0.449286 -0.205356
C72   C     C_R   0.994881 0.313401 0.501419 -0.097932
C73   C     C_1   0.125960 0.875119 0.750200 -0.169892
C74   C     C_3   0.282111 0.680445 0.028661 -0.156171
C75   C     C_2   0.935762 0.545609 0.729812 0.343503
C76   C     C_3   0.597056 0.319533 0.937522 -0.437197
C77   C     C_3   0.589134 0.305134 0.007190 -0.809159
C78   C     C_1   0.163864 0.837529 0.825712 -0.068226
C79   C     C_2   0.683629 0.137697 0.056068 0.337658
C80   C     C_3   0.230917 0.556235 0.584988 -0.390295
C81   C     C_3   0.278245 0.498100 0.679375 -0.777449
C82   C     C_3   0.740712 0.426659 0.694608 -0.413660
C83   C     C_3   0.764876 0.348726 0.715609 -0.813489
C84   C     C_R   0.772408 0.478244 0.651949 0.154676
Cu1   Cu    Cu3+1 0.500040 0.438210 0.499990 0.947818
Cu2   Cu    Cu3+1 0.499960 0.561790 0.500010 0.950370
Cu3   Cu    Cu3+1 0.061810 0.999860 0.500010 0.949865
Cu4   Cu    Cu3+1 0.938190 0.999990 0.499990 0.969946
Cu5   Cu    Cu3+1 0.958570 0.541460 0.417120 0.946609
Cu6   Cu    Cu3+1 0.041430 0.458560 0.582880 0.966590
H1    H     H_    0.348938 0.801765 0.052682 0.135815
H2    H     H_    0.296980 0.477768 0.376869 0.150035
H3    H     H_    0.207038 0.427284 0.312500 0.133983
H4    H     H_    0.109036 0.403185 0.338428 0.129053
H5    H     H_    0.099106 0.432519 0.426105 0.137320
H6    H     H_    0.969166 0.765224 0.581462 0.168218
H7    H     H_    0.012043 0.926697 0.370017 0.150269
H8    H     H_    0.050384 0.908461 0.292716 0.134283
H9    H     H_    0.073050 0.786246 0.312798 0.136712
H10   H     H_    0.055017 0.682536 0.408326 0.143128
H11   H     H_    0.192839 0.878917 0.946693 0.132299
H12   H     H_    0.908525 0.553673 0.593239 0.170580
H13   H     H_    0.972768 0.652044 0.584257 0.199329
H14   H     H_    0.021544 0.238649 0.410249 0.151634
H15   H     H_    0.996081 0.070214 0.634348 0.146720
H16   H     H_    0.965570 0.084287 0.719185 0.134656
H17   H     H_    0.942655 0.205640 0.700878 0.136885
H18   H     H_    0.952487 0.312630 0.599566 0.152136
H19   H     H_    0.017036 0.352295 0.406612 0.143543
H20   H     H_    0.171897 0.750071 0.049498 0.131788
H21   H     H_    0.152380 0.699398 0.947260 0.135387
H22   H     H_    0.308446 0.622264 0.053199 0.134682
H23   H     H_    0.751849 0.496690 0.396072 0.156598
H24   H     H_    0.643357 0.491462 0.402129 0.151761
H25   H     H_    0.838130 0.487034 0.756729 0.121809
H26   H     H_    0.937091 0.543755 0.780053 0.065292
H27   H     H_    0.602811 0.244523 0.051371 0.265271
H28   H     H_    0.626734 0.326963 0.042001 0.249264
H29   H     H_    0.530654 0.333943 0.979586 0.242193
H30   H     H_    0.582067 0.380567 0.893691 0.212960
H31   H     H_    0.558005 0.298774 0.902274 0.199237
H32   H     H_    0.633166 0.136324 0.010077 0.065126
H33   H     H_    0.270805 0.521589 0.710722 0.238700
H34   H     H_    0.749948 0.327655 0.051052 0.135946
H35   H     H_    0.260911 0.447520 0.694638 0.265747
H36   H     H_    0.338305 0.482179 0.703812 0.236795
H37   H     H_    0.248977 0.606441 0.571376 0.196093
H38   H     H_    0.171938 0.575356 0.562648 0.196298
H39   H     H_    0.742386 0.311716 0.749439 0.246206
H40   H     H_    0.826795 0.324747 0.756420 0.251888
H41   H     H_    0.743503 0.350410 0.657937 0.253418
H42   H     H_    0.758050 0.420878 0.753697 0.199000
H43   H     H_    0.680717 0.451158 0.654073 0.215429
H44   H     H_    0.798087 0.345735 0.947428 0.135429
H45   H     H_    0.873038 0.189586 0.051427 0.140381
H46   H     H_    0.741587 0.170457 0.948159 0.144768
H47   H     H_    0.343234 0.545176 0.569673 0.163828
H48   H     H_    0.329412 0.751092 0.950429 0.135159
O1    O     O_R   0.590210 0.447820 0.500000 -0.580619
O2    O     O_R   0.034940 0.555150 0.570020 -0.572622
O3    O     O_R   0.874830 0.535020 0.430000 -0.581456
O4    O     O_R   0.590150 0.552170 0.500020 -0.582255
O5    O     O_R   0.944810 0.465010 0.569970 -0.588917
O6    O     O_R   0.965060 0.444870 0.429980 -0.589149
O7    O     O_R   0.035040 0.374860 0.569950 -0.585760
O8    O     O_R   0.055190 0.535000 0.430030 -0.597638
O9    O     O_R   0.125170 0.465000 0.570000 -0.574682
O10   O     O_R   0.439580 0.508290 0.379070 -0.588677
O11   O     O_R   0.439510 0.612640 0.379090 -0.574067
O12   O     O_R   0.947780 0.909820 0.499990 -0.576727
O13   O     O_R   0.409850 0.447830 0.499980 -0.590447
O14   O     O_R   0.409790 0.552180 0.500000 -0.587781
O15   O     O_R   0.560490 0.387360 0.620910 -0.571588
O16   O     O_R   0.560420 0.491710 0.620930 -0.594702
O17   O     O_R   0.052170 0.909710 0.500000 -0.590958
O18   O     O_2   0.984621 0.561925 0.719070 -0.567062
O19   O     O_2   0.712498 0.091499 0.130480 -0.530660
O20   O     O_R   0.112650 0.939420 0.620930 -0.574271
O21   O     O_R   0.008260 0.939530 0.620910 -0.588625
O22   O     O_R   0.052220 0.090030 0.500010 -0.582515
O23   O     O_R   0.947830 0.090140 0.500000 -0.588050
O24   O     O_R   0.991740 0.060320 0.379090 -0.596570
O25   O     O_R   0.887350 0.060430 0.379070 -0.559989
O26   O     O_R   0.964960 0.625150 0.430050 -0.583377

loop_
_geom_bond_atom_site_label_1
_geom_bond_atom_site_label_2
_ccdc_geom_bond_type
C66   C68   A    
Cu3   Cu4   S    
C63   C65   A    
C34   C56   S    
C23   C45   S    
C12   C74   S    
C81   H36   S    
C27   C29   A    
C1    C8    S    
C2    C84   A    
C35   C36   A    
Cu1   O10   S    
C21   C26   S    
C11   C46   S    
C47   O7    A    
C5    H12   S    
C42   O23   A    
C7    C8    A    
C54   C60   A    
C53   C54   A    
C27   C33   A    
C4    O11   A    
C39   O12   A    
C37   C38   A    
C13   C18   S    
C81   H33   S    
C34   C40   S    
C76   H31   S    
C36   C37   A    
C56   H11   S    
C83   H39   S    
Cu6   O7    S    
C77   H27   S    
C16   C35   S    
C74   H22   S    
C30   C31   A    
C70   H14   S    
C15   C25   T    
Cu4   O23   S    
C39   C57   S    
C48   O9    A    
C9    H24   S    
C24   H34   S    
C13   C79   S    
C18   C19   S    
Cu4   O21   S    
C14   C24   S    
C58   H6    S    
C1    O4    A    
C41   O21   A    
C75   O18   D    
Cu5   O3    S    
C66   C72   A    
C45   C56   S    
C8    C9    A    
C48   O8    A    
C73   C78   T    
C18   H46   S    
C70   C71   A    
C32   C38   A    
C29   C30   A    
C3    C75   S    
C36   H47   S    
Cu1   O1    S    
Cu5   O26   S    
C38   C48   S    
Cu6   O5    S    
C1    O1    A    
C7    C84   A    
C59   C60   A    
C44   O2    A    
C13   C14   S    
C28   O16   A    
C69   C70   A    
C12   C52   S    
C46   O3    A    
C53   H10   S    
C51   H9    S    
Cu5   O8    S    
C37   C80   S    
C50   H8    S    
Cu6   O9    S    
C64   C67   T    
C19   C22   S    
C76   C77   S    
C83   H40   S    
C77   H28   S    
Cu2   O11   S    
C6    C11   A    
C45   H20   S    
C68   C69   A    
Cu1   O15   S    
C12   C67   S    
C80   H38   S    
C77   H29   S    
C58   C59   A    
C49   C55   A    
C49   H7    S    
C47   O6    A    
C82   C83   S    
C42   C69   S    
C40   H48   S    
C51   C53   A    
C14   C76   S    
Cu1   O13   S    
C83   H41   S    
C62   C63   A    
Cu2   O14   S    
C2    H25   S    
C31   C32   A    
C79   H32   S    
C23   C34   S    
C50   C51   A    
C13   C21   S    
C27   H2    S    
C16   O14   A    
C76   H30   S    
Cu1   Cu2   S    
C46   O5    A    
C10   H23   S    
C62   H16   S    
C22   H44   S    
C65   C66   A    
C82   C84   S    
Cu3   O22   S    
C55   C57   A    
C28   O15   A    
C22   C24   S    
C17   C26   T    
C23   C74   S    
C82   H42   S    
Cu5   O6    S    
C61   H15   S    
Cu2   O4    S    
C9    C10   A    
C54   C55   A    
C65   H18   S    
C81   H35   S    
Cu4   O12   S    
C14   C19   S    
C42   O22   A    
C20   C22   S    
C80   C81   S    
C3    C5    A    
C79   O19   D    
Cu6   O2    S    
C6    C7    A    
C12   C45   S    
C80   H37   S    
Cu4   O25   S    
C23   H21   S    
C4    C64   S    
Cu3   O20   S    
C59   H13   S    
C32   C33   A    
C82   H43   S    
C2    C3    A    
Cu2   O16   S    
C71   C72   A    
C30   H4    S    
C40   C52   S    
C34   C78   S    
C29   H3    S    
C61   C68   A    
C57   C58   A    
C5    C6    A    
C44   C60   S    
C31   H5    S    
C71   H19   S    
C33   C35   A    
C40   C74   S    
C16   O13   A    
C18   C20   S    
C20   H45   S    
C61   C62   A    
C19   C25   S    
C47   C72   S    
C10   C11   A    
C41   C73   S    
C41   O20   A    
C15   C28   S    
C43   O24   A    
Cu3   O24   S    
C20   C21   S    
C49   C50   A    
C21   C24   S    
C39   O17   A    
C17   C43   S    
C52   H1    S    
C75   H26   S    
C44   O26   A    
Cu5   Cu6   S    
C63   H17   S    
Cu3   O17   S    
C52   C56   S    
C43   O25   A    
C4    O10   A    
