data_mof_unit_42915.cif
_audit_creation_date              2013-03-05T15:49:46-0500
_audit_creation_method            fapswitch 2.2
_symmetry_space_group_name_H-M    P1
_symmetry_Int_Tables_number       1
_space_group_crystal_system       triclinic
_cell_length_a                    6.922453
_cell_length_b                    19.650392
_cell_length_c                    22.956155
_cell_angle_alpha                 90.006245
_cell_angle_beta                  89.929687
_cell_angle_gamma                 89.988422
_cell_volume                      3122.69842462

loop_
_atom_site_label
_atom_site_type_symbol
_atom_site_description
_atom_site_fract_x
_atom_site_fract_y
_atom_site_fract_z
_atom_type_partial_charge
O1    O     O_R   0.620180 0.810610 0.187990 -0.592643
O2    O     O_R   0.379820 0.189390 0.812010 -0.595637
O3    O     O_R   0.379820 0.189390 0.687990 -0.592626
O4    O     O_R   0.620180 0.810610 0.312010 -0.595482
O5    O     O_R   0.120180 0.689390 0.312010 -0.592302
O6    O     O_R   0.879820 0.310610 0.687990 -0.597390
O7    O     O_R   0.879820 0.310610 0.812010 -0.592699
O8    O     O_R   0.120180 0.689390 0.187990 -0.595776
O9    O     O_R   0.290420 0.818570 0.311590 -0.566952
O10   O     O_R   0.709580 0.181430 0.688410 -0.561481
O11   O     O_R   0.709580 0.181430 0.811590 -0.566874
O12   O     O_R   0.290420 0.818570 0.188410 -0.559335
O13   O     O_R   0.790420 0.681430 0.188410 -0.567038
O14   O     O_R   0.209580 0.318570 0.811590 -0.559143
O15   O     O_R   0.209580 0.318570 0.688410 -0.571187
O16   O     O_R   0.790420 0.681430 0.311590 -0.559043
H1    H     H_    0.411826 0.541763 0.587693 0.216658
H2    H     H_    0.576957 0.461664 0.416015 0.218942
H3    H     H_    0.596866 0.455287 0.090408 0.217744
H4    H     H_    0.411687 0.542424 0.911888 0.215430
H5    H     H_    0.901203 0.954583 0.908897 0.217385
H6    H     H_    0.082625 0.040579 0.086173 0.215311
H7    H     H_    0.089589 0.042166 0.412117 0.220682
H8    H     H_    0.926435 0.962459 0.583133 0.212650
C1    C     C_R   0.458745 0.834987 0.332025 1.018455
C2    C     C_R   0.541673 0.164475 0.668204 1.006624
C3    C     C_R   0.540884 0.164802 0.831848 1.018761
C4    C     C_R   0.458726 0.835739 0.168395 1.004097
C5    C     C_R   0.959015 0.664914 0.168038 1.017114
C6    C     C_R   0.041113 0.335775 0.831534 1.002451
C7    C     C_R   0.041308 0.335233 0.668115 1.015901
C8    C     C_R   0.958518 0.664307 0.331624 1.006156
H9    H     H_    0.772359 0.341679 0.586016 0.187318
H10   H     H_    0.213114 0.663131 0.417787 0.193619
H11   H     H_    0.212773 0.664399 0.081359 0.188741
H12   H     H_    0.789476 0.335865 0.918851 0.190777
H13   H     H_    0.287320 0.164406 0.918525 0.188706
H14   H     H_    0.711063 0.836082 0.081256 0.191550
H15   H     H_    0.714537 0.836169 0.417766 0.190801
H16   H     H_    0.273897 0.157972 0.585709 0.194506
O17   O     O_3   0.453640 0.707610 0.250000 -0.240614
O18   O     O_3   0.546360 0.292390 0.750000 -0.241722
O19   O     O_3   0.953640 0.792390 0.250000 -0.240871
O20   O     O_3   0.046360 0.207610 0.750000 -0.239121
V1    V     V_3+5 0.178800 0.757860 0.250000 1.341743
V2    V     V_3+5 0.821200 0.242140 0.750000 1.337660
V3    V     V_3+5 0.678800 0.742140 0.250000 1.341741
V4    V     V_3+5 0.321200 0.257860 0.750000 1.336865
C9    C     C_R   0.881518 0.380070 0.578728 -0.045842
C10   C     C_R   0.114310 0.620892 0.422243 -0.079645
C11   C     C_R   0.114650 0.621927 0.077166 -0.070223
C12   C     C_R   0.886460 0.378729 0.922668 -0.079750
C13   C     C_R   0.384738 0.121692 0.922517 -0.073508
C14   C     C_R   0.613160 0.878659 0.077173 -0.079588
C15   C     C_R   0.615538 0.878319 0.422378 -0.069920
C16   C     C_R   0.382632 0.119379 0.578641 -0.063555
C17   C     C_R   0.033428 0.384804 0.618806 -0.327498
C18   C     C_R   0.965826 0.614623 0.380972 -0.324278
C19   C     C_R   0.968235 0.615052 0.118997 -0.320866
C20   C     C_R   0.032581 0.385739 0.880632 -0.322484
C21   C     C_R   0.531076 0.114770 0.880695 -0.319268
C22   C     C_R   0.466522 0.885530 0.119093 -0.323480
C23   C     C_R   0.467292 0.884634 0.381203 -0.321756
C24   C     C_R   0.535357 0.115036 0.618587 -0.324577
C25   C     C_R   0.176770 0.435337 0.610484 0.345934
C26   C     C_R   0.828074 0.561671 0.387723 0.380401
C27   C     C_R   0.831198 0.562079 0.112823 0.379074
C28   C     C_R   0.166498 0.439935 0.886177 0.373181
C29   C     C_R   0.666507 0.061268 0.886423 0.380185
C30   C     C_R   0.330749 0.939187 0.113022 0.375765
C31   C     C_R   0.328201 0.936872 0.388106 0.382964
C32   C     C_R   0.678922 0.064329 0.610179 0.350481
C33   C     C_R   0.162284 0.481701 0.563360 0.003660
C34   C     C_R   0.840395 0.516633 0.435879 -0.010897
C35   C     C_R   0.843560 0.516389 0.065127 -0.014260
C36   C     C_R   0.154647 0.485094 0.934260 -0.005799
C37   C     C_R   0.654634 0.015713 0.934218 -0.014344
C38   C     C_R   0.342675 0.984251 0.064862 -0.006292
C39   C     C_R   0.340633 0.982446 0.435870 -0.019254
C40   C     C_R   0.664054 0.017989 0.562975 0.001621
C41   C     C_R   0.008956 0.475794 0.523065 0.045055
C42   C     C_R   0.994992 0.522239 0.475768 0.024448
C43   C     C_R   0.993397 0.523592 0.023629 0.023630
C44   C     C_R   0.005026 0.477836 0.975737 0.021473
C45   C     C_R   0.504977 0.023004 0.975766 0.024057
C46   C     C_R   0.493300 0.977274 0.023672 0.021513
C47   C     C_R   0.494944 0.976736 0.475956 0.025875
C48   C     C_R   0.509198 0.023323 0.523164 0.045076
C49   C     C_R   0.868644 0.423934 0.530370 0.001040
C50   C     C_R   0.133553 0.574792 0.468965 -0.003979
C51   C     C_R   0.131749 0.576338 0.030052 0.001429
C52   C     C_R   0.868052 0.424691 0.969569 -0.006040
C53   C     C_R   0.366510 0.075719 0.969281 0.001473
C54   C     C_R   0.630814 0.924313 0.030015 -0.006414
C55   C     C_R   0.634664 0.924493 0.468943 0.004717
C56   C     C_R   0.369561 0.075419 0.530283 -0.007799
C57   C     C_R   0.295827 0.535075 0.556692 -0.225633
C58   C     C_R   0.699777 0.465920 0.444844 -0.207288
C59   C     C_R   0.710962 0.462656 0.058824 -0.220331
C60   C     C_R   0.291687 0.537222 0.941784 -0.208384
C61   C     C_R   0.787219 0.961979 0.940523 -0.221099
C62   C     C_R   0.204325 0.035897 0.056864 -0.208485
C63   C     C_R   0.205160 0.035171 0.443177 -0.215962
C64   C     C_R   0.802748 0.966517 0.554652 -0.220598
C65   C     C_R   0.284013 0.581248 0.510378 0.319598
C66   C     C_R   0.714711 0.418680 0.490195 0.321309
C67   C     C_R   0.719789 0.417530 0.011668 0.318562
C68   C     C_R   0.281812 0.582833 0.988478 0.319645
C69   C     C_R   0.778726 0.916991 0.987790 0.318436
C70   C     C_R   0.214985 0.081744 0.010390 0.318871
C71   C     C_R   0.218340 0.081688 0.489214 0.312744
C72   C     C_R   0.788351 0.919245 0.509334 0.325754
N1    N     N_R   0.332362 0.441497 0.651197 0.235970
O21   O     O_R   0.296290 0.455923 0.705301 -0.311943
O22   O     O_R   0.509489 0.430746 0.634728 -0.412737
N2    N     N_R   0.682669 0.550595 0.344257 0.237905
O23   O     O_R   0.528320 0.588342 0.343900 -0.341457
O24   O     O_R   0.680425 0.493029 0.316272 -0.304867
N3    N     N_R   0.685325 0.552848 0.156438 0.237973
O25   O     O_R   0.735769 0.540905 0.209899 -0.326881
O26   O     O_R   0.503686 0.561334 0.143903 -0.363769
N4    N     N_R   0.307468 0.451949 0.841563 0.235478
O27   O     O_R   0.466646 0.416761 0.841125 -0.339559
O28   O     O_R   0.299882 0.508503 0.812200 -0.306602
N5    N     N_R   0.808718 0.050984 0.841930 0.237408
O29   O     O_R   0.753622 0.037649 0.789115 -0.329601
O30   O     O_R   0.991320 0.059782 0.852940 -0.359796
N6    N     N_R   0.186847 0.950569 0.156957 0.237353
O31   O     O_R   0.030749 0.913735 0.157250 -0.341570
O32   O     O_R   0.187487 0.007908 0.185291 -0.303666
N7    N     N_R   0.181548 0.945995 0.344794 0.238154
O33   O     O_R   0.231136 0.958633 0.291353 -0.325238
O34   O     O_R   0.000097 0.937374 0.357583 -0.364410
N8    N     N_R   0.836330 0.058104 0.650361 0.236685
O35   O     O_R   0.984570 0.098270 0.645221 -0.392127
O36   O     O_R   0.852778 0.003146 0.681515 -0.298966
N9    N     N_R   0.424288 0.635098 0.507356 0.237348
O37   O     O_R   0.474683 0.667023 0.554621 -0.308143
O38   O     O_R   0.525935 0.644124 0.460332 -0.409455
N10   N     N_R   0.574307 0.364864 0.493641 0.245638
O39   O     O_R   0.393653 0.377516 0.482390 -0.366415
O40   O     O_R   0.631120 0.301781 0.495891 -0.320157
N11   N     N_R   0.576709 0.364695 0.007809 0.237539
O41   O     O_R   0.524138 0.332056 0.054528 -0.308806
O42   O     O_R   0.474712 0.357624 0.960658 -0.409648
N12   N     N_R   0.425287 0.635599 0.992151 0.237805
O43   O     O_R   0.479403 0.667411 0.945174 -0.305680
O44   O     O_R   0.525692 0.643615 0.039487 -0.408405
N13   N     N_R   0.921204 0.863922 0.991452 0.237748
O45   O     O_R   0.971944 0.830974 0.944698 -0.307492
O46   O     O_R   0.024513 0.856883 0.038338 -0.409353
N14   N     N_R   0.070217 0.134058 0.006304 0.237300
O47   O     O_R   0.012260 0.165222 0.053193 -0.307181
O48   O     O_R   0.972807 0.142321 0.958431 -0.410277
N15   N     N_R   0.079916 0.136169 0.492155 0.244327
O49   O     O_R   0.899245 0.124338 0.480217 -0.363165
O50   O     O_R   0.138896 0.198975 0.494901 -0.317928
N16   N     N_R   0.929664 0.865631 0.506406 0.237220
O51   O     O_R   0.984934 0.835456 0.554012 -0.306606
O52   O     O_R   0.026679 0.854820 0.458778 -0.409283

loop_
_geom_bond_atom_site_label_1
_geom_bond_atom_site_label_2
_geom_bond_distance
_ccdc_geom_bond_type
C47   C48   1.422069 A    
C48   C56   1.417124 A    
O9    V1    2.005477 S    
H2    C58   1.081305 S    
C30   C38   1.418898 A    
C29   C37   1.418420 A    
H1    C57   1.081655 S    
C8    C18   1.496477 S    
N6    O31   1.300732 A    
C36   C44   1.413293 A    
C39   C47   1.415228 A    
O4    C1    1.299196 A    
O9    C1    1.297441 A    
C34   C58   1.408160 A    
C45   C46   1.422488 A    
C33   C57   1.406456 A    
N9    O38   1.300027 A    
C10   C50   1.410406 A    
C26   N2    1.434815 S    
C40   C64   1.407278 A    
O8    C5    1.298934 A    
O13   C5    1.297926 A    
O14   C6    1.297095 A    
N12   O43   1.301283 A    
C70   N14   1.438659 S    
C55   C72   1.415847 A    
N13   O46   1.300375 A    
C1    C23   1.493219 S    
N15   O50   1.301580 A    
H5    C61   1.081368 S    
C61   C69   1.400863 A    
N11   O41   1.301269 A    
C26   C34   1.418810 A    
O3    V4    1.999816 S    
C9    C17   1.401202 A    
N2    O23   1.300614 A    
C22   C30   1.419312 A    
C16   C56   1.409541 A    
O18   V2    2.143368 S    
C2    C24   1.497670 S    
O8    V1    2.000636 S    
C46   C54   1.417902 A    
C19   C27   1.415705 A    
C45   C53   1.419129 A    
C18   C26   1.419892 A    
H7    C63   1.081079 S    
C5    C19   1.493684 S    
H16   C16   1.080489 S    
C15   C23   1.401546 A    
C49   C66   1.413911 A    
O10   V2    2.005479 S    
O1    C4    1.302455 A    
C16   C24   1.402950 A    
O2    C3    1.298092 A    
C12   C20   1.403933 A    
N12   O44   1.300228 A    
H12   C12   1.080852 S    
C53   C70   1.415042 A    
O5    C8    1.302722 A    
C41   C49   1.417773 A    
C38   C46   1.413357 A    
O6    C7    1.300378 A    
C37   C45   1.414575 A    
O7    C6    1.301341 A    
N16   O52   1.299866 A    
C39   C63   1.407216 A    
C13   C21   1.401408 A    
O15   V4    2.005476 S    
C34   C42   1.413634 A    
O16   V3    2.005475 S    
C33   C41   1.413555 A    
O20   V2    1.699821 S    
C41   C42   1.421837 A    
C68   N12   1.438482 S    
N3    O26   1.300940 A    
C56   C71   1.415005 A    
H15   C15   1.080021 S    
H10   C10   1.080414 S    
C60   C68   1.398782 A    
C13   C53   1.408700 A    
C10   C18   1.404182 A    
O7    V2    2.000634 S    
C36   C60   1.407040 A    
N10   O39   1.301204 A    
C15   C55   1.408436 A    
C25   C33   1.418030 A    
C28   N4    1.433392 S    
O13   V3    2.003955 S    
H3    C59   1.081271 S    
O1    V3    2.000734 S    
O14   V4    2.003954 S    
C14   C22   1.404363 A    
O2    V4    2.000732 S    
O5    V1    2.000134 S    
C31   C39   1.418340 A    
C6    C20   1.495784 S    
H8    C64   1.080868 S    
C3    C21   1.492890 S    
C69   N13   1.437752 S    
H13   C13   1.080562 S    
C52   C67   1.415910 A    
C66   N10   1.438563 S    
C43   C44   1.422369 A    
H14   C14   1.080762 S    
O11   C3    1.298311 A    
C35   C59   1.406780 A    
O10   C2    1.295607 A    
O17   V3    1.700073 S    
O18   V4    1.700073 S    
C28   C36   1.418490 A    
C32   N8    1.433751 S    
N5    O30   1.300948 A    
O19   V1    1.699822 S    
C23   C31   1.416002 A    
C72   N16   1.439023 S    
O12   C4    1.296628 A    
H11   C11   1.080545 S    
N5    O29   1.298153 A    
C12   C52   1.410859 A    
C27   C35   1.418372 A    
C67   N11   1.437838 S    
N7    O33   1.297535 A    
N4    O28   1.300913 A    
C59   C67   1.400553 A    
C64   C72   1.398275 A    
N1    O21   1.297867 A    
N14   O48   1.300249 A    
C30   N6    1.434223 S    
N11   O42   1.300504 A    
C47   C55   1.419316 A    
C9    C49   1.408424 A    
O6    V2    2.000136 S    
C58   C66   1.398834 A    
C25   N1    1.432048 S    
C51   C68   1.415592 A    
O3    C2    1.303768 A    
C50   C65   1.416738 A    
C17   C25   1.416727 A    
O12   V1    2.004325 S    
N7    O34   1.300706 A    
C42   C50   1.418072 A    
N8    O36   1.300392 A    
N3    O25   1.297796 A    
O15   C7    1.297065 A    
N8    O35   1.299996 A    
N10   O40   1.301476 A    
C63   C71   1.400292 A    
N6    O32   1.300941 A    
O16   C8    1.296148 A    
C43   C51   1.419150 A    
N9    O37   1.301312 A    
C54   C69   1.416399 A    
H6    C62   1.081417 S    
C21   C29   1.414732 A    
C7    C17   1.494482 S    
C65   N9    1.437968 S    
C27   N3    1.432728 S    
C57   C65   1.400251 A    
H4    C60   1.081741 S    
C40   C48   1.413426 A    
N13   O45   1.301269 A    
C35   C43   1.414605 A    
N16   O51   1.301311 A    
O19   V3    2.143722 S    
N2    O24   1.300933 A    
C37   C61   1.406488 A    
C24   C32   1.420172 A    
C14   C54   1.411240 A    
C62   C70   1.398317 A    
C29   N5    1.432002 S    
C11   C19   1.401911 A    
N14   O47   1.301267 A    
C20   C28   1.417896 A    
C31   N7    1.433108 S    
C32   C40   1.419189 A    
H9    C9    1.080773 S    
N15   O49   1.301650 A    
C11   C51   1.409157 A    
O17   V1    2.143368 S    
O11   V2    2.004323 S    
C38   C62   1.407473 A    
C44   C52   1.417901 A    
N4    O27   1.300798 A    
C71   N15   1.438156 S    
O20   V4    2.143723 S    
N1    O22   1.299902 A    
O4    V3    1.999815 S    
C4    C22   1.497098 S    
