data_mof_unit_49731.cif
_audit_creation_date              2012-12-11T15:57:07-0500
_audit_creation_method            fapswitch 2.2
_symmetry_space_group_name_H-M    P1
_symmetry_Int_Tables_number       1
_space_group_crystal_system       triclinic
_cell_length_a                    17.453634
_cell_length_b                    24.478609
_cell_length_c                    15.113284
_cell_angle_alpha                 89.671345
_cell_angle_beta                  126.060993
_cell_angle_gamma                 90.352071
_cell_volume                      5219.67095489

loop_
_atom_site_label
_atom_site_type_symbol
_atom_type_description
_atom_site_fract_x
_atom_site_fract_y
_atom_site_fract_z
_atom_type_partial_charge
C1    C     C_R   0.308811 0.123556 0.905210 -0.116896
C2    C     C_R   0.306969 0.878725 0.907429 -0.144141
C3    C     C_R   0.808977 0.623783 0.905253 -0.116497
C4    C     C_R   0.807382 0.377997 0.907417 -0.147118
C5    C     C_R   0.649641 0.151690 0.089931 -0.068137
C6    C     C_R   0.653029 0.849444 0.091187 -0.063936
C7    C     C_R   0.150103 0.651641 0.090056 -0.061408
C8    C     C_R   0.153571 0.349598 0.091202 -0.063725
C9    C     C_R   0.562298 0.850209 0.908724 -0.113600
C10   C     C_R   0.560048 0.151043 0.907997 -0.108413
C11   C     C_R   0.062559 0.350304 0.908679 -0.114525
C12   C     C_R   0.060230 0.651075 0.908146 -0.112022
C13   C     C_R   0.539572 0.001215 0.715242 0.016071
C14   C     C_R   0.040611 0.501269 0.716202 0.012227
C15   C     C_R   0.826534 0.999554 0.280187 -0.170955
C16   C     C_R   0.326499 0.499656 0.281795 -0.173265
C17   C     C_R   0.622643 0.181766 0.998493 0.097249
C18   C     C_R   0.629268 0.820812 0.000303 0.118416
C19   C     C_R   0.123065 0.681828 0.998724 0.097514
C20   C     C_R   0.129816 0.321001 0.000239 0.120331
C21   C     C_3   0.030291 0.952790 0.506312 -0.330292
C22   C     C_3   0.027987 0.043580 0.512798 -0.367453
C23   C     C_3   0.529650 0.452708 0.507794 -0.315957
C24   C     C_3   0.526417 0.543406 0.516432 -0.379359
C25   C     C_3   0.958363 0.996689 0.481486 0.774485
C26   C     C_3   0.457160 0.496091 0.483698 0.774366
C27   C     C_3   0.927116 0.999970 0.363664 0.072947
C28   C     C_3   0.426478 0.500275 0.366167 0.068105
C29   C     C_3   0.000094 0.956165 0.387365 -0.288268
C30   C     C_3   0.997631 0.047098 0.393880 -0.330282
C31   C     C_3   0.499890 0.457042 0.389041 -0.317687
C32   C     C_3   0.496468 0.547896 0.397882 -0.293429
C33   C     C_3   0.071733 0.003064 0.420639 0.697180
C34   C     C_3   0.570772 0.504601 0.423682 0.697679
C35   C     C_R   0.399890 0.878402 0.091174 -0.146730
C36   C     C_R   0.399213 0.122696 0.089369 -0.164872
C37   C     C_R   0.900529 0.377686 0.091340 -0.142663
C38   C     C_R   0.899405 0.622918 0.089444 -0.164591
C39   C     C_3   0.100795 0.999663 0.537122 -0.029162
C40   C     C_3   0.599605 0.500118 0.539817 -0.032736
C41   C     C_3   0.257691 0.818359 0.103878 0.564069
C42   C     C_3   0.216787 0.171606 0.059620 0.559737
C43   C     C_3   0.763096 0.315818 0.106542 0.559729
C44   C     C_3   0.715831 0.671317 0.058390 0.558233
C45   C     C_3   0.711129 0.264559 0.104985 -0.679524
C46   C     C_3   0.665005 0.722994 0.059569 -0.669628
C47   C     C_3   0.206323 0.766636 0.102513 -0.674631
C48   C     C_3   0.166809 0.223524 0.061492 -0.670261
C49   C     C_3   0.802592 0.266392 0.991010 -0.873394
C50   C     C_3   0.830789 0.733846 0.048715 -0.901155
C51   C     C_3   0.305086 0.767504 0.996832 -0.871609
C52   C     C_3   0.330690 0.233637 0.047677 -0.901722
C53   C     C_3   0.149658 0.819374 0.894718 0.599461
C54   C     C_3   0.176617 0.202565 0.875013 0.597478
C55   C     C_3   0.649368 0.320169 0.897657 0.599866
C56   C     C_3   0.677236 0.703010 0.875002 0.596311
C57   C     C_3   0.254954 0.819561 0.998723 0.025747
C58   C     C_3   0.258407 0.184757 0.994376 0.043298
C59   C     C_3   0.755931 0.318521 0.998720 0.026978
C60   C     C_3   0.758517 0.684950 0.994432 0.044128
C61   C     C_3   0.669313 0.231651 0.997922 0.088973
C62   C     C_3   0.676841 0.771356 0.001332 0.078645
C63   C     C_3   0.169506 0.732054 0.998429 0.087542
C64   C     C_3   0.177128 0.271426 0.001155 0.077452
C65   C     C_3   0.747007 0.214171 0.981267 1.074496
C66   C     C_3   0.784291 0.785456 0.056551 1.087273
C67   C     C_3   0.251199 0.714785 0.988605 1.077137
C68   C     C_3   0.284122 0.285626 0.054185 1.091972
C69   C     C_3   0.596711 0.270821 0.903434 -0.577343
C70   C     C_3   0.628687 0.752979 0.880694 -0.585595
C71   C     C_3   0.097575 0.769607 0.899980 -0.578128
C72   C     C_3   0.127619 0.252317 0.880670 -0.584049
C73   C     C_3   0.539891 0.062822 0.581548 0.492615
C74   C     C_3   0.643248 0.977123 0.656944 0.504725
C75   C     C_3   0.047288 0.563310 0.586963 0.491205
C76   C     C_3   0.142843 0.474679 0.656659 0.506308
C77   C     C_R   0.544117 0.046354 0.299919 -0.179582
C78   C     C_R   0.544020 0.955163 0.302220 -0.191673
C79   C     C_R   0.044869 0.546425 0.300279 -0.178717
C80   C     C_R   0.044407 0.455266 0.302537 -0.190233
C81   C     C_3   0.551395 0.062049 0.488909 -0.562169
C82   C     C_3   0.643976 0.974739 0.554799 -0.563544
C83   C     C_3   0.059056 0.562360 0.494363 -0.561881
C84   C     C_3   0.143286 0.472394 0.554285 -0.564273
C85   C     C_3   0.463276 0.969131 0.527554 -0.336446
C86   C     C_3   0.962476 0.471949 0.526939 -0.337344
C87   C     C_3   0.547530 0.002677 0.623337 0.076830
C88   C     C_3   0.049399 0.502910 0.624791 0.076720
C89   C     C_3   0.554328 0.002539 0.456740 0.284947
C90   C     C_3   0.056345 0.502887 0.458119 0.282165
C91   C     C_3   0.464788 0.971733 0.428226 -0.400658
C92   C     C_3   0.964185 0.474887 0.427785 -0.395543
C93   C     C_R   0.240778 0.954113 0.697533 -0.152285
C94   C     C_R   0.240894 0.045710 0.697083 -0.117270
C95   C     C_R   0.739991 0.454152 0.698370 -0.155817
C96   C     C_R   0.740333 0.545843 0.698006 -0.110683
C97   C     C_R   0.311836 0.138210 0.995427 0.162517
C98   C     C_R   0.309630 0.865867 0.999016 0.185721
C99   C     C_R   0.812147 0.638544 0.995503 0.161998
C100  C     C_R   0.810595 0.364743 0.999158 0.189393
C101  C     C_R   0.552804 0.001419 0.359336 0.105905
C102  C     C_R   0.054226 0.501588 0.360205 0.105122
C103  C     C_R   0.192856 0.999836 0.638835 0.152355
C104  C     C_R   0.691719 0.500010 0.640630 0.152294
C105  C     C_R   0.518359 0.046322 0.751514 -0.070714
C106  C     C_R   0.514940 0.954672 0.746467 -0.067730
C107  C     C_R   0.019004 0.546304 0.752229 -0.068566
C108  C     C_R   0.015128 0.454713 0.746573 -0.071676
C109  C     C_R   0.770745 0.953780 0.257513 0.462605
C110  C     C_R   0.770975 0.045454 0.254379 0.473829
C111  C     C_R   0.270794 0.453786 0.258520 0.470138
C112  C     C_R   0.270911 0.545528 0.255165 0.473546
H1    H     H_    0.253985 0.130850 0.819965 0.109500
H2    H     H_    0.250059 0.871115 0.822832 0.089028
H3    H     H_    0.754205 0.631163 0.820053 0.109009
H4    H     H_    0.750671 0.369925 0.822919 0.088584
H5    H     H_    0.044904 0.915027 0.554796 0.138971
H6    H     H_    0.041344 0.078564 0.566284 0.147647
H7    H     H_    0.544469 0.414659 0.555628 0.139211
H8    H     H_    0.539709 0.577879 0.570842 0.149645
H9    H     H_    0.987226 0.921767 0.332769 0.172403
H10   H     H_    0.981780 0.084903 0.345300 0.175881
H11   H     H_    0.486741 0.423147 0.333357 0.167885
H12   H     H_    0.481799 0.585914 0.350200 0.178208
H13   H     H_    0.332881 0.815058 0.176629 -0.055951
H14   H     H_    0.276656 0.160048 0.144532 -0.051091
H15   H     H_    0.838933 0.310999 0.176777 -0.052539
H16   H     H_    0.775126 0.659630 0.143422 -0.050210
H17   H     H_    0.145367 0.777978 0.103972 0.211234
H18   H     H_    0.090089 0.214972 0.020181 0.221546
H19   H     H_    0.652647 0.276116 0.110882 0.209619
H20   H     H_    0.588041 0.714379 0.016303 0.222081
H21   H     H_    0.761014 0.240262 0.179445 0.135637
H22   H     H_    0.691626 0.733261 0.144457 0.129602
H23   H     H_    0.255181 0.743530 0.179102 0.133472
H24   H     H_    0.195125 0.234335 0.146753 0.129374
H25   H     H_    0.879058 0.265318 0.058751 0.199783
H26   H     H_    0.897849 0.723710 0.128319 0.199792
H27   H     H_    0.381011 0.767710 0.066265 0.199598
H28   H     H_    0.397292 0.223468 0.127607 0.201475
H29   H     H_    0.149837 0.813920 0.821515 0.004830
H30   H     H_    0.209121 0.215531 0.832752 -0.012169
H31   H     H_    0.646457 0.315389 0.822264 0.006871
H32   H     H_    0.709985 0.715787 0.832933 -0.012073
H33   H     H_    0.428903 0.871086 0.175763 0.090152
H34   H     H_    0.425841 0.130393 0.173230 0.096387
H35   H     H_    0.929755 0.370642 0.176055 0.090449
H36   H     H_    0.926064 0.630570 0.173339 0.096441
H37   H     H_    0.041379 0.783121 0.908474 0.201816
H38   H     H_    0.051957 0.242493 0.843634 0.205033
H39   H     H_    0.543779 0.284772 0.917037 0.201150
H40   H     H_    0.552582 0.743594 0.841985 0.204412
H41   H     H_    0.555757 0.250358 0.822473 0.161371
H42   H     H_    0.631233 0.786061 0.831550 0.175836
H43   H     H_    0.060663 0.748006 0.820420 0.160978
H44   H     H_    0.128495 0.285114 0.829879 0.174561
H45   H     H_    0.802214 0.269891 0.917366 0.213360
H46   H     H_    0.855335 0.742923 0.996742 0.199709
H47   H     H_    0.306933 0.770025 0.924620 0.213662
H48   H     H_    0.355691 0.242119 0.995964 0.199255
H49   H     H_    0.599247 0.087078 0.650884 -0.005918
H50   H     H_    0.701307 0.004835 0.719306 -0.016425
H51   H     H_    0.108531 0.585673 0.658172 -0.005928
H52   H     H_    0.203166 0.500695 0.720629 -0.015129
H53   H     H_    0.617656 0.084159 0.515307 0.132640
H54   H     H_    0.708688 0.995513 0.572974 0.141725
H55   H     H_    0.127221 0.582428 0.522066 0.133277
H56   H     H_    0.209789 0.491165 0.573678 0.142690
H57   H     H_    0.490736 0.083927 0.416661 0.197322
H58   H     H_    0.646257 0.931597 0.533601 0.194438
H59   H     H_    0.000516 0.586140 0.423760 0.197823
H60   H     H_    0.141498 0.429261 0.530247 0.193603
H61   H     H_    0.394267 0.984865 0.505386 0.210120
H62   H     H_    0.467548 0.925482 0.550802 0.168290
H63   H     H_    0.894916 0.489558 0.505892 0.210988
H64   H     H_    0.963011 0.428168 0.547393 0.168244
H65   H     H_    0.558844 0.088633 0.325130 0.088484
H66   H     H_    0.557127 0.913387 0.331172 0.081294
H67   H     H_    0.059934 0.588707 0.325385 0.087406
H68   H     H_    0.057178 0.413479 0.331377 0.080318
H69   H     H_    0.399656 0.992478 0.359367 0.181256
H70   H     H_    0.464229 0.929245 0.402330 0.148280
H71   H     H_    0.901196 0.497812 0.360672 0.181753
H72   H     H_    0.959641 0.432648 0.398712 0.152397
H73   H     H_    0.226364 0.912371 0.668712 0.098414
H74   H     H_    0.226371 0.087426 0.667672 0.090171
H75   H     H_    0.725122 0.412447 0.669338 0.097883
H76   H     H_    0.725627 0.587547 0.668529 0.092690
H77   H     H_    0.529330 0.088677 0.743572 0.123411
H78   H     H_    0.519112 0.912609 0.728720 0.132004
H79   H     H_    0.030634 0.588628 0.745138 0.128279
H80   H     H_    0.018796 0.412682 0.728220 0.136705
H81   H     H_    0.687687 0.166478 0.172228 0.130130
H82   H     H_    0.693377 0.834352 0.173781 0.136254
H83   H     H_    0.188800 0.666360 0.172462 0.130122
H84   H     H_    0.194418 0.334547 0.173875 0.134572
H85   H     H_    0.519129 0.837664 0.824031 0.086197
H86   H     H_    0.518211 0.163655 0.823286 0.099607
H87   H     H_    0.019286 0.337710 0.824017 0.086941
H88   H     H_    0.018075 0.663688 0.823455 0.098109
N1    N     N_R   0.392450 0.103580 0.942190 -0.054120
N2    N     N_R   0.392450 0.896420 0.942190 -0.045814
N3    N     N_R   0.892450 0.603580 0.942190 -0.054024
N4    N     N_R   0.892450 0.396420 0.942190 -0.045135
N5    N     N_R   0.450490 0.896000 0.057360 -0.049154
N6    N     N_R   0.450490 0.104000 0.057360 -0.044635
N7    N     N_R   0.950490 0.396000 0.057360 -0.050181
N8    N     N_R   0.950490 0.604000 0.057360 -0.044774
N9    N     N_R   0.525490 0.028390 0.207550 -0.030826
N10   N     N_R   0.525490 0.971610 0.207550 -0.031466
N11   N     N_R   0.025490 0.528390 0.207550 -0.030951
N12   N     N_R   0.025490 0.471610 0.207550 -0.031765
N13   N     N_R   0.317450 0.971190 0.792000 -0.038160
N14   N     N_R   0.317450 0.028810 0.792000 -0.041042
N15   N     N_R   0.817450 0.471190 0.792000 -0.037650
N16   N     N_R   0.817450 0.528810 0.792000 -0.042168
N17   N     N_R   0.473900 0.028390 0.792280 -0.045844
N18   N     N_R   0.473900 0.971610 0.792280 -0.054063
N19   N     N_R   0.973900 0.528390 0.792280 -0.046371
N20   N     N_R   0.973900 0.471610 0.792280 -0.054198
N21   N     N_R   0.682310 0.971180 0.208170 -0.146979
N22   N     N_R   0.682310 0.028820 0.208170 -0.139463
N23   N     N_R   0.182310 0.471180 0.208170 -0.148260
N24   N     N_R   0.182310 0.528820 0.208170 -0.139659
N25   N     N_R   0.606470 0.103570 0.057210 -0.050287
N26   N     N_R   0.606470 0.896430 0.057210 -0.060018
N27   N     N_R   0.106470 0.603570 0.057210 -0.051201
N28   N     N_R   0.106470 0.396430 0.057210 -0.060300
N29   N     N_R   0.549740 0.896000 0.943240 -0.048962
N30   N     N_R   0.549740 0.104000 0.943240 -0.054631
N31   N     N_R   0.049740 0.396000 0.943240 -0.049262
N32   N     N_R   0.049740 0.604000 0.943240 -0.054949
Ni1   Ni    Ni4+2 0.433780 0.065390 0.868430 0.214451
Ni2   Ni    Ni4+2 0.433780 0.934610 0.868430 0.209382
Ni3   Ni    Ni4+2 0.933780 0.565390 0.868430 0.215671
Ni4   Ni    Ni4+2 0.933780 0.434610 0.868430 0.209042
Ni5   Ni    Ni4+2 0.565800 0.934190 0.131570 0.187730
Ni6   Ni    Ni4+2 0.565800 0.065810 0.131570 0.192447
Ni7   Ni    Ni4+2 0.065800 0.434190 0.131570 0.187463
Ni8   Ni    Ni4+2 0.065800 0.565810 0.131570 0.192496
O1    O     O_3   0.141552 0.003198 0.401217 -0.613321
C113  C     C_3   0.110324 0.034633 0.307622 -0.298025
H89   H     H_    0.039756 0.020649 0.235570 0.140174
H90   H     H_    0.161792 0.030220 0.287757 0.182463
H91   H     H_    0.108995 0.078621 0.324167 0.153746
O2    O     O_3   0.640031 0.510190 0.404213 -0.608611
C114  C     C_3   0.595181 0.510304 0.290702 -0.298911
H92   H     H_    0.567305 0.468993 0.256456 0.148064
H93   H     H_    0.648398 0.521492 0.275889 0.187292
H94   H     H_    0.537351 0.540898 0.247336 0.137747
O3    O     O_3   0.214243 0.866072 0.108408 -0.571369
C115  C     C_3   0.249624 0.878030 0.217609 0.283955
H95   H     H_    0.326513 0.887487 0.266452 0.068851
H96   H     H_    0.237811 0.843249 0.256112 0.078184
C116  C     C_3   0.198847 0.927782 0.219188 -0.887617
H97   H     H_    0.121499 0.919634 0.171218 0.255528
H98   H     H_    0.226527 0.937242 0.304984 0.229660
H99   H     H_    0.211199 0.963554 0.183476 0.253765
O4    O     O_3   0.150871 0.127844 0.008215 -0.567898
C117  C     C_3   0.143291 0.098947 0.083952 0.270828
H100  H     H_    0.128628 0.126940 0.130164 0.083089
H101  H     H_    0.209737 0.075941 0.142498 0.085943
C118  C     C_3   0.061801 0.058315 0.021846 -0.869343
H102  H     H_    0.994296 0.080371 0.963911 0.248913
H103  H     H_    0.074699 0.029569 0.975325 0.275439
H104  H     H_    0.055373 0.034548 0.079885 0.195652
O5    O     O_3   0.723522 0.363724 0.116642 -0.572422
C119  C     C_3   0.760708 0.373231 0.227153 0.299404
H105  H     H_    0.838860 0.378102 0.277645 0.061704
H106  H     H_    0.742457 0.339182 0.260841 0.078252
C120  C     C_3   0.718420 0.425505 0.234260 -0.911945
H107  H     H_    0.640049 0.421605 0.183682 0.253782
H108  H     H_    0.746140 0.433181 0.320686 0.223425
H109  H     H_    0.737438 0.460546 0.203589 0.256907
O6    O     O_3   0.650375 0.627389 0.006200 -0.569018
C121  C     C_3   0.640961 0.598653 0.080685 0.277865
H110  H     H_    0.624667 0.626734 0.125274 0.083867
H111  H     H_    0.707197 0.575817 0.140702 0.087470
C122  C     C_3   0.559918 0.557828 0.017350 -0.869164
H112  H     H_    0.574745 0.528714 0.973078 0.274330
H113  H     H_    0.551517 0.534515 0.074301 0.193595
H114  H     H_    0.492731 0.579683 0.957283 0.247076
O7    O     O_3   0.802371 0.169173 0.052131 -0.669512
C123  C     C_3   0.882200 0.181033 0.159718 0.237373
H115  H     H_    0.877166 0.155511 0.216834 0.184522
H116  H     H_    0.888185 0.223445 0.187188 0.071738
C124  C     C_3   0.972242 0.165109 0.171974 -1.034524
H117  H     H_    0.980833 0.189987 0.116714 0.257244
H118  H     H_    0.034757 0.171845 0.257712 0.224949
H119  H     H_    0.968779 0.121332 0.151007 0.270160
O8    O     O_3   0.830040 0.807580 0.165023 -0.654381
C125  C     C_3   0.865888 0.771454 0.254804 0.225166
H120  H     H_    0.859446 0.727778 0.236384 0.068074
H121  H     H_    0.826582 0.778282 0.290333 0.124089
C126  C     C_3   0.969740 0.784515 0.342279 -0.913529
H122  H     H_    0.977194 0.827104 0.371168 0.281118
H123  H     H_    0.998339 0.756387 0.413006 0.205704
H124  H     H_    0.011233 0.779617 0.308621 0.240462
O9    O     O_3   0.307431 0.671504 0.064598 -0.669243
C127  C     C_3   0.384831 0.685798 0.172138 0.220613
H125  H     H_    0.379273 0.661196 0.229843 0.187913
H126  H     H_    0.387496 0.728649 0.195712 0.072600
C128  C     C_3   0.477459 0.670780 0.189584 -1.005979
H127  H     H_    0.488919 0.696423 0.137534 0.249241
H128  H     H_    0.537747 0.676955 0.276705 0.232698
H129  H     H_    0.475373 0.627332 0.167843 0.267937
O10   O     O_3   0.330534 0.309072 0.161732 -0.654395
C129  C     C_3   0.369451 0.273838 0.253335 0.222525
H130  H     H_    0.357793 0.230031 0.235475 0.065227
H131  H     H_    0.336134 0.283499 0.294910 0.134628
C130  C     C_3   0.475389 0.284382 0.333700 -0.923724
H132  H     H_    0.488273 0.327264 0.362595 0.276263
H133  H     H_    0.505939 0.256768 0.405504 0.210579
H134  H     H_    0.511248 0.276819 0.293947 0.238905
O11   O     O_3   0.104408 0.868700 0.888432 -0.557619
C131  C     C_3   0.026811 0.879411 0.779420 -0.265736
H135  H     H_    0.976284 0.844463 0.742739 0.128571
H136  H     H_    0.051782 0.889864 0.728604 0.128209
H137  H     H_    0.987702 0.914922 0.779329 0.171401
O12   O     O_3   0.110456 0.159413 0.817588 -0.554471
C132  C     C_3   0.057099 0.168151 0.703410 -0.288372
H138  H     H_    0.101816 0.162957 0.673974 0.117531
H139  H     H_    0.022980 0.209019 0.678718 0.138014
H140  H     H_    0.999417 0.137512 0.662141 0.174538
O13   O     O_3   0.607466 0.369951 0.896288 -0.558325
C133  C     C_3   0.528291 0.382371 0.789107 -0.265289
H141  H     H_    0.475388 0.348575 0.753050 0.127446
H142  H     H_    0.550849 0.392143 0.735643 0.129034
H143  H     H_    0.492927 0.418844 0.792746 0.170923
O14   O     O_3   0.610672 0.660050 0.817365 -0.554055
C134  C     C_3   0.557365 0.668761 0.703214 -0.288179
H144  H     H_    0.601993 0.663215 0.673748 0.118914
H145  H     H_    0.523728 0.709754 0.678499 0.137798
H146  H     H_    0.499330 0.638289 0.662120 0.174766
O15   O     O_3   0.697192 0.195419 0.870916 -0.682072
C135  C     C_3   0.755571 0.166654 0.850202 0.336835
H147  H     H_    0.741135 0.122203 0.847662 0.115183
H148  H     H_    0.832975 0.173543 0.912744 0.123342
C136  C     C_3   0.731776 0.184308 0.739890 -1.052431
H149  H     H_    0.752231 0.227700 0.743301 0.260153
H150  H     H_    0.771057 0.158601 0.718758 0.233203
H151  H     H_    0.654760 0.179974 0.674996 0.266866
O16   O     O_3   0.785406 0.827011 0.990438 -0.675456
C137  C     C_3   0.874904 0.853293 0.042139 0.314359
H152  H     H_    0.891292 0.857191 0.981738 0.080023
H153  H     H_    0.935069 0.830156 0.112670 0.108807
C138  C     C_3   0.870638 0.910444 0.078758 -0.877664
H154  H     H_    0.939165 0.931900 0.114524 0.197073
H155  H     H_    0.813032 0.934381 0.008059 0.250196
H156  H     H_    0.856430 0.908099 0.141172 0.285810
O17   O     O_3   0.206052 0.693640 0.880562 -0.681047
C139  C     C_3   0.268939 0.665116 0.866624 0.334545
H157  H     H_    0.256123 0.620549 0.865930 0.117051
H158  H     H_    0.345396 0.673283 0.931862 0.123827
C140  C     C_3   0.249562 0.681268 0.757731 -1.051491
H159  H     H_    0.268492 0.724835 0.759583 0.259922
H160  H     H_    0.292700 0.655660 0.742056 0.235219
H161  H     H_    0.173607 0.675525 0.689992 0.266497
O18   O     O_3   0.283516 0.326131 0.985354 -0.678026
C141  C     C_3   0.372139 0.352982 0.034376 0.314832
H162  H     H_    0.387742 0.355435 0.973143 0.078253
H163  H     H_    0.433302 0.331108 0.106292 0.109626
C142  C     C_3   0.366207 0.410877 0.066611 -0.887475
H164  H     H_    0.430168 0.434366 0.090215 0.190048
H165  H     H_    0.302534 0.431891 0.996883 0.259413
H166  H     H_    0.361392 0.409981 0.136580 0.280298
O19   O     O_3   0.449815 0.085400 0.541737 -0.592697
C143  C     C_3   0.453057 0.143195 0.543202 -0.286896
H167  H     H_    0.478806 0.159867 0.496480 0.131286
H168  H     H_    0.497699 0.159062 0.628221 0.145636
H169  H     H_    0.380186 0.158788 0.503905 0.169648
O20   O     O_3   0.653634 0.923759 0.699839 -0.614917
C144  C     C_3   0.749675 0.907857 0.764092 -0.221986
H170  H     H_    0.793016 0.934301 0.837363 0.140695
H171  H     H_    0.779535 0.908333 0.716309 0.119288
H172  H     H_    0.754215 0.865294 0.792207 0.186058
O21   O     O_3   0.959261 0.588562 0.548075 -0.592717
C145  C     C_3   0.967866 0.646197 0.553537 -0.285643
H173  H     H_    0.995137 0.662177 0.507958 0.131704
H174  H     H_    0.013949 0.660568 0.639604 0.147098
H175  H     H_    0.896572 0.664009 0.515394 0.172643
O22   O     O_3   0.148931 0.421043 0.696429 -0.615896
C146  C     C_3   0.243221 0.402074 0.757512 -0.231365
H176  H     H_    0.290718 0.427916 0.830721 0.142845
H177  H     H_    0.270537 0.400253 0.707186 0.120149
H178  H     H_    0.244599 0.359905 0.785521 0.189200
O23   O     O_3   0.805062 0.904354 0.312657 -0.620567
C147  C     C_3   0.763244 0.891940 0.367475 0.349738
H179  H     H_    0.693659 0.871425 0.310932 0.050074
H180  H     H_    0.751438 0.928932 0.400718 0.129803
C148  C     C_3   0.828138 0.854338 0.464195 -0.948856
H181  H     H_    0.898401 0.873980 0.521101 0.270819
H182  H     H_    0.796743 0.846042 0.508984 0.203201
H183  H     H_    0.837591 0.814995 0.435995 0.241568
O24   O     O_3   0.805520 0.097145 0.295461 -0.651847
C149  C     C_3   0.779147 0.112520 0.364085 0.275948
H184  H     H_    0.801270 0.081321 0.428681 0.143226
H185  H     H_    0.701168 0.118441 0.316140 0.082804
C150  C     C_3   0.828201 0.166020 0.420319 -1.010331
H186  H     H_    0.802237 0.199406 0.359095 0.248492
H187  H     H_    0.813344 0.176766 0.480133 0.226058
H188  H     H_    0.905899 0.161889 0.463989 0.263842
O25   O     O_3   0.304819 0.404421 0.314069 -0.619518
C151  C     C_3   0.261334 0.391860 0.366962 0.345193
H189  H     H_    0.191683 0.371654 0.309107 0.049659
H190  H     H_    0.249210 0.428781 0.400051 0.131433
C152  C     C_3   0.324785 0.353831 0.463472 -0.943285
H191  H     H_    0.395699 0.372716 0.520867 0.272740
H192  H     H_    0.292818 0.346239 0.507851 0.201924
H193  H     H_    0.332898 0.314166 0.434995 0.235819
O26   O     O_3   0.305125 0.597215 0.296476 -0.652025
C153  C     C_3   0.278126 0.612398 0.364575 0.273129
H194  H     H_    0.300075 0.581117 0.429017 0.141591
H195  H     H_    0.200100 0.618250 0.316102 0.084379
C154  C     C_3   0.326799 0.665932 0.421012 -1.012525
H196  H     H_    0.300772 0.699364 0.359862 0.248183
H197  H     H_    0.311682 0.676485 0.480679 0.227137
H198  H     H_    0.404538 0.661975 0.464843 0.263925
O27   O     O_3   0.892996 0.991702 0.507293 -0.657788
C155  C     C_3   0.937679 0.004214 0.618318 -0.339479
H199  H     H_    0.942825 0.049076 0.629749 0.168317
H200  H     H_    0.009175 0.985491 0.672982 0.160543
H201  H     H_    0.893112 0.988236 0.642860 0.170095
O28   O     O_3   0.391505 0.490171 0.508905 -0.655790
C156  C     C_3   0.434726 0.503915 0.619118 -0.342608
H202  H     H_    0.437091 0.548922 0.628218 0.168004
H203  H     H_    0.507278 0.486665 0.675151 0.160145
H204  H     H_    0.390777 0.487214 0.643955 0.169818

loop_
_geom_bond_atom_site_label_1
_geom_bond_atom_site_label_2
_ccdc_geom_bond_type
C148  H183  S    
C116  H98   S    
C55   C59   S    
C156  H202  S    
C15   C109  A    
C68   O10   S    
C77   C101  A    
O8    C125  S    
C2    N2    A    
C42   C58   S    
C128  H128  S    
C55   O13   S    
C46   C62   S    
C115  H96   S    
C123  H115  S    
C149  H185  S    
C111  O25   S    
C86   C88   S    
C120  H107  S    
C29   C33   S    
O20   C144  S    
C62   C70   S    
C118  H103  S    
C35   H33   S    
C152  H193  S    
N29   Ni2   S    
C21   H5    S    
C17   C61   S    
C30   H10   S    
C19   C63   S    
C83   H59   S    
C34   O2    S    
C113  H90   S    
N1    N6    A    
C124  H118  S    
C79   C102  A    
C36   C97   A    
C51   C57   S    
C81   H57   S    
C129  C130  S    
C1    N1    A    
C78   C101  A    
C112  N24   A    
C1    H1    S    
C73   C81   S    
C143  H167  S    
C44   C46   S    
C155  H201  S    
C11   C20   A    
C94   N14   A    
C113  H91   S    
O14   C134  S    
C41   H13   S    
C28   C32   S    
C144  H172  S    
N17   Ni1   S    
C13   C106  A    
C21   C29   S    
N21   Ni5   S    
C131  H135  S    
C32   C34   S    
N15   N16   A    
C24   C32   S    
C84   H56   S    
N2    Ni2   S    
C90   C92   S    
C140  H159  S    
C139  H157  S    
C41   O3    S    
C133  H143  S    
C53   O11   S    
N6    Ni6   S    
C36   N6    A    
C37   H35   S    
C145  H174  S    
C38   H36   S    
C52   C58   S    
C107  N19   A    
C14   C107  A    
C119  H106  S    
C7    C19   A    
C96   C104  A    
C156  H204  S    
C79   H67   S    
N14   Ni1   S    
C146  H176  S    
C53   C71   S    
C6    H82   S    
C109  N21   A    
C127  H125  S    
C114  H94   S    
C22   H6    S    
C155  H199  S    
C11   N31   A    
C89   C101  S    
C123  C124  S    
C135  H147  S    
C50   H26   S    
C45   H21   S    
N25   N30   A    
C96   N16   A    
C125  H121  S    
C14   C88   S    
N4    Ni4   S    
N23   Ni7   S    
C156  H203  S    
C7    N27   A    
N27   Ni8   S    
C5    N25   A    
C122  H113  S    
N12   Ni7   S    
C56   O14   S    
C42   H14   S    
O15   C135  S    
C61   C65   S    
C132  H138  S    
C91   H70   S    
C80   C102  A    
O18   C141  S    
N16   Ni3   S    
C145  H173  S    
N28   N31   A    
C37   C100  A    
C16   C111  A    
C115  H95   S    
C52   H48   S    
C67   O17   S    
C72   H44   S    
C49   H25   S    
C27   C29   S    
O25   C151  S    
C2    H2    S    
C33   O1    S    
O27   C155  S    
C93   C103  A    
C8    N28   A    
C126  H123  S    
C50   H46   S    
C82   C89   S    
C47   H17   S    
C131  H137  S    
C64   C68   S    
C153  H194  S    
C24   C26   S    
C46   H20   S    
C40   C104  S    
C150  H186  S    
C139  C140  S    
C10   N30   A    
C75   H51   S    
O1    C113  S    
C45   C61   S    
C90   C102  S    
C75   O21   S    
C33   C39   S    
C147  H179  S    
C22   C25   S    
C73   H49   S    
C154  H197  S    
C74   C87   S    
C89   C91   S    
C78   N10   A    
C127  C128  S    
C43   C59   S    
C80   N12   A    
N26   Ni5   S    
C143  H169  S    
C59   C100  S    
C49   H45   S    
C84   C90   S    
C135  C136  S    
N31   Ni4   S    
C141  H162  S    
C9    H85   S    
C129  H131  S    
C85   H62   S    
C12   H88   S    
C55   H31   S    
C62   C66   S    
N19   Ni3   S    
C151  H189  S    
C92   H72   S    
C74   H50   S    
C18   C62   S    
C42   C48   S    
N17   N18   A    
C83   H55   S    
C77   H65   S    
C29   H9    S    
C108  N20   A    
C43   O5    S    
N21   N22   A    
C43   C45   S    
C122  H112  S    
C132  H140  S    
C13   C87   S    
N9    N10   A    
C41   C47   S    
C31   C34   S    
C51   C67   S    
N24   Ni8   S    
C133  H141  S    
C115  C116  S    
O28   C156  S    
C140  H160  S    
C66   O8    S    
C72   H38   S    
C130  H133  S    
C142  H166  S    
C106  H78   S    
C148  H182  S    
C21   C25   S    
O2    C114  S    
C22   C30   S    
C67   O9    S    
C48   H24   S    
C153  C154  S    
N15   Ni4   S    
C94   H74   S    
C121  H111  S    
C117  H100  S    
C84   H60   S    
O5    C119  S    
N3    N8    A    
C49   C59   S    
C50   C60   S    
C55   C69   S    
C123  H116  S    
C146  H178  S    
C126  H122  S    
C138  H156  S    
C147  C148  S    
C22   C39   S    
C73   O19   S    
C152  H192  S    
C134  H146  S    
C3    C99   A    
C9    C18   A    
C136  H151  S    
C137  H152  S    
C107  H79   S    
O7    C123  S    
N11   Ni8   S    
C108  H80   S    
C133  H142  S    
C141  C142  S    
C116  H97   S    
C51   H27   S    
C120  H109  S    
O22   C146  S    
C150  H188  S    
C3    N3    A    
O6    C121  S    
C151  C152  S    
O16   C137  S    
C74   O20   S    
C76   C84   S    
C143  H168  S    
C95   H75   S    
C118  H102  S    
N13   N14   A    
C95   C104  A    
C79   N11   A    
C54   O12   S    
C144  H171  S    
C47   C63   S    
C48   C64   S    
C5    C17   A    
C23   C40   S    
C131  H136  S    
C86   H63   S    
C23   C26   S    
C96   H76   S    
C73   C87   S    
O17   C139  S    
N2    N5    A    
C139  H158  S    
C142  H164  S    
C35   C98   A    
N7    Ni7   S    
C81   C89   S    
C14   C108  A    
C116  H99   S    
O11   C131  S    
N25   Ni6   S    
C37   N7    A    
C15   C110  A    
C48   H18   S    
C74   C82   S    
C117  C118  S    
C127  H126  S    
C128  H129  S    
C114  H93   S    
C24   H8    S    
C93   N13   A    
O10   C129  S    
N10   Ni5   S    
C149  H184  S    
N23   N24   A    
O3    C115  S    
N19   N20   A    
C53   C57   S    
C69   H41   S    
C56   C60   S    
O9    C127  S    
N3    Ni3   S    
C105  H77   S    
N1    Ni1   S    
C136  H149  S    
C121  C122  S    
C71   H43   S    
C113  H89   S    
C124  H119  S    
C47   H23   S    
C111  N23   A    
N5    Ni5   S    
C38   N8    A    
C13   C105  A    
C54   H30   S    
C94   C103  A    
C45   H19   S    
C91   H69   S    
C43   H15   S    
N13   Ni2   S    
C110  N22   A    
C138  H154  S    
C16   C112  A    
C5    H81   S    
C82   H54   S    
C78   H66   S    
C26   C28   S    
C4    H4    S    
C28   C31   S    
C38   C99   A    
C112  O26   S    
O24   C149  S    
C39   C103  S    
C135  H148  S    
C145  H175  S    
C153  H195  S    
C41   C57   S    
C3    H3    S    
C23   H7    S    
C75   C83   S    
C71   H37   S    
C44   C60   S    
C57   C98   S    
C6    N26   A    
C12   C19   A    
C155  H200  S    
C52   H28   S    
C8    H84   S    
N4    N7    A    
C53   H29   S    
O13   C133  S    
C11   H87   S    
C56   H32   S    
C44   O6    S    
C119  H105  S    
C147  H180  S    
O26   C153  S    
C23   C31   S    
C93   H73   S    
C16   C28   S    
C118  H104  S    
C130  H132  S    
C82   H58   S    
C95   N15   A    
C32   H12   S    
O19   C143  S    
C149  C150  S    
C134  H144  S    
C60   C99   S    
N8    Ni8   S    
C141  H163  S    
C85   C91   S    
C148  H181  S    
C150  H187  S    
C8    C20   A    
C49   C65   S    
C34   C40   S    
C80   H68   S    
C125  H120  S    
C151  H190  S    
C4    N4    A    
C46   H22   S    
C10   C17   A    
N30   Ni1   S    
C9    N29   A    
C122  H114  S    
C15   C27   S    
C35   N5    A    
C124  H117  S    
C132  H139  S    
C85   H61   S    
C152  H191  S    
C137  C138  S    
C76   C88   S    
C52   C68   S    
C77   N9    A    
N27   N32   A    
C128  H127  S    
C27   C30   S    
C142  H165  S    
C58   C97   S    
C25   O27   S    
C10   H86   S    
C12   N32   A    
C126  H124  S    
C85   C87   S    
C6    C18   A    
C63   C67   S    
C69   H39   S    
C70   H40   S    
N9    Ni6   S    
N18   Ni2   S    
N28   Ni7   S    
C117  H101  S    
C1    C97   A    
N22   Ni6   S    
N32   Ni3   S    
C20   C64   S    
C146  H177  S    
N11   N12   A    
C42   O4    S    
C65   O15   S    
C138  H155  S    
C76   O22   S    
C154  H196  S    
C21   C39   S    
C119  C120  S    
C26   O28   S    
C154  H198  S    
C65   O7    S    
C121  H110  S    
C134  H145  S    
O21   C145  S    
C36   H34   S    
C110  O24   S    
C136  H150  S    
C137  H153  S    
C68   O18   S    
C56   C70   S    
C4    C100  A    
C76   H52   S    
O4    C117  S    
C66   O16   S    
C129  H130  S    
C54   C58   S    
C61   C69   S    
C120  H108  S    
C83   C90   S    
C44   H16   S    
C30   C33   S    
C106  N18   A    
C70   H42   S    
N20   Ni4   S    
C125  C126  S    
C63   C71   S    
C92   H71   S    
C109  O23   S    
C114  H92   S    
C25   C27   S    
N26   N29   A    
C50   C66   S    
C105  N17   A    
O12   C132  S    
C31   H11   S    
C86   C92   S    
C144  H170  S    
C51   H47   S    
C24   C40   S    
C86   H64   S    
C64   C72   S    
C75   C88   S    
C140  H161  S    
C54   C72   S    
C2    C98   A    
C130  H134  S    
C81   H53   S    
C7    H83   S    
O23   C147  S    
