data_mof_unit_65302.cif
_audit_creation_date              2012-12-10T18:50:17-0500
_audit_creation_method            fapswitch 2.2
_symmetry_space_group_name_H-M    P1
_symmetry_Int_Tables_number       1
_space_group_crystal_system       triclinic
_cell_length_a                    15.86
_cell_length_b                    19.441161
_cell_length_c                    18.162097
_cell_angle_alpha                 90.509526
_cell_angle_beta                  91.127209
_cell_angle_gamma                 91.860934
_cell_volume                      5595.75188556

loop_
_atom_site_label
_atom_site_type_symbol
_atom_type_description
_atom_site_fract_x
_atom_site_fract_y
_atom_site_fract_z
_atom_type_partial_charge
C1    C     C_R   0.503002 0.367527 0.500062 0.822483
C2    C     C_R   0.496997 0.632473 0.499938 0.822480
C3    C     C_R   0.465905 0.816399 0.438894 -0.157805
C4    C     C_R   0.534099 0.183603 0.561106 -0.157808
C5    C     C_R   0.496744 0.852641 0.501052 0.085847
C6    C     C_R   0.503256 0.147360 0.498951 0.085845
C7    C     C_R   0.522355 0.816971 0.563613 -0.106142
C8    C     C_R   0.477638 0.183028 0.436392 -0.106140
C9    C     C_R   0.520404 0.745375 0.562968 -0.185177
C10   C     C_R   0.479589 0.254624 0.437036 -0.185179
C11   C     C_R   0.493134 0.708160 0.499703 -0.094320
C12   C     C_R   0.506865 0.291840 0.500298 -0.094319
C13   C     C_R   0.576585 0.965860 0.506479 0.181683
C14   C     C_R   0.423415 0.034140 0.493527 0.181679
C15   C     C_R   0.576452 0.037534 0.505750 -0.218826
C16   C     C_R   0.423548 0.962466 0.494257 -0.218825
C17   C     C_R   0.500481 0.071982 0.499010 0.002279
C18   C     C_R   0.499519 0.928018 0.500996 0.002277
C19   C     C_R   0.443563 0.457574 0.718470 0.078994
C20   C     C_R   0.556436 0.542427 0.281530 0.078996
C21   C     C_R   0.440673 0.455400 0.795910 -0.286911
C22   C     C_R   0.559325 0.544601 0.204090 -0.286907
C23   C     C_R   0.339641 0.500059 0.499390 0.841461
C24   C     C_R   0.660358 0.499941 0.500610 0.841465
C25   C     C_R   0.496125 0.497238 0.839244 0.003794
C26   C     C_R   0.503873 0.502764 0.160756 0.003793
C27   C     C_R   0.555007 0.540113 0.803415 0.064920
C28   C     C_R   0.444992 0.459889 0.196585 0.064920
C29   C     C_R   0.555956 0.541212 0.725262 0.316234
C30   C     C_R   0.444044 0.458789 0.274738 0.316234
C31   C     C_R   0.459448 0.551377 0.960885 -0.127308
C32   C     C_R   0.540550 0.448626 0.039115 -0.127309
C33   C     C_R   0.465713 0.554965 0.038266 -0.122766
C34   C     C_R   0.534284 0.445038 0.961733 -0.122768
C35   C     C_R   0.506368 0.503648 0.078312 0.129005
C36   C     C_R   0.493629 0.496355 0.921688 0.129005
C37   C     C_3   0.970226 0.436701 0.517462 -0.202282
C38   C     C_3   0.029774 0.563299 0.482538 -0.202283
C39   C     C_3   0.024257 0.454463 0.449879 0.218194
C40   C     C_3   0.975742 0.545537 0.550121 0.218194
C41   C     C_1   0.249947 0.500262 0.498237 -0.123160
C42   C     C_1   0.750053 0.499738 0.501763 -0.123158
C43   C     C_3   0.030098 0.482771 0.566904 -0.207162
C44   C     C_3   0.969902 0.517228 0.433096 -0.207162
C45   C     C_3   0.082760 0.500234 0.498995 0.084070
C46   C     C_3   0.917239 0.499766 0.501005 0.084070
C47   C     C_1   0.174403 0.500360 0.498231 0.014918
C48   C     C_1   0.825597 0.499640 0.501769 0.014919
C49   C     C_R   0.463417 0.744601 0.437521 0.153407
C50   C     C_R   0.536588 0.255401 0.562478 0.153408
Cu1   Cu    Cu3+1 0.499980 0.500000 0.573360 1.000625
Cu2   Cu    Cu3+1 0.500020 0.500000 0.426640 1.000625
H1    H     H_    0.400253 0.424889 0.686131 0.150931
H2    H     H_    0.599746 0.575112 0.313869 0.150932
H3    H     H_    0.395012 0.421368 0.821881 0.173314
H4    H     H_    0.604986 0.578635 0.178119 0.173314
H5    H     H_    0.428969 0.592167 0.931330 0.153521
H6    H     H_    0.571028 0.407835 0.068670 0.153521
H7    H     H_    0.437637 0.597265 0.067032 0.158193
H8    H     H_    0.562360 0.402737 0.932967 0.158192
H9    H     H_    0.944705 0.384719 0.531523 0.176089
H10   H     H_    0.055295 0.615281 0.468477 0.176088
H11   H     H_    0.944092 0.531046 0.378120 0.172721
H12   H     H_    0.055908 0.468954 0.621880 0.172721
H13   H     H_    0.544260 0.844650 0.612750 0.165742
H14   H     H_    0.455729 0.155348 0.387258 0.165745
H15   H     H_    0.541212 0.719289 0.611978 0.189145
H16   H     H_    0.458775 0.280709 0.388027 0.189147
H17   H     H_    0.635871 0.066589 0.509581 0.178836
H18   H     H_    0.364129 0.933411 0.490425 0.178837
N1    N     N_R   0.499990 0.500020 0.683620 -0.203245
N2    N     N_R   0.500010 0.499980 0.316380 -0.203246
O1    O     O_R   0.499960 0.400180 0.561980 -0.561531
O2    O     O_R   0.500040 0.599820 0.438020 -0.561530
O3    O     O_R   0.500000 0.400190 0.438070 -0.575204
O4    O     O_R   0.500000 0.599810 0.561930 -0.575204
O5    O     O_R   0.379060 0.499990 0.561940 -0.594973
O6    O     O_R   0.620940 0.500010 0.438060 -0.594972
O7    O     O_R   0.379100 0.500000 0.438040 -0.541173
O8    O     O_R   0.620900 0.500000 0.561960 -0.541172
I1    I     I_    0.063822 0.381877 0.369756 -0.256302
I2    I     I_    0.936178 0.618122 0.630244 -0.256301
I3    I     I_    0.643970 0.600896 0.869360 -0.270497
I4    I     I_    0.356025 0.399108 0.130640 -0.270495
I5    I     I_    0.647105 0.609065 0.676073 -0.235352
I6    I     I_    0.352895 0.390935 0.323927 -0.235358
I7    I     I_    0.408067 0.698198 0.340638 -0.320633
I8    I     I_    0.591951 0.301807 0.659352 -0.320628
H19   H     H_    0.443818 0.844228 0.391209 0.167833
H20   H     H_    0.556192 0.155775 0.608789 0.167833
I9    I     I_    0.695306 0.918513 0.511610 -0.293470
I10   I     I_    0.304694 0.081488 0.488397 -0.293476

loop_
_geom_bond_atom_site_label_1
_geom_bond_atom_site_label_2
_ccdc_geom_bond_type
C20   H2    S    
C8    H14   S    
C28   I4    S    
C24   C42   S    
C49   I7    S    
C19   N1    A    
C32   H6    S    
Cu2   O3    S    
C9    H15   S    
C3    C49   A    
C40   C46   S    
C13   C18   A    
Cu2   N2    S    
C19   C21   A    
Cu2   O2    S    
C27   C29   A    
C7    C9    A    
Cu1   O8    S    
C38   C45   S    
C24   O8    A    
C40   C43   S    
C31   C33   A    
C30   I6    S    
Cu2   O7    S    
C29   I5    S    
C2    O2    A    
C50   I8    S    
C39   C45   S    
C19   H1    S    
C33   H7    S    
C13   I9    S    
C34   H8    S    
C14   C17   A    
C1    C12   S    
Cu1   N1    S    
Cu2   O6    S    
C2    C11   S    
C44   C46   S    
C43   H12   S    
C4    H20   S    
C45   C47   S    
C44   H11   S    
C15   H17   S    
C46   C48   S    
Cu1   Cu2   S    
C1    O3    A    
C32   C35   A    
C40   I2    S    
C16   H18   S    
Cu1   O4    S    
C39   I1    S    
C4    C6    A    
C5    C7    A    
C6    C8    A    
C5    C18   S    
C38   H10   S    
C4    C50   A    
C32   C34   A    
C37   C43   S    
Cu1   O5    S    
C38   C44   S    
C11   C49   A    
C7    H13   S    
C9    C11   A    
C37   H9    S    
C41   C47   T    
C16   C18   A    
C42   C48   T    
C23   O5    A    
C43   C45   S    
C14   I10   S    
C10   C12   A    
C24   O6    A    
C20   C22   A    
C13   C15   A    
C14   C16   A    
C2    O4    A    
C21   H3    S    
C15   C17   A    
C6    C17   S    
C21   C25   A    
Cu1   O1    S    
C30   N2    A    
C3    C5    A    
C12   C50   A    
C39   C44   S    
C10   H16   S    
C25   C27   A    
C26   C28   A    
C23   C41   S    
C22   H4    S    
C3    H19   S    
C1    O1    A    
C31   H5    S    
C27   I3    S    
C37   C39   S    
C38   C40   S    
C28   C30   A    
C33   C35   A    
C34   C36   A    
C25   C36   S    
C26   C35   S    
C8    C10   A    
C22   C26   A    
C31   C36   A    
C20   N2    A    
C23   O7    A    
C37   C46   S    
C29   N1    A    
