data_mof_unit_8370.cif
_audit_creation_date              2012-10-26T20:14:31-0400
_audit_creation_method            fapswitch 2.2
_symmetry_space_group_name_H-M    P1
_symmetry_Int_Tables_number       1
_space_group_crystal_system       triclinic
_cell_length_a                    7.760146
_cell_length_b                    9.094552
_cell_length_c                    17.461654
_cell_angle_alpha                 90.009567
_cell_angle_beta                  87.75433
_cell_angle_gamma                 90.001767
_cell_volume                      1231.4106599

loop_
_atom_site_label
_atom_site_type_symbol
_atom_type_description
_atom_site_fract_x
_atom_site_fract_y
_atom_site_fract_z
_atom_type_partial_charge
C1    C     C_R   0.500001 0.780053 0.499990 0.540204
C2    C     C_R   0.367940 0.530458 0.223616 -0.005691
C3    C     C_R   0.606493 0.573776 0.855547 -0.097452
C4    C     C_R   0.379692 0.521519 0.143902 -0.091495
C5    C     C_R   0.447080 0.551708 0.893516 0.029173
C6    C     C_R   0.538426 0.501237 0.104557 0.032286
C7    C     C_R   0.301085 0.522027 0.852279 -0.126481
C8    C     C_R   0.687349 0.481017 0.145636 -0.127618
C9    C     C_R   0.315662 0.507050 0.773272 -0.150161
C10   C     C_R   0.678357 0.483280 0.225246 -0.151118
C11   C     C_2   0.431710 0.559792 0.976823 -0.139258
C12   C     C_R   0.499998 0.219927 0.500012 0.561316
C13   C     C_2   0.551518 0.499227 0.020441 -0.135908
C14   C     C_3   0.802746 0.593690 0.740377 -0.242671
C15   C     C_3   0.809618 0.746171 0.702642 -0.286491
C16   C     C_3   0.988946 0.778510 0.667635 -0.423911
C17   C     C_3   0.191007 0.568469 0.259228 -0.239515
C18   C     C_3   0.185641 0.727105 0.289478 -0.286450
C19   C     C_3   0.008224 0.764770 0.324977 -0.424463
C20   C     C_1   0.500004 0.934614 0.500012 -0.067500
C21   C     C_1   0.500000 0.065317 0.500018 -0.060603
C22   C     C_R   0.481160 0.506911 0.650176 0.536649
C23   C     C_R   0.518490 0.503778 0.349675 0.536153
C24   C     C_R   0.476100 0.524339 0.733974 0.020275
C25   C     C_R   0.520454 0.507579 0.265405 0.019378
C26   C     C_R   0.624609 0.561560 0.775961 -0.007523
Cu1   Cu    Cu3+1 0.330920 0.500000 0.500000 0.973456
Cu2   Cu    Cu3+1 0.669080 0.500000 0.500000 0.973403
H1    H     H_    0.176542 0.506740 0.881468 0.098962
H2    H     H_    0.024714 0.695448 0.623281 0.190975
H3    H     H_    0.989809 0.888851 0.640410 0.148286
H4    H     H_    0.714167 0.754479 0.657177 0.190754
H5    H     H_    0.776997 0.831371 0.746530 0.153765
H6    H     H_    0.900517 0.592486 0.785319 0.113729
H7    H     H_    0.845901 0.505364 0.700316 0.176319
H8    H     H_    0.907885 0.754097 0.281652 0.148614
H9    H     H_    0.976164 0.690463 0.373859 0.191554
H10   H     H_    0.008241 0.879797 0.346303 0.146049
H11   H     H_    0.283853 0.744359 0.333099 0.188191
H12   H     H_    0.811026 0.463509 0.116055 0.097096
H13   H     H_    0.215050 0.804129 0.241274 0.153413
H14   H     H_    0.090675 0.559650 0.215682 0.112010
H15   H     H_    0.149246 0.487421 0.303563 0.178277
H16   H     H_    0.262583 0.530269 0.112819 0.091649
H17   H     H_    0.716889 0.603681 0.888390 0.098920
H18   H     H_    0.795653 0.465059 0.255481 0.123822
H19   H     H_    0.200560 0.480647 0.742935 0.125521
H20   H     H_    0.664275 0.446920 0.993421 0.116176
H21   H     H_    0.317622 0.613269 0.001239 0.112772
H22   H     H_    0.086216 0.777145 0.712651 0.148181
N1    N     N_1   0.923170 0.500000 0.500010 -0.106935
N2    N     N_1   0.076830 0.500000 0.499990 -0.107560
O1    O     O_R   0.357240 0.711600 0.500000 -0.505585
O2    O     O_R   0.642760 0.288400 0.500000 -0.489731
O3    O     O_R   0.642760 0.711600 0.500000 -0.507141
O4    O     O_R   0.357240 0.288400 0.500000 -0.489897
O5    O     O_R   0.340660 0.500000 0.613590 -0.513749
O6    O     O_R   0.659340 0.500000 0.386410 -0.513278
O7    O     O_R   0.626230 0.500000 0.613600 -0.514452
O8    O     O_R   0.373770 0.500000 0.386400 -0.514691

loop_
_geom_bond_atom_site_label_1
_geom_bond_atom_site_label_2
_ccdc_geom_bond_type
C14   H6    S    
C13   H20   S    
C2    C4    A    
C18   H11   S    
Cu1   O1    S    
C9    C24   A    
C10   H18   S    
C7    H1    S    
C19   H10   S    
Cu2   O6    S    
C23   O6    A    
C19   H9    S    
Cu1   O8    S    
C20   C21   T    
C22   O5    A    
C17   H15   S    
C17   C18   S    
C1    O3    A    
C15   H4    S    
C14   C26   S    
C2    C17   S    
C11   C13   D    
C12   O4    A    
C4    H16   S    
C11   H21   S    
C6    C8    A    
C10   C25   A    
C4    C6    A    
Cu2   O3    S    
C24   C26   A    
C9    H19   S    
C2    C25   A    
C5    C7    A    
C19   H8    S    
C23   C25   S    
C5    C11   S    
C17   H14   S    
C23   O8    A    
C16   H22   S    
Cu2   N1    S    
C22   C24   S    
Cu2   O7    S    
C16   H2    S    
N1    N2    T    
C22   O7    A    
C14   H7    S    
Cu1   N2    S    
C8    C10   A    
C18   C19   S    
Cu1   O5    S    
C18   H13   S    
Cu1   Cu2   S    
C7    C9    A    
Cu2   O2    S    
Cu1   O4    S    
C1    C20   S    
C1    O1    A    
C8    H12   S    
C3    C5    A    
C14   C15   S    
C16   H3    S    
C12   C21   S    
C3    H17   S    
C3    C26   A    
C12   O2    A    
C15   C16   S    
C15   H5    S    
C6    C13   S    
