data_mof_unit_17753.cif
_audit_creation_date              2013-03-05T15:44:35-0500
_audit_creation_method            fapswitch 2.2
_symmetry_space_group_name_H-M    P1
_symmetry_Int_Tables_number       1
_space_group_crystal_system       triclinic
_cell_length_a                    19.233965
_cell_length_b                    10.950193
_cell_length_c                    18.868764
_cell_angle_alpha                 90.080677
_cell_angle_beta                  90.592427
_cell_angle_gamma                 90.190308
_cell_volume                      3973.81810738

loop_
_atom_site_label
_atom_site_type_symbol
_atom_site_description
_atom_site_fract_x
_atom_site_fract_y
_atom_site_fract_z
_atom_type_partial_charge
O1    O     O_R   0.787540 0.042690 0.170470 -0.536961
O2    O     O_R   0.212460 0.042690 0.829530 -0.522322
O3    O     O_R   0.287540 0.542690 0.170470 -0.544379
O4    O     O_R   0.712460 0.542690 0.829530 -0.520578
O5    O     O_R   0.765660 0.292160 0.175050 -0.512108
O6    O     O_R   0.234340 0.292160 0.824950 -0.516642
O7    O     O_R   0.265660 0.792160 0.175050 -0.479604
O8    O     O_R   0.734340 0.792160 0.824950 -0.520496
C1    C     C_R   0.729039 0.375660 0.145738 0.622522
C2    C     C_R   0.284961 0.341449 0.861813 0.553127
C3    C     C_R   0.213774 0.836370 0.138221 0.563532
C4    C     C_R   0.784446 0.842491 0.861794 0.549620
O9    O     O_R   0.670190 0.408980 0.168550 -0.460925
O10   O     O_R   0.329810 0.408980 0.831450 -0.422873
O11   O     O_R   0.170190 0.908980 0.168550 -0.426936
O12   O     O_R   0.829810 0.908980 0.831450 -0.424978
O13   O     O_R   0.556580 0.251450 0.175160 -0.531989
O14   O     O_R   0.443420 0.251450 0.824840 -0.519557
O15   O     O_R   0.056580 0.751450 0.175160 -0.545681
O16   O     O_R   0.943420 0.751450 0.824840 -0.517574
C5    C     C_R   0.532441 0.154339 0.145832 0.563008
C6    C     C_R   0.469888 0.154777 0.852290 0.547320
C7    C     C_R   0.033063 0.654286 0.145465 0.563542
C8    C     C_R   0.970153 0.654639 0.852045 0.554759
O17   O     O_R   0.545920 0.049510 0.170320 -0.450371
O18   O     O_R   0.454080 0.049510 0.829680 -0.461885
O19   O     O_R   0.045920 0.549510 0.170320 -0.448880
O20   O     O_R   0.954080 0.549510 0.829680 -0.462639
O21   O     O_R   0.681390 0.957840 0.176710 -0.450987
O22   O     O_R   0.318610 0.957840 0.823290 -0.468990
O23   O     O_R   0.181390 0.457840 0.176710 -0.452437
O24   O     O_R   0.818610 0.457840 0.823290 -0.468855
C9    C     C_R   0.741140 0.969478 0.148045 0.589424
C10   C     C_R   0.258656 0.968798 0.851746 0.599695
C11   C     C_R   0.241256 0.469127 0.148166 0.579794
C12   C     C_R   0.759484 0.471310 0.852839 0.607106
O25   O     O_R   0.787500 0.044280 0.330990 -0.476265
O26   O     O_R   0.212500 0.044280 0.669010 -0.473858
O27   O     O_R   0.287500 0.544280 0.330990 -0.477220
O28   O     O_R   0.712500 0.544280 0.669010 -0.474997
O29   O     O_R   0.765610 0.293630 0.323860 -0.429066
O30   O     O_R   0.234390 0.293630 0.676140 -0.447474
O31   O     O_R   0.265610 0.793630 0.323860 -0.424069
O32   O     O_R   0.734390 0.793630 0.676140 -0.447308
C13   C     C_R   0.731207 0.377816 0.352372 0.564955
C14   C     C_R   0.269232 0.380553 0.648282 0.566013
C15   C     C_R   0.231209 0.877822 0.352368 0.575210
C16   C     C_R   0.769234 0.880548 0.648280 0.564075
O33   O     O_R   0.670140 0.410570 0.329080 -0.537404
O34   O     O_R   0.329860 0.410570 0.670920 -0.547418
O35   O     O_R   0.170140 0.910570 0.329080 -0.533007
O36   O     O_R   0.829860 0.910570 0.670920 -0.547954
O37   O     O_R   0.556540 0.252920 0.323970 -0.473035
O38   O     O_R   0.443460 0.252920 0.676030 -0.491538
O39   O     O_R   0.056540 0.752920 0.323970 -0.472482
O40   O     O_R   0.943460 0.752920 0.676030 -0.491077
C17   C     C_R   0.530679 0.158710 0.352311 0.591109
C18   C     C_R   0.465139 0.155600 0.644400 0.595790
C19   C     C_R   0.030678 0.658711 0.352310 0.594277
C20   C     C_R   0.965141 0.655600 0.644401 0.597859
O41   O     O_R   0.545870 0.051100 0.330840 -0.459023
O42   O     O_R   0.454130 0.051100 0.669160 -0.447498
O43   O     O_R   0.045870 0.551100 0.330840 -0.457367
O44   O     O_R   0.954130 0.551100 0.669160 -0.447381
O45   O     O_R   0.681340 0.959300 0.325510 -0.502110
O46   O     O_R   0.318660 0.959300 0.674490 -0.458796
O47   O     O_R   0.181340 0.459300 0.325510 -0.500574
O48   O     O_R   0.818660 0.459300 0.674490 -0.458952
C21   C     C_R   0.740768 0.972249 0.355290 0.555208
C22   C     C_R   0.259213 0.975658 0.644076 0.568996
C23   C     C_R   0.240766 0.472254 0.355293 0.555152
C24   C     C_R   0.759216 0.475666 0.644074 0.566553
Cr1   Cr    Cr6+3 0.772000 0.169640 0.250110 1.113237
Cr2   Cr    Cr6+3 0.228000 0.169640 0.749890 1.094132
Cr3   Cr    Cr6+3 0.272000 0.669640 0.250110 1.114958
Cr4   Cr    Cr6+3 0.728000 0.669640 0.749890 1.092236
Cr5   Cr    Cr6+3 0.614960 0.323350 0.249260 1.077869
Cr6   Cr    Cr6+3 0.385040 0.323350 0.750740 1.073664
Cr7   Cr    Cr6+3 0.114960 0.823350 0.249260 1.080542
Cr8   Cr    Cr6+3 0.885040 0.823350 0.750740 1.073821
Cr9   Cr    Cr6+3 0.616670 0.010620 0.250840 1.139185
Cr10  Cr    Cr6+3 0.383330 0.010620 0.749160 1.145123
Cr11  Cr    Cr6+3 0.116670 0.510620 0.250840 1.134820
Cr12  Cr    Cr6+3 0.883330 0.510620 0.749160 1.144448
O49   O     O_3   0.667880 0.167870 0.250070 -0.317004
O50   O     O_3   0.332120 0.167870 0.749930 -0.327986
O51   O     O_3   0.167880 0.667870 0.250070 -0.332955
O52   O     O_3   0.832120 0.667870 0.749930 -0.328133
C25   C     C_R   0.502405 0.158870 0.922973 -0.001126
C26   C     C_R   0.507122 0.158491 0.071916 -0.002615
C27   C     C_R   0.003719 0.658213 0.922200 -0.001568
C28   C     C_R   0.009330 0.658313 0.071063 0.002959
C29   C     C_R   0.510678 0.270046 0.959843 -0.019397
C30   C     C_R   0.504687 0.270987 0.034417 -0.033863
C31   C     C_R   0.012728 0.769385 0.958805 -0.028927
C32   C     C_R   0.007066 0.770753 0.033392 -0.028916
C33   C     C_R   0.506255 0.046731 0.033378 0.269720
C34   C     C_R   0.507303 0.047558 0.960400 0.274407
C35   C     C_R   0.008648 0.546379 0.032678 0.264022
C36   C     C_R   0.008741 0.546844 0.959685 0.267101
C37   C     C_R   0.527467 0.379666 0.924619 -0.024317
C38   C     C_R   0.498617 0.385231 0.068794 -0.066127
C39   C     C_R   0.029081 0.878818 0.923167 -0.033995
C40   C     C_R   0.000942 0.885299 0.067460 -0.058768
C41   C     C_R   0.034066 0.988725 0.960280 -0.035274
C42   C     C_R   0.015128 0.993007 0.031168 -0.049058
C43   C     C_R   0.532593 0.489245 0.962110 -0.033563
C44   C     C_R   0.513247 0.493141 0.032894 -0.049719
H1    H     H_    0.538883 0.380696 0.868611 0.175375
H2    H     H_    0.482413 0.392594 0.123296 0.155285
H3    H     H_    0.040121 0.879465 0.867077 0.175921
H4    H     H_    0.984682 0.893278 0.121895 0.159411
H5    H     H_    0.047491 0.072051 0.932720 0.156450
H6    H     H_    0.011775 0.079793 0.058316 0.165364
H7    H     H_    0.546431 0.572688 0.934872 0.159626
H8    H     H_    0.510051 0.579725 0.060299 0.167462
C45   C     C_R   0.719741 0.822960 0.047191 0.233353
C46   C     C_R   0.206469 0.827285 0.940951 0.237683
C47   C     C_R   0.220789 0.321208 0.047537 0.229100
C48   C     C_R   0.711071 0.343357 0.950505 0.229800
C49   C     C_R   0.729285 0.799892 0.975151 -0.180937
C50   C     C_R   0.197473 0.799775 0.012615 -0.162819
C51   C     C_R   0.230721 0.297967 0.975529 -0.183797
C52   C     C_R   0.705960 0.325551 0.023433 -0.140740
H9    H     H_    0.707189 0.717937 0.951758 0.154080
H10   H     H_    0.164463 0.723544 0.027200 0.114656
H11   H     H_    0.208847 0.215877 0.952076 0.154390
H12   H     H_    0.672940 0.252788 0.043055 0.134635
C53   C     C_R   0.769220 0.879211 0.933545 -0.027903
C54   C     C_R   0.229866 0.869673 0.065879 -0.010802
C55   C     C_R   0.270476 0.377574 0.933890 -0.027654
C56   C     C_R   0.741985 0.400638 0.071854 -0.001898
C57   C     C_R   0.798683 0.986242 0.963468 0.237498
C58   C     C_R   0.273857 0.968952 0.048339 0.207178
C59   C     C_R   0.300113 0.484582 0.964000 0.232573
C60   C     C_R   0.785494 0.495411 0.048236 0.178442
C61   C     C_R   0.787762 0.009848 0.033395 -0.140434
C62   C     C_R   0.284204 0.993202 0.976531 -0.157983
C63   C     C_R   0.288850 0.508012 0.033874 -0.155294
C64   C     C_R   0.792110 0.510751 0.975026 -0.162516
H13   H     H_    0.809254 0.094565 0.054119 0.158933
H14   H     H_    0.317552 0.068505 0.961185 0.133029
H15   H     H_    0.310340 0.592652 0.054684 0.161853
H16   H     H_    0.825226 0.582976 0.955013 0.134851
C65   C     C_R   0.750690 0.928598 0.076222 0.004683
C66   C     C_R   0.250325 0.925319 0.923531 0.024046
C67   C     C_R   0.251327 0.427243 0.076550 -0.006097
C68   C     C_R   0.754606 0.437530 0.926691 0.019890
C69   C     C_R   0.472182 0.065953 0.452179 0.128768
C70   C     C_R   0.473415 0.053967 0.525305 0.116184
C71   C     C_R   0.972174 0.565960 0.452177 0.128541
C72   C     C_R   0.973409 0.553970 0.525303 0.115965
C73   C     C_R   0.485725 0.158458 0.569144 -0.051235
C74   C     C_R   0.496915 0.172441 0.421297 -0.032724
C75   C     C_R   0.985725 0.658458 0.569144 -0.050742
C76   C     C_R   0.996912 0.672446 0.421296 -0.032742
C77   C     C_R   0.503652 0.270220 0.537501 0.198848
C78   C     C_R   0.508015 0.278302 0.462949 0.210991
C79   C     C_R   0.003656 0.770219 0.537502 0.199163
C80   C     C_R   0.008015 0.778305 0.462950 0.210621
C81   C     C_R   0.802568 0.980909 0.468330 -0.125813
C82   C     C_R   0.237323 0.044877 0.522797 -0.132360
C83   C     C_R   0.302558 0.480935 0.468338 -0.126296
C84   C     C_R   0.737328 0.544883 0.522794 -0.131947
H17   H     H_    0.847588 0.017775 0.442216 0.226717
H18   H     H_    0.227617 0.134512 0.543441 0.176067
H19   H     H_    0.347578 0.517799 0.442225 0.226598
H20   H     H_    0.727622 0.634517 0.543438 0.176349
C85   C     C_R   0.798035 0.990697 0.540873 -0.185949
C86   C     C_R   0.235339 0.026590 0.450145 -0.181303
C87   C     C_R   0.298022 0.490727 0.540881 -0.185733
C88   C     C_R   0.735343 0.526593 0.450142 -0.181216
H21   H     H_    0.837246 0.042015 0.569318 0.169888
H22   H     H_    0.215118 0.097618 0.415818 0.148585
H23   H     H_    0.337231 0.542045 0.569327 0.170022
H24   H     H_    0.715120 0.597618 0.415815 0.147889
C89   C     C_R   0.748587 0.923465 0.577455 -0.000868
C90   C     C_R   0.257403 0.915312 0.422540 0.032109
C91   C     C_R   0.248578 0.423482 0.577462 -0.000152
C92   C     C_R   0.757405 0.415313 0.422540 0.034436
C93   C     C_R   0.692401 0.870758 0.539475 0.172022
C94   C     C_R   0.290889 0.829696 0.469154 0.201467
C95   C     C_R   0.192394 0.370771 0.539481 0.171974
C96   C     C_R   0.790893 0.329699 0.469154 0.202949
C97   C     C_R   0.691523 0.877626 0.465067 -0.131905
C98   C     C_R   0.277036 0.839051 0.541636 -0.088446
C99   C     C_R   0.191516 0.377639 0.465072 -0.131821
C100  C     C_R   0.777042 0.339058 0.541635 -0.089418
H25   H     H_    0.646855 0.842945 0.435853 0.188386
H26   H     H_    0.295223 0.769466 0.578094 0.170398
H27   H     H_    0.146850 0.342953 0.435858 0.188563
H28   H     H_    0.795229 0.269474 0.578094 0.169725
C101  C     C_R   0.747413 0.932712 0.429170 -0.030082
C102  C     C_R   0.252875 0.948400 0.568875 0.011935
C103  C     C_R   0.247406 0.432729 0.429176 -0.030343
C104  C     C_R   0.752879 0.448408 0.568873 0.011613
O53   O     O_3   0.515232 0.933915 0.065506 -0.514251
C105  C     C_3   0.449639 0.883459 0.080627 -0.015947
H29   H     H_    0.457045 0.787997 0.098675 0.141005
H30   H     H_    0.415082 0.880406 0.032960 0.155723
H31   H     H_    0.424980 0.934106 0.124634 0.181666
O54   O     O_3   0.507514 0.934933 0.926627 -0.520947
C106  C     C_3   0.574933 0.911983 0.901620 -0.005770
H32   H     H_    0.614328 0.922393 0.944634 0.156722
H33   H     H_    0.587613 0.972690 0.856342 0.174699
H34   H     H_    0.577245 0.816256 0.882494 0.143294
O55   O     O_3   0.018200 0.433763 0.064926 -0.516045
C107  C     C_3   0.952920 0.380772 0.078748 -0.020367
H35   H     H_    0.918833 0.377606 0.030745 0.155609
H36   H     H_    0.927184 0.429441 0.122775 0.177471
H37   H     H_    0.961137 0.285220 0.096208 0.140337
O56   O     O_3   0.006493 0.433880 0.926272 -0.524216
C108  C     C_3   0.073205 0.405586 0.901209 -0.004965
H38   H     H_    0.113697 0.418667 0.942985 0.153647
H39   H     H_    0.085453 0.460570 0.853470 0.182391
H40   H     H_    0.073974 0.307951 0.885495 0.141175
N1    N     N_R   0.636801 0.810940 0.575842 0.108724
O57   O     O_R   0.611265 0.708476 0.552030 -0.341512
O58   O     O_R   0.609843 0.860878 0.631853 -0.282655
N2    N     N_R   0.347523 0.749907 0.448738 0.092352
O59   O     O_R   0.388053 0.705614 0.497853 -0.333878
O60   O     O_R   0.369835 0.742044 0.384253 -0.223750
N3    N     N_R   0.136795 0.310950 0.575849 0.108565
O61   O     O_R   0.111264 0.208481 0.552040 -0.341630
O62   O     O_R   0.109839 0.360886 0.631861 -0.281374
N4    N     N_R   0.847523 0.249901 0.448737 0.092640
O63   O     O_R   0.888052 0.205603 0.497851 -0.333995
O64   O     O_R   0.869834 0.242040 0.384251 -0.223759
N5    N     N_R   0.681133 0.737324 0.089343 0.112145
O65   O     O_R   0.697347 0.718719 0.155562 -0.264490
O66   O     O_R   0.635759 0.665427 0.059145 -0.382042
N6    N     N_R   0.176337 0.748508 0.887612 0.083689
O67   O     O_R   0.164595 0.634433 0.902239 -0.396954
O68   O     O_R   0.163424 0.787127 0.823650 -0.337064
N7    N     N_R   0.181845 0.235764 0.089539 0.119677
O69   O     O_R   0.196159 0.220075 0.156439 -0.252621
O70   O     O_R   0.138167 0.161307 0.058896 -0.380534
N8    N     N_R   0.677189 0.258808 0.902590 0.086020
O71   O     O_R   0.661707 0.149531 0.924276 -0.406942
O72   O     O_R   0.664989 0.286398 0.836600 -0.337282
N9    N     N_R   0.840305 0.072403 0.924917 0.116735
O73   O     O_R   0.903647 0.044600 0.908644 -0.338709
O74   O     O_R   0.823242 0.186842 0.924221 -0.327713
N10   N     N_R   0.306989 0.047421 0.100729 0.083855
O75   O     O_R   0.344432 0.140108 0.080639 -0.395859
O76   O     O_R   0.300871 0.028604 0.168396 -0.252448
N11   N     N_R   0.341719 0.571608 0.925823 0.120964
O77   O     O_R   0.403936 0.542178 0.906427 -0.336918
O78   O     O_R   0.327379 0.687019 0.930069 -0.340513
N12   N     N_R   0.821235 0.577957 0.096271 0.071494
O79   O     O_R   0.853316 0.673571 0.071847 -0.390872
O80   O     O_R   0.822063 0.559883 0.164418 -0.297700
N13   N     N_R   0.446394 0.968548 0.408062 0.136320
O81   O     O_R   0.484672 0.872254 0.398354 -0.216101
O82   O     O_R   0.398093 0.993241 0.361503 -0.309454
N14   N     N_R   0.465511 0.933375 0.553345 0.145401
O83   O     O_R   0.408002 0.901557 0.582741 -0.298030
O84   O     O_R   0.505880 0.847328 0.531452 -0.185664
N15   N     N_R   0.946383 0.468561 0.408057 0.136389
O85   O     O_R   0.984659 0.372266 0.398345 -0.215942
O86   O     O_R   0.898086 0.493265 0.361495 -0.309250
N16   N     N_R   0.965513 0.433374 0.553341 0.145371
O87   O     O_R   0.908010 0.401545 0.582747 -0.298071
O88   O     O_R   0.005883 0.347335 0.531439 -0.185702
O89   O     O_3   0.522068 0.368242 0.580312 -0.560544
C109  C     C_3   0.466948 0.452314 0.581356 -0.021214
H41   H     H_    0.471149 0.508070 0.630350 0.179910
H42   H     H_    0.416435 0.404452 0.581424 0.131276
H43   H     H_    0.468417 0.515018 0.535413 0.194720
O90   O     O_3   0.514418 0.390429 0.429518 -0.547602
C110  C     C_3   0.578638 0.445341 0.446822 -0.005706
H44   H     H_    0.590249 0.513716 0.405420 0.179350
H45   H     H_    0.621174 0.377157 0.450822 0.110245
H46   H     H_    0.576797 0.498384 0.496440 0.200576
O91   O     O_3   0.022091 0.868229 0.580315 -0.559355
C111  C     C_3   0.966981 0.952322 0.581376 -0.021023
H47   H     H_    0.971202 0.008075 0.630368 0.179873
H48   H     H_    0.916463 0.904478 0.581458 0.131196
H49   H     H_    0.968442 0.015025 0.535432 0.194603
O92   O     O_3   0.014417 0.890432 0.429520 -0.547361
C112  C     C_3   0.078640 0.945338 0.446818 -0.005895
H50   H     H_    0.090248 0.013713 0.405415 0.179312
H51   H     H_    0.121174 0.877149 0.450813 0.109311
H52   H     H_    0.076807 0.998380 0.496437 0.200756

loop_
_geom_bond_atom_site_label_1
_geom_bond_atom_site_label_2
_geom_bond_distance
_ccdc_geom_bond_type
O7    Cr3   1.955390 S    
C18   O42   1.254772 A    
C110  H46   1.102017 S    
Cr11  O51   1.981031 S    
C106  H32   1.110098 S    
O4    C12   1.272739 A    
O47   Cr11  1.954153 S    
C29   C30   1.413058 A    
O39   C19   1.265397 A    
O20   Cr12  2.071961 S    
C64   H16   1.084566 S    
O15   C7    1.280804 A    
C31   C32   1.412769 A    
C80   O92   1.386856 S    
C81   H17   1.078241 S    
C96   N4    1.453408 S    
C60   C64   1.398856 A    
C71   N15   1.435986 S    
C87   C91   1.390454 A    
C64   C68   1.405510 A    
C42   H6    1.081382 S    
C40   C42   1.392280 A    
C33   C34   1.377402 A    
C8    C27   1.467180 S    
O1    C9    1.266762 A    
C109  H42   1.102403 S    
C108  H38   1.111165 S    
C112  H52   1.102016 S    
C57   C61   1.362720 A    
C106  H33   1.111796 S    
C63   C67   1.400444 A    
O5    C1    1.278951 A    
C77   C78   1.412950 A    
C86   C90   1.393694 A    
C98   C102  1.385930 A    
O24   C12   1.280577 A    
C41   H5    1.082683 S    
C74   C78   1.413973 A    
C15   C90   1.469296 S    
C55   C59   1.416941 A    
O33   Cr5   2.064727 S    
C46   C50   1.398143 A    
N13   O81   1.301859 A    
C89   C93   1.411811 A    
C1    C56   1.445040 S    
C37   H1    1.081669 S    
C110  H44   1.106749 S    
C100  C104  1.385931 A    
O21   C9    1.281248 A    
C28   C32   1.423124 A    
O23   Cr11  1.969417 S    
N10   O75   1.301668 A    
C52   C56   1.404244 A    
C45   C65   1.406912 A    
N9    O73   1.296618 A    
C94   C98   1.399725 A    
C85   C89   1.390461 A    
C17   O41   1.281171 A    
O32   Cr4   1.950056 S    
C1    O9    1.269631 A    
C2    C55   1.445956 S    
O44   Cr12  2.090420 S    
O7    C3    1.305005 A    
C45   C49   1.396323 A    
N5    O66   1.300009 A    
C13   C92   1.469271 S    
C57   N9    1.438452 S    
C82   H18   1.073128 S    
C63   H15   1.084947 S    
C12   C68   1.446166 S    
O11   Cr7   2.087525 S    
C7    O19   1.264293 A    
N3    O61   1.300899 A    
C46   N6    1.440531 S    
C107  H35   1.113060 S    
C70   C73   1.428630 A    
N14   O84   1.292947 A    
C92   C96   1.435956 A    
N7    O69   1.300964 A    
C72   C75   1.428642 A    
C38   C44   1.392223 A    
C105  H29   1.109027 S    
N4    O63   1.300248 A    
O6    Cr2   1.952096 S    
O27   Cr3   2.073990 S    
C27   C36   1.413718 A    
O3    Cr3   2.070287 S    
O89   C109  1.406676 S    
Cr4   O52   2.002791 S    
C26   C33   1.422614 A    
C99   H27   1.083350 S    
O2    Cr2   2.071793 S    
O48   C24   1.287173 A    
C23   C103  1.464745 S    
C52   H12   1.085175 S    
C81   C85   1.376531 A    
C22   C102  1.453391 S    
C88   C92   1.393692 A    
C108  H39   1.111021 S    
C83   C103  1.388844 A    
O42   Cr10  2.090420 S    
C71   C72   1.386188 A    
Cr5   O49   1.986498 S    
O18   Cr10  2.071961 S    
N12   O79   1.300872 A    
C25   C29   1.409047 A    
N7    O70   1.299570 A    
C60   N12   1.446296 S    
C54   C58   1.417029 A    
C3    O11   1.294393 A    
O8    C4    1.302833 A    
O34   Cr6   2.069945 S    
Cr7   O51   1.986498 S    
N2    O59   1.300247 A    
C31   C39   1.411098 A    
C26   C30   1.422127 A    
C91   C95   1.411812 A    
C5    C26   1.473332 S    
N11   O78   1.296959 A    
O31   Cr3   1.947896 S    
O24   Cr12  1.968145 S    
C106  H34   1.109313 S    
N8    O72   1.300867 A    
C97   C101  1.410727 A    
O30   Cr2   1.950056 S    
O54   C106  1.407778 S    
O22   C10   1.282967 A    
C75   C79   1.405914 A    
O55   C107  1.408388 S    
O48   Cr12  1.950631 S    
C4    O12   1.275336 A    
C76   C80   1.413981 A    
O32   C16   1.278991 A    
O92   C112  1.407141 S    
C39   C41   1.394087 A    
C4    C53   1.444929 S    
C29   C37   1.411014 A    
C109  H41   1.109242 S    
C40   H4    1.080283 S    
C93   C97   1.406045 A    
N2    O60   1.297237 A    
C46   C66   1.404514 A    
C15   O35   1.301517 A    
C112  H50   1.106748 S    
Cr10  O50   1.986675 S    
O17   Cr9   2.074695 S    
C87   H23   1.077301 S    
C36   O56   1.387924 S    
O12   Cr8   2.088766 S    
O13   C5    1.281537 A    
C84   C104  1.400268 A    
C96   C100  1.399711 A    
C48   C52   1.394517 A    
N9    O74   1.296491 A    
C2    O10   1.275283 A    
O41   Cr9   2.091438 S    
C50   H10   1.084629 S    
C83   H19   1.078235 S    
C69   C74   1.389080 A    
C49   H9    1.083185 S    
N5    O65   1.301160 A    
C18   C73   1.478451 S    
C33   O53   1.387361 S    
O46   Cr10  1.950631 S    
O39   Cr7   1.968412 S    
O13   Cr5   1.947865 S    
O30   C14   1.278990 A    
O45   Cr9   1.954153 S    
C79   C80   1.412955 A    
C82   C86   1.385249 A    
C111  H49   1.107160 S    
C13   O33   1.301526 A    
C56   C60   1.406818 A    
Cr1   O49   2.002662 S    
N14   O83   1.289670 A    
C82   C102  1.400276 A    
C105  H31   1.109331 S    
C21   C101  1.464729 S    
C61   H13   1.085100 S    
C81   C101  1.388846 A    
O16   Cr8   1.952465 S    
C11   C67   1.441586 S    
C71   C76   1.389072 A    
Cr2   O50   2.002791 S    
O15   Cr7   1.947865 S    
C47   N7    1.440233 S    
C58   N10   1.450018 S    
C90   C94   1.435958 A    
C6    O18   1.263638 A    
C9    C65   1.440375 S    
C53   C57   1.414437 A    
C84   H20   1.073122 S    
Cr3   O51   2.002662 S    
O26   C22   1.267076 A    
O91   C111  1.406678 S    
C111  H48   1.102387 S    
O21   Cr9   1.969417 S    
C48   C68   1.403504 A    
N12   O80   1.301204 A    
N4    O64   1.297238 A    
C32   C40   1.414430 A    
O8    Cr4   1.952096 S    
C62   H14   1.084520 S    
O37   Cr5   1.968412 S    
O38   C18   1.293061 A    
O25   C21   1.282625 A    
O23   C11   1.281906 A    
C38   H2    1.080645 S    
C59   N11   1.440919 S    
N1    O58   1.302471 A    
C43   C44   1.390807 A    
O3    C11   1.266894 A    
N15   O85   1.301858 A    
C3    C54   1.449641 S    
C51   H11   1.083228 S    
C83   C87   1.376540 A    
C8    O20   1.261924 A    
O14   Cr6   1.952465 S    
C86   H22   1.083479 S    
C108  H40   1.109259 S    
C61   C65   1.400977 A    
C7    C28   1.472481 S    
C110  H45   1.111501 S    
N10   O76   1.300073 A    
C5    O17   1.264659 A    
N8    O71   1.299808 A    
O37   C17   1.265403 A    
O22   Cr10  1.968145 S    
O28   C24   1.267078 A    
C16   C89   1.468494 S    
C51   C55   1.404203 A    
N6    O68   1.301160 A    
O14   C6    1.283637 A    
C19   O43   1.281183 A    
C14   C91   1.468500 S    
C34   O54   1.387415 S    
O5    Cr1   1.955390 S    
C70   N14   1.431454 S    
Cr12  O52   1.986675 S    
C49   C53   1.403808 A    
N15   O86   1.301326 A    
C109  H43   1.107161 S    
O40   Cr8   1.969782 S    
C24   C104  1.453385 S    
N16   O88   1.292948 A    
N11   O77   1.296577 A    
N3    O62   1.302473 A    
C97   H25   1.083350 S    
N16   O87   1.289675 A    
C39   H3    1.081624 S    
C47   C51   1.397148 A    
C58   C62   1.397207 A    
C112  H51   1.111500 S    
C50   C54   1.402057 A    
C77   O89   1.385361 S    
C41   C42   1.390665 A    
C14   O34   1.279490 A    
O25   Cr1   2.073990 S    
C78   O90   1.386860 S    
C35   C36   1.377339 A    
C100  H28   1.083734 S    
C25   C34   1.412482 A    
C20   O44   1.254773 A    
C59   C63   1.362481 A    
C79   O91   1.385367 S    
C44   H8    1.081544 S    
O19   Cr11  2.074695 S    
N1    O57   1.300899 A    
C20   C75   1.478457 S    
O1    Cr1   2.070287 S    
Cr8   O52   1.980658 S    
C107  H36   1.108241 S    
O29   C13   1.259798 A    
C69   C70   1.386172 A    
O9    Cr5   2.087525 S    
C93   N1    1.433641 S    
C111  H47   1.109243 S    
C10   C66   1.446650 S    
C85   H21   1.077297 S    
O2    C10   1.271977 A    
O46   C22   1.287187 A    
O31   C15   1.259793 A    
C62   C66   1.399457 A    
C107  H37   1.108733 S    
O45   C21   1.275851 A    
C69   N13   1.435984 S    
C45   N5    1.439795 S    
N6    O67   1.299207 A    
C6    C25   1.467747 S    
O26   Cr2   2.069830 S    
C43   H7    1.082781 S    
O47   C23   1.275847 A    
O10   Cr6   2.088766 S    
C73   C77   1.405914 A    
O53   C105  1.407692 S    
O35   Cr7   2.064727 S    
O4    Cr4   2.071793 S    
C84   C88   1.385244 A    
O6    C2    1.305578 A    
O29   Cr1   1.947896 S    
C94   N2    1.453407 S    
O28   Cr4   2.069830 S    
C16   O36   1.279483 A    
O40   C20   1.293065 A    
O56   C108  1.407439 S    
C30   C38   1.414065 A    
C27   C31   1.408115 A    
C95   N3    1.433646 S    
Cr6   O50   1.980658 S    
N13   O82   1.301323 A    
O43   Cr11  2.091438 S    
C37   C43   1.394746 A    
C35   O55   1.387815 S    
O27   C23   1.282631 A    
O90   C110  1.407145 S    
C99   C103  1.410736 A    
C105  H30   1.113206 S    
C98   H26   1.083734 S    
C19   C76   1.468454 S    
O36   Cr8   2.069945 S    
C17   C74   1.468437 S    
C47   C67   1.407085 A    
C72   N16   1.431460 S    
O16   C8    1.285071 A    
Cr9   O49   1.981031 S    
C95   C99   1.406055 A    
C88   H24   1.083479 S    
C28   C35   1.422771 A    
C48   N8    1.442456 S    
O38   Cr6   1.969782 S    
