data_mof_unit_64918.cif
_audit_creation_date              2012-12-10T19:51:44-0500
_audit_creation_method            fapswitch 2.2
_symmetry_space_group_name_H-M    P1
_symmetry_Int_Tables_number       1
_space_group_crystal_system       triclinic
_cell_length_a                    26.07216
_cell_length_b                    26.045945
_cell_length_c                    22.197125
_cell_angle_alpha                 90.000013
_cell_angle_beta                  125.885963
_cell_angle_gamma                 89.999967
_cell_volume                      12212.3207954

loop_
_atom_site_label
_atom_site_type_symbol
_atom_type_description
_atom_site_fract_x
_atom_site_fract_y
_atom_site_fract_z
_atom_type_partial_charge
C1    C     C_R   0.650326 0.749998 0.300630 0.820923
C2    C     C_3   0.499609 0.795783 0.024539 0.704571
C3    C     C_R   0.260460 0.525904 0.456186 0.131000
C4    C     C_R   0.749767 0.945540 0.500613 -0.085550
C5    C     C_R   0.749765 0.054459 0.500611 -0.085550
C6    C     C_R   0.249767 0.445540 0.500613 -0.085489
C7    C     C_R   0.249765 0.554459 0.500611 -0.085489
C8    C     C_R   0.738590 0.973001 0.546783 -0.207344
C9    C     C_R   0.738590 0.026999 0.546783 -0.207343
C10   C     C_R   0.238591 0.473001 0.546784 -0.207363
C11   C     C_R   0.238591 0.526999 0.546784 -0.207365
C12   C     C_3   0.774474 0.029578 0.400217 -0.464815
C13   C     C_3   0.000916 0.703872 0.024535 0.704752
C14   C     C_3   0.774477 0.970420 0.400220 -0.464751
C15   C     C_3   0.274472 0.529578 0.400215 -0.464365
C16   C     C_3   0.274475 0.470420 0.400218 -0.464316
C17   C     C_R   0.610032 0.750112 0.500138 0.849985
C18   C     C_R   0.610032 0.249888 0.500138 0.850001
C19   C     C_R   0.110032 0.250112 0.500138 0.849940
C20   C     C_R   0.110032 0.749888 0.500138 0.849948
C21   C     C_R   0.749985 0.889974 0.500062 0.808264
C22   C     C_R   0.749985 0.110026 0.500061 0.808288
C23   C     C_R   0.249985 0.389974 0.500062 0.808130
C24   C     C_3   0.001343 0.296233 0.024533 0.704772
C25   C     C_R   0.249985 0.610026 0.500061 0.808150
C26   C     C_R   0.750042 0.610014 0.500083 0.808431
C27   C     C_R   0.750042 0.389986 0.500083 0.808414
C28   C     C_R   0.250042 0.110014 0.500083 0.808522
C29   C     C_R   0.250042 0.889986 0.500083 0.808506
C30   C     C_R   0.695746 0.525903 0.456326 0.132327
C31   C     C_R   0.695745 0.474097 0.456326 0.132325
C32   C     C_R   0.195746 0.025903 0.456326 0.132415
C33   C     C_R   0.195745 0.974097 0.456325 0.132413
C34   C     C_R   0.750805 0.554453 0.500615 -0.085339
C35   C     C_3   0.940839 0.736704 0.975321 -0.230145
C36   C     C_R   0.750805 0.445546 0.500614 -0.085338
C37   C     C_R   0.250805 0.054453 0.500615 -0.085303
C38   C     C_R   0.250805 0.945546 0.500614 -0.085303
C39   C     C_R   0.808084 0.526995 0.546632 -0.212417
C40   C     C_R   0.808084 0.473004 0.546632 -0.212415
C41   C     C_R   0.308084 0.026995 0.546633 -0.212469
C42   C     C_R   0.308084 0.973004 0.546633 -0.212466
C43   C     C_3   0.940965 0.263730 0.975320 -0.230155
C44   C     C_3   0.440334 0.238641 0.975324 -0.229929
C45   C     C_3   0.440480 0.761953 0.975323 -0.229938
C46   C     C_1   0.889350 0.750022 0.778842 -0.128305
C47   C     C_1   0.889350 0.249977 0.778842 -0.128303
C48   C     C_1   0.389349 0.250022 0.778842 -0.128335
C49   C     C_R   0.650326 0.250002 0.300630 0.820969
C50   C     C_1   0.389350 0.749977 0.778842 -0.128336
C51   C     C_1   0.610703 0.250080 0.221169 -0.125670
C52   C     C_1   0.610702 0.749922 0.221169 -0.125673
C53   C     C_1   0.110700 0.750078 0.221169 -0.125622
C54   C     C_1   0.110699 0.249922 0.221169 -0.125619
C55   C     C_3   0.022775 0.716375 0.975038 -0.229227
C56   C     C_3   0.023085 0.283297 0.975037 -0.229273
C57   C     C_3   0.521369 0.214957 0.975044 -0.229242
C58   C     C_3   0.521805 0.784615 0.975041 -0.229309
C59   C     C_3   0.963414 0.750050 0.926840 0.107118
C60   C     C_R   0.150326 0.249998 0.300630 0.820786
C61   C     C_3   0.963415 0.249949 0.926840 0.107126
C62   C     C_3   0.463415 0.250051 0.926840 0.107134
C63   C     C_3   0.463415 0.749948 0.926840 0.107152
C64   C     C_3   0.559664 0.261875 0.024458 -0.242223
C65   C     C_3   0.559512 0.737532 0.024459 -0.242294
C66   C     C_3   0.059140 0.763808 0.024461 -0.242351
C67   C     C_3   0.059011 0.235758 0.024462 -0.242385
C68   C     C_3   0.536819 0.250505 0.073171 0.077955
C69   C     C_3   0.536812 0.749496 0.073171 0.077951
C70   C     C_3   0.036799 0.750507 0.073171 0.077872
C71   C     C_R   0.150325 0.750002 0.300630 0.820819
C72   C     C_3   0.036794 0.249493 0.073171 0.077865
C73   C     C_3   0.999179 0.797466 0.974855 -0.120257
C74   C     C_3   0.998741 0.202427 0.974857 -0.120200
C75   C     C_3   0.501109 0.296946 0.974846 -0.120488
C76   C     C_3   0.500522 0.702886 0.974851 -0.120420
C77   C     C_R   0.849640 0.749992 0.699376 0.814155
C78   C     C_R   0.849640 0.250008 0.699376 0.814150
C79   C     C_R   0.349640 0.249992 0.699376 0.814178
C80   C     C_R   0.349640 0.750008 0.699376 0.814172
C81   C     C_3   0.478831 0.285500 0.024737 -0.238449
C82   C     C_3   0.625836 0.470422 0.400593 -0.473266
C83   C     C_3   0.478390 0.714927 0.024739 -0.238418
C84   C     C_3   0.977408 0.784087 0.024742 -0.238455
C85   C     C_3   0.977095 0.216240 0.024743 -0.238436
C86   C     C_1   0.922782 0.750034 0.845678 -0.028034
C87   C     C_1   0.922783 0.249965 0.845678 -0.028034
C88   C     C_1   0.422782 0.250034 0.845678 -0.028082
C89   C     C_1   0.422783 0.749964 0.845678 -0.028088
C90   C     C_1   0.577352 0.250236 0.154336 -0.005737
C91   C     C_1   0.577348 0.749766 0.154336 -0.005749
C92   C     C_1   0.077342 0.750235 0.154336 -0.005694
C93   C     C_3   0.625836 0.529579 0.400594 -0.473272
C94   C     C_1   0.077340 0.249765 0.154336 -0.005694
C95   C     C_R   0.504165 0.717895 0.456479 0.053041
C96   C     C_R   0.504164 0.282104 0.456478 0.053037
C97   C     C_R   0.004165 0.217895 0.456479 0.053118
C98   C     C_R   0.004165 0.782104 0.456478 0.053110
C99   C     C_R   0.554811 0.750873 0.500955 -0.228829
C100  C     C_R   0.554811 0.249127 0.500956 -0.228813
C101  C     C_R   0.054811 0.250873 0.500955 -0.228929
C102  C     C_R   0.054811 0.749127 0.500956 -0.228914
C103  C     C_R   0.550047 0.785192 0.547101 0.620460
C104  C     C_3   0.125836 0.970422 0.400590 -0.473365
C105  C     C_R   0.550049 0.214810 0.547104 0.620457
C106  C     C_R   0.050047 0.285192 0.547100 0.620495
C107  C     C_R   0.050049 0.714810 0.547104 0.620487
C108  C     C_R   0.495953 0.784874 0.546727 -0.306881
C109  C     C_R   0.495955 0.215129 0.546731 -0.306882
C110  C     C_R   0.995952 0.284874 0.546727 -0.306847
C111  C     C_R   0.995954 0.715128 0.546731 -0.306853
C112  C     C_R   0.445713 0.750536 0.500574 -0.170764
C113  C     C_R   0.445714 0.249465 0.500575 -0.170751
C114  C     C_R   0.945713 0.250536 0.500574 -0.170853
C115  C     C_3   0.125837 0.029579 0.400591 -0.473371
C116  C     C_R   0.945714 0.749465 0.500575 -0.170840
C117  C     C_R   0.452309 0.717722 0.456299 0.125883
C118  C     C_R   0.452309 0.282277 0.456299 0.125865
C119  C     C_R   0.952309 0.217722 0.456300 0.126027
C120  C     C_R   0.952309 0.782278 0.456299 0.126006
C121  C     C_3   0.420891 0.675726 0.400344 -0.445688
C122  C     C_3   0.420888 0.324270 0.400338 -0.445638
C123  C     C_3   0.920891 0.175726 0.400344 -0.446031
C124  C     C_3   0.920889 0.824271 0.400339 -0.445973
C125  C     C_R   0.889956 0.749977 0.500041 0.845826
C126  C     C_3   0.499038 0.204382 0.024543 0.704541
C127  C     C_R   0.889956 0.250023 0.500041 0.845828
C128  C     C_R   0.389956 0.249977 0.500041 0.845820
C129  C     C_R   0.389956 0.750023 0.500041 0.845820
C130  C     C_3   0.480066 0.675907 0.400503 -0.434292
C131  C     C_3   0.480062 0.324089 0.400496 -0.434254
C132  C     C_3   0.980066 0.175907 0.400503 -0.434492
C133  C     C_3   0.980063 0.824090 0.400498 -0.434465
C134  C     C_R   0.760462 0.974095 0.456188 0.131248
C135  C     C_R   0.760460 0.025904 0.456187 0.131267
C136  C     C_R   0.260462 0.474095 0.456188 0.130984
F1    F     F_    0.596970 0.819029 0.592456 -0.635369
F2    F     F_    0.596973 0.180974 0.592462 -0.635376
F3    F     F_    0.096970 0.319030 0.592455 -0.635285
F4    F     F_    0.096973 0.680974 0.592461 -0.635293
F5    F     F_    0.498558 0.156610 0.051357 -0.653424
F6    F     F_    0.499726 0.843726 0.051347 -0.653417
F7    F     F_    0.002401 0.655569 0.051339 -0.653227
F8    F     F_    0.003274 0.344644 0.051336 -0.653217
H1    H     H_    0.852741 0.546944 0.582505 0.185262
H2    H     H_    0.415694 0.359864 0.423953 0.199418
H3    H     H_    0.915699 0.140134 0.423964 0.199469
H4    H     H_    0.915695 0.859864 0.423955 0.199461
H5    H     H_    0.377267 0.689011 0.347044 0.209022
H6    H     H_    0.377264 0.310982 0.347040 0.209072
H7    H     H_    0.877267 0.189010 0.347045 0.208767
H8    H     H_    0.877265 0.810984 0.347042 0.208818
H9    H     H_    0.508996 0.640395 0.424162 0.200994
H10   H     H_    0.508991 0.359602 0.424151 0.200980
H11   H     H_    0.008996 0.140395 0.424163 0.201057
H12   H     H_    0.852740 0.453056 0.582504 0.185267
H13   H     H_    0.008992 0.859603 0.424153 0.201046
H14   H     H_    0.470571 0.689291 0.347279 0.210622
H15   H     H_    0.470568 0.310701 0.347274 0.210678
H16   H     H_    0.970571 0.189291 0.347279 0.210390
H17   H     H_    0.970568 0.810702 0.347275 0.210435
H18   H     H_    0.729869 0.953051 0.582772 0.193435
H19   H     H_    0.729869 0.046949 0.582772 0.193434
H20   H     H_    0.229871 0.453051 0.582774 0.193463
H21   H     H_    0.229870 0.546949 0.582773 0.193461
H22   H     H_    0.734576 0.046646 0.346955 0.221944
H23   H     H_    0.352741 0.046944 0.582507 0.185175
H24   H     H_    0.734582 0.953348 0.346961 0.221988
H25   H     H_    0.234573 0.546646 0.346954 0.222248
H26   H     H_    0.234579 0.453348 0.346959 0.222280
H27   H     H_    0.821789 0.046646 0.423866 0.201102
H28   H     H_    0.821795 0.953356 0.423873 0.201098
H29   H     H_    0.321787 0.546646 0.423863 0.201063
H30   H     H_    0.321793 0.453356 0.423870 0.201059
H31   H     H_    0.612401 0.453352 0.347263 0.210625
H32   H     H_    0.612401 0.546651 0.347265 0.210626
H33   H     H_    0.112402 0.953352 0.347261 0.210628
H34   H     H_    0.352740 0.953056 0.582506 0.185181
H35   H     H_    0.112402 0.046651 0.347264 0.210629
H36   H     H_    0.602285 0.453356 0.424438 0.204367
H37   H     H_    0.602286 0.546644 0.424441 0.204365
H38   H     H_    0.102284 0.953356 0.424434 0.204365
H39   H     H_    0.102285 0.046644 0.424437 0.204365
H40   H     H_    0.892084 0.725085 0.954497 0.161830
H41   H     H_    0.892318 0.275705 0.954494 0.161797
H42   H     H_    0.391135 0.228605 0.954502 0.162034
H43   H     H_    0.391409 0.772476 0.954498 0.161988
H44   H     H_    0.461986 0.314543 0.046043 0.163730
H45   H     H_    0.493666 0.811522 0.582550 0.208573
H46   H     H_    0.461184 0.686233 0.046049 0.163739
H47   H     H_    0.959399 0.811975 0.046054 0.163709
H48   H     H_    0.958828 0.188619 0.046056 0.163708
H49   H     H_    0.997913 0.836218 0.953201 0.147318
H50   H     H_    0.997117 0.163587 0.953204 0.147343
H51   H     H_    0.501420 0.335272 0.953184 0.147166
H52   H     H_    0.500353 0.664422 0.953193 0.147199
H53   H     H_    0.609011 0.271568 0.045531 0.163388
H54   H     H_    0.608735 0.727352 0.045535 0.163388
H55   H     H_    0.108057 0.775086 0.045537 0.163509
H56   H     H_    0.493669 0.188482 0.582556 0.208567
H57   H     H_    0.107823 0.224124 0.045539 0.163522
H58   H     H_    0.040718 0.688201 0.953978 0.163495
H59   H     H_    0.041289 0.311205 0.953976 0.163475
H60   H     H_    0.538136 0.185637 0.953989 0.163402
H61   H     H_    0.538937 0.813589 0.953983 0.163369
H62   H     H_    0.993665 0.311522 0.582549 0.208630
H63   H     H_    0.993668 0.688481 0.582555 0.208625
H64   H     H_    0.415699 0.640134 0.423963 0.199427
O1    O     O_3   0.749980 0.749980 0.500000 -0.494748
O2    O     O_R   0.612630 0.280380 0.456900 -0.653879
O3    O     O_R   0.112630 0.219620 0.456900 -0.653948
O4    O     O_R   0.112630 0.780380 0.456900 -0.653937
O5    O     O_R   0.698160 0.780350 0.335610 -0.632477
O6    O     O_R   0.698160 0.219650 0.335610 -0.632576
O7    O     O_R   0.198160 0.280350 0.335610 -0.632104
O8    O     O_R   0.198160 0.719650 0.335610 -0.632180
O9    O     O_R   0.801810 0.780340 0.664390 -0.626662
O10   O     O_R   0.801810 0.219660 0.664390 -0.626676
O11   O     O_R   0.301810 0.280340 0.664390 -0.626564
O12   O     O_3   0.749980 0.250020 0.500000 -0.494746
O13   O     O_R   0.301810 0.719660 0.664390 -0.626579
O14   O     O_R   0.637440 0.719620 0.335610 -0.640830
O15   O     O_R   0.637440 0.280380 0.335610 -0.640769
O16   O     O_R   0.137440 0.219620 0.335610 -0.641050
O17   O     O_R   0.137440 0.780380 0.335610 -0.641005
O18   O     O_R   0.862520 0.719620 0.664390 -0.635867
O19   O     O_R   0.862520 0.280380 0.664390 -0.635851
O20   O     O_R   0.362520 0.219620 0.664390 -0.635996
O21   O     O_R   0.362520 0.780380 0.664390 -0.635976
O22   O     O_R   0.844240 0.780350 0.456900 -0.645597
O23   O     O_3   0.249980 0.249980 0.500000 -0.494756
O24   O     O_R   0.844240 0.219650 0.456900 -0.645610
O25   O     O_R   0.344240 0.280350 0.456900 -0.645536
O26   O     O_R   0.344240 0.719650 0.456900 -0.645548
O27   O     O_R   0.655730 0.780340 0.543100 -0.571383
O28   O     O_R   0.655730 0.219660 0.543100 -0.571388
O29   O     O_R   0.155730 0.280340 0.543100 -0.571355
O30   O     O_R   0.155730 0.719660 0.543100 -0.571360
O31   O     O_R   0.758800 0.865790 0.456890 -0.644174
O32   O     O_R   0.758800 0.134210 0.456890 -0.644181
O33   O     O_R   0.258800 0.365790 0.456890 -0.644149
O34   O     O_3   0.249980 0.750020 0.500000 -0.494754
O35   O     O_R   0.258800 0.634210 0.456890 -0.644153
O36   O     O_R   0.698070 0.634180 0.456910 -0.645030
O37   O     O_R   0.698070 0.365820 0.456910 -0.645038
O38   O     O_R   0.198070 0.134180 0.456910 -0.644996
O39   O     O_R   0.198070 0.865820 0.456910 -0.645002
O40   O     O_R   0.741170 0.865780 0.543090 -0.637057
O41   O     O_R   0.741170 0.134220 0.543090 -0.637052
O42   O     O_R   0.241170 0.365780 0.543090 -0.637079
O43   O     O_R   0.241170 0.634220 0.543090 -0.637075
O44   O     O_R   0.801880 0.634180 0.543110 -0.645018
O45   O     O_R   0.887330 0.719620 0.543100 -0.645927
O46   O     O_R   0.801880 0.365820 0.543110 -0.645018
O47   O     O_R   0.301880 0.134180 0.543110 -0.645037
O48   O     O_R   0.301880 0.865820 0.543110 -0.645036
O49   O     O_R   0.887330 0.280380 0.543100 -0.645920
O50   O     O_R   0.387330 0.219620 0.543100 -0.645971
O51   O     O_R   0.387330 0.780380 0.543100 -0.645965
O52   O     O_R   0.612630 0.719620 0.456900 -0.653894
Zn1   Zn    Zn3+2 0.824140 0.706600 0.561580 0.972994
Zn2   Zn    Zn3+2 0.737390 0.206640 0.561570 1.021392
Zn3   Zn    Zn3+2 0.237390 0.293360 0.561570 1.021392
Zn4   Zn    Zn3+2 0.237390 0.706640 0.561570 1.021391
Zn5   Zn    Zn3+2 0.675820 0.706600 0.438430 0.962613
Zn6   Zn    Zn3+2 0.675820 0.293400 0.438430 0.962660
Zn7   Zn    Zn3+2 0.175820 0.206600 0.438430 0.962470
Zn8   Zn    Zn3+2 0.175820 0.793400 0.438430 0.962502
Zn9   Zn    Zn3+2 0.824140 0.293400 0.561580 0.973002
Zn10  Zn    Zn3+2 0.324140 0.206600 0.561580 0.972901
Zn11  Zn    Zn3+2 0.324140 0.793400 0.561580 0.972910
Zn12  Zn    Zn3+2 0.762580 0.793360 0.438420 0.968335
Zn13  Zn    Zn3+2 0.762580 0.206640 0.438420 0.968282
Zn14  Zn    Zn3+2 0.262580 0.293360 0.438420 0.968566
Zn15  Zn    Zn3+2 0.262580 0.706640 0.438420 0.968524
Zn16  Zn    Zn3+2 0.737390 0.793360 0.561570 1.021385

loop_
_geom_bond_atom_site_label_1
_geom_bond_atom_site_label_2
_ccdc_geom_bond_type
O9    Zn16  S    
C99   C103  A    
C74   H50   S    
C55   C59   S    
O16   Zn7   S    
C124  C133  S    
C68   C81   S    
C18   O2    A    
C60   O7    A    
O23   Zn7   S    
C103  F1    S    
C18   O28   A    
C63   C76   S    
C71   O8    A    
C132  H11   S    
C107  F4    S    
C80   O13   A    
C93   H37   S    
O19   Zn9   S    
C49   C51   S    
C12   C135  S    
C68   C90   S    
C112  C129  S    
C70   C84   S    
C59   C73   S    
O17   Zn8   S    
C72   C94   S    
C77   O18   A    
O2    Zn6   S    
O27   Zn16  S    
C71   O17   A    
C76   C83   S    
O12   Zn2   S    
C15   H29   S    
C43   C85   S    
C44   C81   S    
C56   H59   S    
C58   H61   S    
C98   C102  A    
C62   C88   S    
O33   Zn14  S    
C79   O11   A    
C55   H58   S    
C39   H1    S    
C67   C74   S    
C17   O52   A    
C31   C82   S    
C62   C75   S    
C14   H24   S    
C53   C71   S    
C101  C106  A    
C43   C61   S    
O45   Zn1   S    
O12   Zn13  S    
C46   C77   S    
C35   C84   S    
C98   C120  A    
C119  C123  S    
C61   C74   S    
C24   C56   S    
C126  F5    S    
C33   C38   A    
O34   Zn11  S    
C8    H18   S    
C25   O43   A    
C77   O9    A    
C106  F3    S    
C30   C31   A    
C42   H34   S    
C20   O30   A    
O25   Zn14  S    
C57   H60   S    
C121  H5    S    
C95   C99   A    
C20   O4    A    
O4    Zn8   S    
C13   C70   S    
C11   H21   S    
C24   C43   S    
O34   Zn4   S    
C31   C36   A    
C52   C91   T    
O20   Zn10  S    
C121  H64   S    
O7    Zn14  S    
C123  C132  S    
C33   C104  S    
O21   Zn11  S    
C83   H46   S    
C121  C130  S    
O13   Zn4   S    
C72   C85   S    
C66   C70   S    
C95   C117  A    
C64   C68   S    
O34   Zn15  S    
C13   C35   S    
C23   O42   A    
C27   O37   A    
C51   C90   T    
C43   H41   S    
O32   Zn13  S    
C3    C136  A    
C118  C122  S    
C61   C87   S    
C29   C38   S    
C95   C130  S    
O34   Zn8   S    
C23   O33   A    
C2    C69   S    
C110  C114  A    
C114  C119  A    
C122  H2    S    
C105  F2    S    
C45   C83   S    
O3    Zn7   S    
C2    C45   S    
O48   Zn11  S    
C30   C34   A    
C34   C39   A    
C39   C40   A    
C45   H43   S    
O26   Zn15  S    
C116  C120  A    
C47   C87   T    
C97   C119  A    
C5    C9    A    
C67   H57   S    
C58   C65   S    
C104  H33   S    
C63   C89   S    
C127  O49   A    
C102  C107  A    
C28   O38   A    
C32   C37   A    
C131  H15   S    
O18   Zn1   S    
C26   O44   A    
C96   C131  S    
C21   O31   A    
C116  C125  S    
C2    F6    S    
O49   Zn9   S    
O35   Zn15  S    
C16   C136  S    
C111  H63   S    
C79   O20   A    
O51   Zn11  S    
C24   C72   S    
C4    C134  A    
C16   H30   S    
C78   O19   A    
C5    C135  A    
C105  C109  A    
C107  C111  A    
C131  H10   S    
C123  H3    S    
C129  O51   A    
C50   C80   S    
O1    Zn1   S    
C134  C135  A    
O46   Zn9   S    
C129  O26   A    
O36   Zn5   S    
C28   C37   S    
C96   C100  A    
C127  O24   A    
C64   C75   S    
C133  H13   S    
C74   C85   S    
C37   C41   A    
C27   O46   A    
C10   C11   A    
C65   H54   S    
C82   H31   S    
C47   C78   S    
C69   C91   S    
O47   Zn10  S    
C104  H38   S    
O28   Zn2   S    
C73   H49   S    
O29   Zn3   S    
C41   C42   A    
C122  C131  S    
O30   Zn4   S    
C28   O47   A    
C113  C128  S    
O1    Zn5   S    
C124  H4    S    
C98   C133  S    
C65   C76   S    
O31   Zn12  S    
C19   O3    A    
C122  H6    S    
C48   C79   S    
C3    C7    A    
C19   O29   A    
C112  C117  A    
O23   Zn10  S    
C128  O25   A    
C84   H47   S    
C35   C59   S    
C9    H19   S    
O15   Zn6   S    
O23   Zn3   S    
C76   H52   S    
O1    Zn12  S    
C48   C88   T    
C111  C116  A    
O41   Zn2   S    
C21   O40   A    
C81   H44   S    
C82   C93   S    
C64   H53   S    
C49   O15   A    
C12   H27   S    
C22   O32   A    
C25   O35   A    
C123  H7    S    
O11   Zn3   S    
C35   H40   S    
C49   O6    A    
C108  C112  A    
O23   Zn14  S    
C1    O14   A    
C104  C115  S    
C50   C89   T    
O1    Zn16  S    
O12   Zn9   S    
C17   C99   S    
C1    O5    A    
C55   C66   S    
C70   C92   S    
C97   C132  S    
C6    C10   A    
C115  H39   S    
C2    C58   S    
O40   Zn16  S    
C27   C36   S    
C7    C25   S    
C130  H14   S    
C32   C33   A    
C78   O10   A    
C114  C127  S    
C24   F8    S    
C65   C69   S    
O5    Zn12  S    
O8    Zn15  S    
C13   F7    S    
C32   C115  S    
O50   Zn10  S    
C1    C52   S    
O42   Zn3   S    
C16   H26   S    
C56   C61   S    
C109  H56   S    
O52   Zn5   S    
C44   H42   S    
C13   C55   S    
C75   H51   S    
O37   Zn6   S    
C80   O21   A    
C4    C8    A    
O12   Zn6   S    
C57   C62   S    
C54   C60   S    
C85   H48   S    
C7    C11   A    
C44   C126  S    
C100  C105  A    
C132  H16   S    
C96   C118  A    
C67   C72   S    
C30   C93   S    
C12   H22   S    
C26   O36   A    
C20   C102  S    
C15   C16   S    
O6    Zn13  S    
C15   H25   S    
C29   O48   A    
C117  C121  S    
C6    C136  A    
C26   C34   S    
C5    C22   S    
C8    C9    A    
C103  C108  A    
C73   C84   S    
C66   H55   S    
C109  C113  A    
O43   Zn4   S    
C124  H8    S    
C29   O39   A    
C18   C100  S    
C60   O16   A    
C17   O27   A    
C36   C40   A    
C22   O41   A    
C14   H28   S    
C125  O22   A    
C57   C126  S    
O14   Zn5   S    
C75   C81   S    
C14   C134  S    
C44   C62   S    
C66   C73   S    
C45   C63   S    
C128  O50   A    
C69   C83   S    
C53   C92   T    
C110  H62   S    
C125  O45   A    
O44   Zn1   S    
O39   Zn8   S    
C12   C14   S    
O10   Zn2   S    
C108  H45   S    
O38   Zn7   S    
C68   C126  S    
C3    C15   S    
C57   C64   S    
C106  C110  A    
C58   C63   S    
C10   H20   S    
O24   Zn13  S    
C133  H17   S    
C56   C67   S    
C93   H32   S    
C59   C86   S    
C4    C21   S    
C19   C101  S    
O22   Zn12  S    
C6    C23   S    
C41   H23   S    
C130  H9    S    
C97   C101  A    
C54   C94   T    
C113  C118  A    
C38   C42   A    
C82   H36   S    
C40   H12   S    
C115  H35   S    
C120  C124  S    
C46   C86   T    
