data_mof_unit_62058.cif
_audit_creation_date              2012-12-10T22:08:26-0500
_audit_creation_method            fapswitch 2.2
_symmetry_space_group_name_H-M    P1
_symmetry_Int_Tables_number       1
_space_group_crystal_system       triclinic
_cell_length_a                    15.949004
_cell_length_b                    16.142104
_cell_length_c                    29.889133
_cell_angle_alpha                 90.584986
_cell_angle_beta                  89.830998
_cell_angle_gamma                 90.158736
_cell_volume                      7694.50823934

loop_
_atom_site_label
_atom_site_type_symbol
_atom_type_description
_atom_site_fract_x
_atom_site_fract_y
_atom_site_fract_z
_atom_type_partial_charge
C1    C     C_R   0.618899 0.998858 0.559071 0.904703
C2    C     C_R   0.381101 0.001142 0.440929 0.904702
C3    C     C_R   0.924586 0.859240 0.154748 -0.172573
C4    C     C_R   0.075414 0.140759 0.845252 -0.172573
C5    C     C_R   0.065568 0.874379 0.209734 -0.121869
C6    C     C_R   0.934432 0.125621 0.790266 -0.121869
C7    C     C_R   0.061682 0.811829 0.177442 -0.164639
C8    C     C_R   0.938318 0.188171 0.822558 -0.164639
C9    C     C_R   0.930125 0.128749 0.210290 -0.262824
C10   C     C_R   0.069874 0.871250 0.789709 -0.262826
C11   C     C_R   0.929651 0.193664 0.180127 -0.171361
C12   C     C_R   0.070348 0.806334 0.819873 -0.171361
C13   C     C_R   0.088426 0.932619 0.307404 -0.205357
C14   C     C_R   0.911573 0.067381 0.692596 -0.205358
C15   C     C_R   0.150796 0.931849 0.339816 -0.167770
C16   C     C_R   0.849203 0.068152 0.660185 -0.167769
C17   C     C_R   0.910556 0.074183 0.308049 -0.182117
C18   C     C_R   0.089443 0.925818 0.691950 -0.182117
C19   C     C_R   0.847115 0.073766 0.340060 -0.173050
C20   C     C_R   0.152884 0.926234 0.659940 -0.173049
C21   C     C_3   0.000891 0.004587 0.248229 -0.073019
C22   C     C_3   0.999109 0.995413 0.751771 -0.073019
C23   C     C_R   0.617735 0.000794 0.440682 0.904575
C24   C     C_R   0.382265 0.999206 0.559318 0.904574
C25   C     C_R   0.075070 0.003461 0.280988 0.170219
C26   C     C_R   0.924930 0.996539 0.719012 0.170223
C27   C     C_R   0.198798 0.002789 0.347604 0.164429
C28   C     C_R   0.801202 0.997211 0.652396 0.164430
C29   C     C_R   0.924585 0.004520 0.279998 0.098774
C30   C     C_R   0.075415 0.995479 0.720002 0.098774
C31   C     C_R   0.797823 0.003128 0.345449 0.170680
C32   C     C_R   0.202177 0.996872 0.654551 0.170679
C33   C     C_R   0.003095 0.080566 0.217031 0.014537
C34   C     C_R   0.996904 0.919433 0.782968 0.014537
C35   C     C_R   0.001051 0.210874 0.155104 0.095673
C36   C     C_R   0.998948 0.789125 0.844896 0.095672
C37   C     C_R   0.998328 0.930339 0.215495 0.127120
C38   C     C_R   0.001672 0.069661 0.784505 0.127120
C39   C     C_R   0.991440 0.804543 0.150015 0.161444
C40   C     C_R   0.008560 0.195456 0.849985 0.161444
C41   C     C_1   0.734442 0.001917 0.379082 -0.074112
C42   C     C_1   0.265558 0.998083 0.620918 -0.074112
C43   C     C_1   0.681235 0.001069 0.407364 -0.172050
C44   C     C_1   0.318765 0.998931 0.592636 -0.172051
C45   C     C_R   0.121426 0.075949 0.291379 -0.115582
C46   C     C_R   0.878575 0.924050 0.708620 -0.115584
C47   C     C_1   0.262668 0.002189 0.380727 -0.067887
C48   C     C_1   0.737332 0.997811 0.619273 -0.067887
C49   C     C_1   0.316671 0.001839 0.408381 -0.169659
C50   C     C_1   0.683329 0.998160 0.591618 -0.169658
C51   C     C_1   0.999533 0.274533 0.122570 -0.039798
C52   C     C_1   0.000467 0.725467 0.877430 -0.039798
C53   C     C_1   0.999168 0.326930 0.094611 -0.168277
C54   C     C_1   0.000832 0.673070 0.905389 -0.168276
C55   C     C_1   0.989339 0.741847 0.116232 -0.062596
C56   C     C_1   0.010661 0.258153 0.883768 -0.062596
C57   C     C_1   0.989801 0.688499 0.088193 -0.164903
C58   C     C_1   0.010199 0.311501 0.911807 -0.164903
C59   C     C_R   0.993307 0.623838 0.055818 0.901943
C60   C     C_R   0.006693 0.376162 0.944182 0.901942
C61   C     C_R   0.999335 0.388341 0.061096 0.899739
C62   C     C_R   0.000665 0.611658 0.938904 0.899740
C63   C     C_R   0.183752 0.074952 0.323790 -0.157918
C64   C     C_R   0.816250 0.925047 0.676209 -0.157919
C65   C     C_R   0.875062 0.932909 0.286969 -0.201744
C66   C     C_R   0.124938 0.067091 0.713031 -0.201743
C67   C     C_R   0.811666 0.932819 0.319040 -0.168594
C68   C     C_R   0.188334 0.067180 0.680960 -0.168595
C69   C     C_R   0.074552 0.097834 0.189675 0.388552
C70   C     C_R   0.925447 0.902166 0.810325 0.388554
C71   C     C_R   0.072947 0.163327 0.159740 -0.201969
C72   C     C_R   0.927053 0.836673 0.840260 -0.201969
C73   C     C_R   0.928160 0.921852 0.186960 -0.185204
C74   C     C_R   0.071840 0.078147 0.813040 -0.185204
H1    H     H_    0.219434 0.130845 0.330705 0.140474
H2    H     H_    0.780568 0.869153 0.669293 0.140473
H3    H     H_    0.886360 0.875625 0.268968 0.146916
H4    H     H_    0.113640 0.124374 0.731033 0.146917
H5    H     H_    0.875891 0.964271 0.189681 0.152864
H6    H     H_    0.124109 0.035728 0.810320 0.152865
H7    H     H_    0.122912 0.879885 0.228609 0.182373
H8    H     H_    0.877088 0.120115 0.771391 0.182372
H9    H     H_    0.871526 0.115127 0.226877 0.171544
H10   H     H_    0.128473 0.884870 0.773122 0.171544
H11   H     H_    0.050127 0.877695 0.302884 0.138406
H12   H     H_    0.949872 0.122306 0.697117 0.138405
H13   H     H_    0.949440 0.128980 0.305228 0.142325
H14   H     H_    0.050558 0.871020 0.694771 0.142324
H15   H     H_    0.774533 0.877271 0.323861 0.140844
H16   H     H_    0.225468 0.122727 0.676140 0.140844
H17   H     H_    0.127591 0.176103 0.139235 0.180268
H18   H     H_    0.872409 0.823898 0.860765 0.180268
H19   H     H_    0.870162 0.854072 0.133269 0.146930
H20   H     H_    0.129838 0.145926 0.866732 0.146930
H21   H     H_    0.114255 0.770012 0.173306 0.146455
H22   H     H_    0.885745 0.229987 0.826695 0.146454
H23   H     H_    0.872807 0.229196 0.175555 0.153515
H24   H     H_    0.127191 0.770801 0.824444 0.153515
H25   H     H_    0.160976 0.876282 0.359080 0.141856
H26   H     H_    0.839021 0.123720 0.640921 0.141855
H27   H     H_    0.837320 0.128080 0.361017 0.140256
H28   H     H_    0.162678 0.871922 0.638982 0.140256
H29   H     H_    0.109098 0.134235 0.275232 0.136169
H30   H     H_    0.890904 0.865763 0.724767 0.136168
O1    O     O_R   0.591150 0.068800 0.545430 -0.616214
O2    O     O_R   0.408850 0.931200 0.454570 -0.616213
O3    O     O_R   0.588750 0.931200 0.454570 -0.615720
O4    O     O_R   0.411250 0.068800 0.545430 -0.615719
O5    O     O_R   0.590220 0.070350 0.455860 -0.615725
O6    O     O_R   0.409780 0.929650 0.544140 -0.615724
O7    O     O_R   0.589680 0.929650 0.544140 -0.616041
O8    O     O_R   0.410320 0.070350 0.455860 -0.616040
O9    O     O_R   0.065580 0.596830 0.043410 -0.612622
O10   O     O_R   0.934420 0.403170 0.956590 -0.612621
O11   O     O_R   0.928990 0.412290 0.044840 -0.613878
O12   O     O_R   0.071010 0.587710 0.955160 -0.613879
O13   O     O_R   0.069930 0.417270 0.047240 -0.613376
O14   O     O_R   0.930070 0.582730 0.952760 -0.613377
O15   O     O_R   0.924640 0.591850 0.041010 -0.615468
O16   O     O_R   0.075360 0.408150 0.958990 -0.615468
Zn1   Zn    Zn3+2 0.500990 0.093570 0.500870 0.968956
Zn2   Zn    Zn3+2 0.499010 0.906430 0.499130 0.968956
Zn3   Zn    Zn3+2 0.094790 0.503330 0.001610 0.979635
Zn4   Zn    Zn3+2 0.905210 0.496670 0.998390 0.979635
Cl1   Cl    Cl    0.167715 0.039192 0.189885 -0.648256
Cl2   Cl    Cl    0.832285 0.960808 0.810115 -0.648255

loop_
_geom_bond_atom_site_label_1
_geom_bond_atom_site_label_2
_ccdc_geom_bond_type
C16   C28   A    
C66   C68   A    
C6    H8    S    
O12   Zn3   S    
C5    C37   A    
C17   C29   A    
C60   O10   A    
C8    H22   S    
O4    Zn1   S    
C19   C31   A    
C71   H17   S    
C47   C49   T    
O15   Zn4   S    
C31   C67   A    
C2    O8    A    
C63   H1    S    
C20   C32   A    
C72   H18   S    
C57   C59   S    
C21   C33   S    
C58   C60   S    
C22   C38   S    
C67   H15   S    
C23   C43   S    
C10   H10   S    
C69   C71   A    
C21   C25   S    
C45   H29   S    
C53   C61   S    
C39   C55   S    
C4    C40   A    
C65   C67   A    
C61   O11   A    
C68   H16   S    
C6    C38   A    
C18   C30   A    
C12   C36   A    
C31   C41   S    
C1    C50   S    
C34   C70   A    
C12   H24   S    
C36   C52   S    
O16   Zn3   S    
C33   C69   A    
C32   C68   A    
O10   Zn4   S    
C70   Cl2   S    
C48   C50   T    
C69   Cl1   S    
C74   H6    S    
O7    Zn2   S    
C9    C33   A    
C41   C43   T    
C13   C25   A    
C42   C44   T    
C66   H4    S    
C52   C54   T    
C64   H2    S    
C24   O4    A    
C22   C34   S    
C65   H3    S    
C61   O13   A    
C32   C42   S    
O1    Zn1   S    
C24   O6    A    
C14   H12   S    
C3    H19   S    
C5    C7    A    
C16   H26   S    
C6    C8    A    
C54   C62   S    
C40   C56   S    
C46   H30   S    
C45   C63   A    
C18   H14   S    
C2    O2    A    
C46   C64   A    
C51   C53   T    
C62   O12   A    
C2    C49   S    
C5    H7    S    
C15   C27   A    
O9    Zn3   S    
C59   O9    A    
C23   O3    A    
O2    Zn2   S    
C73   H5    S    
C21   C37   S    
C10   C34   A    
O14   Zn4   S    
C14   C26   A    
C9    C11   A    
C30   C66   A    
C10   C12   A    
C9    H9    S    
C29   C65   A    
C28   C64   A    
C55   C57   T    
C35   C51   S    
C24   C44   S    
C14   C16   A    
C25   C45   A    
C38   C74   A    
C27   C47   S    
C37   C73   A    
C28   C48   S    
C59   O15   A    
O11   Zn4   S    
C22   C30   S    
C17   H13   S    
C4    C74   A    
C15   H25   S    
C7    H21   S    
C11   H23   S    
C13   C15   A    
O13   Zn3   S    
O8    Zn1   S    
O6    Zn2   S    
C19   H27   S    
O5    Zn1   S    
C4    H20   S    
C21   C29   S    
C11   C35   A    
C17   C19   A    
C56   C58   T    
C60   O16   A    
C18   C20   A    
C3    C73   A    
C62   O14   A    
C26   C46   A    
C35   C71   A    
C20   H28   S    
C22   C26   S    
C13   H11   S    
C7    C39   A    
C27   C63   A    
C70   C72   A    
C8    C40   A    
O3    Zn2   S    
C1    O7    A    
C3    C39   A    
C36   C72   A    
C23   O5    A    
C1    O1    A    
