data_mof_unit_47841.cif
_audit_creation_date              2013-03-05T15:49:31-0500
_audit_creation_method            fapswitch 2.2
_symmetry_space_group_name_H-M    P1
_symmetry_Int_Tables_number       1
_space_group_crystal_system       triclinic
_cell_length_a                    10.610279
_cell_length_b                    12.121076
_cell_length_c                    12.795308
_cell_angle_alpha                 92.179289
_cell_angle_beta                  91.875382
_cell_angle_gamma                 84.537924
_cell_volume                      1636.22139202

loop_
_atom_site_label
_atom_site_type_symbol
_atom_site_description
_atom_site_fract_x
_atom_site_fract_y
_atom_site_fract_z
_atom_type_partial_charge
O1    O     O_R   0.506170 0.421700 0.658830 -0.575146
O2    O     O_R   0.493830 0.578300 0.341170 -0.570330
O3    O     O_R   0.491330 0.609310 0.646410 -0.566862
O4    O     O_R   0.508670 0.390690 0.353590 -0.559660
C1    C     C_R   0.498436 0.521275 0.699952 0.879631
C2    C     C_R   0.500249 0.479080 0.300422 0.859383
O5    O     O_R   0.690650 0.406190 0.506220 -0.558490
O6    O     O_R   0.309350 0.593810 0.493780 -0.544324
O7    O     O_R   0.675800 0.593810 0.493800 -0.586469
O8    O     O_R   0.324200 0.406190 0.506200 -0.597656
C3    C     C_R   0.738310 0.496501 0.482583 0.879590
C4    C     C_R   0.259464 0.502756 0.512384 0.870331
Zn1   Zn    Zn3+2 0.509910 0.374730 0.508290 1.092278
Zn2   Zn    Zn3+2 0.490090 0.625270 0.491710 1.094223
C5    C     C_R   0.912786 0.286064 0.458544 0.558611
C6    C     C_R   0.078829 0.711785 0.519574 0.568122
C7    C     C_R   0.978466 0.194071 0.503838 0.505593
C8    C     C_R   0.011492 0.801865 0.471944 0.501460
C9    C     C_R   0.084378 0.206634 0.569652 -0.166027
C10   C     C_R   0.906063 0.786555 0.406275 -0.165931
C11   C     C_R   0.130519 0.310936 0.580181 -0.152957
C12   C     C_R   0.862454 0.681300 0.397394 -0.164552
C13   C     C_R   0.068798 0.403666 0.529435 -0.020033
C14   C     C_R   0.926549 0.591159 0.449875 -0.024695
C15   C     C_R   0.950360 0.393286 0.481008 -0.117121
C16   C     C_R   0.044579 0.603089 0.498552 -0.112841
C17   C     C_R   0.122205 0.506127 0.525328 -0.092280
C18   C     C_R   0.872784 0.490542 0.458298 -0.097659
H1    H     H_    0.213266 0.319525 0.629958 0.213157
H2    H     H_    0.778671 0.669290 0.349182 0.208721
C19   C     C_R   0.483607 0.469178 0.190207 -0.085672
C20   C     C_R   0.499853 0.535568 0.811312 -0.096203
C21   C     C_R   0.612498 0.598091 0.964943 -0.010202
C22   C     C_R   0.330145 0.467918 0.047672 -0.013449
C23   C     C_R   0.592571 0.596728 0.857623 -0.226543
C24   C     C_R   0.362220 0.453200 0.152209 -0.190906
C25   C     C_R   0.412052 0.487954 0.870729 -0.073096
C26   C     C_R   0.575918 0.503402 0.127016 -0.085999
C27   C     C_R   0.424626 0.496809 0.980339 0.101896
C28   C     C_R   0.539463 0.533266 0.024841 0.119172
H3    H     H_    0.290171 0.435797 0.206098 0.161641
H4    H     H_    0.652054 0.640706 0.809335 0.187471
N1    N     N_R   0.523130 0.207800 0.519340 -0.184000
N2    N     N_R   0.476870 0.792200 0.480660 -0.180277
C29   C     C_R   0.367301 0.963697 0.415167 0.591054
C30   C     C_R   0.633701 0.036537 0.584169 0.600562
C31   C     C_R   0.380741 0.846834 0.419716 -0.086381
C32   C     C_R   0.620158 0.153350 0.579183 -0.098966
C33   C     C_R   0.559653 0.854071 0.535332 0.805178
C34   C     C_R   0.440347 0.145954 0.464875 0.817615
C35   C     C_R   0.549024 0.972332 0.530229 -0.309035
C36   C     C_R   0.451386 0.027724 0.469772 -0.303244
C37   C     C_2   0.839967 0.880564 0.349785 0.566431
H5    H     H_    0.881428 0.958689 0.348110 0.188072
O9    O     O_2   0.738601 0.871764 0.303680 -0.541903
C38   C     C_2   0.146772 0.111346 0.626654 0.576252
H6    H     H_    0.102248 0.034758 0.628474 0.190034
O10   O     O_2   0.248147 0.117567 0.673501 -0.553308
F1    F     F_    0.272112 0.014705 0.355404 -0.591828
F2    F     F_    0.729747 0.986002 0.643350 -0.593147
F3    F     F_    0.815614 0.269481 0.389635 -0.628060
F4    F     F_    0.171007 0.732650 0.591855 -0.623094
F5    F     F_    0.933652 0.093971 0.487630 -0.632783
F6    F     F_    0.052568 0.903433 0.487703 -0.634109
C39   C     C_2   0.710876 0.493071 0.165402 0.532691
H7    H     H_    0.734151 0.496607 0.248466 0.018657
O11   O     O_2   0.797364 0.473904 0.104707 -0.545706
C40   C     C_2   0.316835 0.422087 0.816546 0.531575
H8    H     H_    0.266296 0.454131 0.747518 0.018992
O12   O     O_2   0.297572 0.330940 0.846685 -0.523940
C41   C     C_2   0.700050 0.676814 0.010589 0.531386
H9    H     H_    0.774086 0.703430 0.963462 0.098142
O13   O     O_2   0.686391 0.717212 0.098846 -0.527250
C42   C     C_2   0.193398 0.470334 0.018518 0.506371
H10   H     H_    0.133799 0.418299 0.058354 0.107527
O14   O     O_2   0.144468 0.535297 0.955096 -0.547153
F7    F     F_    0.348028 0.199413 0.404703 -0.583945
F8    F     F_    0.651855 0.800660 0.595652 -0.588815
C43   C     C_2   0.718900 0.209731 0.639664 0.572151
H11   H     H_    0.811559 0.165886 0.652797 0.101793
O15   O     O_2   0.698467 0.299603 0.683793 -0.541983
C44   C     C_2   0.283263 0.791204 0.356421 0.561562
H12   H     H_    0.194504 0.837875 0.335222 0.117774
O16   O     O_2   0.300087 0.697538 0.319885 -0.561073

loop_
_geom_bond_atom_site_label_1
_geom_bond_atom_site_label_2
_geom_bond_distance
_ccdc_geom_bond_type
N2    C33   1.366956 A    
C9    C38   1.480251 S    
C37   H5    1.082678 S    
C38   H6    1.082305 S    
C15   C18   1.406161 A    
O5    C3    1.298483 A    
C16   C17   1.415944 A    
C42   O14   1.221196 D    
O1    C1    1.294608 A    
C32   C43   1.485451 S    
C9    C11   1.398829 A    
C14   C16   1.397770 A    
C5    C15   1.411857 A    
C25   C40   1.484694 S    
C33   F8    1.356423 S    
C31   C44   1.488857 S    
O4    Zn1   1.995668 S    
C23   H4    1.085748 S    
C7    C9    1.398581 A    
C40   H8    1.083494 S    
C39   O11   1.221292 D    
C34   C36   1.430287 A    
C13   C17   1.416749 A    
N1    C32   1.392563 A    
C22   C24   1.383313 A    
N2    C31   1.394836 A    
C1    C20   1.428586 S    
C37   O9    1.221339 D    
C2    C19   1.417468 S    
C24   H3    1.086553 S    
O2    C2    1.289141 A    
C6    F4    1.358665 S    
C29   C31   1.413319 A    
C6    C16   1.413531 A    
C30   C32   1.413167 A    
C21   C28   1.416293 A    
C42   H10   1.085795 S    
C4    C17   1.467660 S    
C22   C27   1.419911 A    
C20   C23   1.391320 A    
O4    C2    1.285256 A    
C27   C28   1.429014 A    
C43   O15   1.211924 D    
C29   C36   1.391469 A    
C33   C35   1.430955 A    
C11   H1    1.078472 S    
C30   C35   1.393152 A    
C35   C36   1.406083 A    
O7    Zn2   1.970539 S    
C26   C39   1.493949 S    
O6    C4    1.301679 A    
C5    F3    1.359157 S    
C20   C25   1.400362 A    
O7    C3    1.302359 A    
O3    Zn2   1.995669 S    
O8    C4    1.300586 A    
C22   C42   1.484092 S    
C40   O12   1.221314 D    
C10   C12   1.397350 A    
C44   H12   1.083526 S    
C44   O16   1.210745 D    
C11   C13   1.414693 A    
C12   C14   1.411256 A    
O1    Zn1   1.988285 S    
C34   F7    1.356431 S    
Zn1   N1    2.024876 S    
Zn2   N2    2.024877 S    
C5    C7    1.392717 A    
C29   F1    1.361471 S    
O6    Zn2   1.991733 S    
C12   H2    1.083480 S    
C30   F2    1.361273 S    
C14   C18   1.403883 A    
C10   C37   1.479877 S    
O3    C1    1.284754 A    
O8    Zn1   1.970538 S    
N1    C34   1.365530 A    
C19   C26   1.392781 A    
C41   H9    1.085734 S    
C25   C27   1.405472 A    
C7    F5    1.351116 S    
C26   C28   1.402162 A    
C8    F6    1.350466 S    
C3    C18   1.464661 S    
C21   C23   1.382232 A    
C38   O10   1.221375 D    
C8    C10   1.399267 A    
C13   C15   1.397207 A    
O2    Zn2   1.988284 S    
C21   C41   1.485070 S    
C43   H11   1.083396 S    
O5    Zn1   1.991734 S    
C6    C8    1.395581 A    
C39   H7    1.083424 S    
C41   O13   1.221147 D    
C19   C24   1.389987 A    
