data_mof_unit_11333.cif
_audit_creation_date              2012-12-10T17:53:25-0500
_audit_creation_method            fapswitch 2.2
_symmetry_space_group_name_H-M    P1
_symmetry_Int_Tables_number       1
_space_group_crystal_system       triclinic
_cell_length_a                    23.442275
_cell_length_b                    10.713419
_cell_length_c                    9.868984
_cell_angle_alpha                 89.160911
_cell_angle_beta                  89.533341
_cell_angle_gamma                 91.653196
_cell_volume                      2477.17651965

loop_
_atom_site_label
_atom_site_type_symbol
_atom_type_description
_atom_site_fract_x
_atom_site_fract_y
_atom_site_fract_z
_atom_type_partial_charge
C1    C     C_R   0.503755 0.259875 0.502004 0.874572
C2    C     C_R   0.122552 0.607609 0.525830 0.502675
C3    C     C_R   0.237247 0.501653 0.387003 -0.135708
C4    C     C_R   0.389338 0.498776 0.500740 0.867033
C5    C     C_R   0.296398 0.503389 0.382860 -0.225418
C6    C     C_R   0.327130 0.495446 0.503632 -0.073947
C7    C     C_R   0.298109 0.483819 0.628348 -0.243954
C8    C     C_R   0.238645 0.482212 0.633742 0.214527
C9    C     C_R   0.208405 0.491704 0.511378 0.303844
C10   C     C_R   0.758414 0.440708 0.614771 -0.097845
C11   C     C_R   0.699502 0.442294 0.607171 -0.264876
C12   C     C_R   0.966993 0.273972 0.493983 -0.166359
C13   C     C_R   0.672995 0.504741 0.499661 -0.063048
C14   C     C_R   0.706697 0.568281 0.398390 0.137048
C15   C     C_R   0.766083 0.563658 0.407071 -0.138989
C16   C     C_R   0.494245 0.738956 0.499690 0.878313
C17   C     C_R   0.791661 0.500924 0.514616 0.279571
C18   C     C_R   0.509176 0.106949 0.762580 -0.162093
C19   C     C_R   0.489509 0.043493 0.879035 -0.144225
C20   C     C_R   0.459431 0.930622 0.867613 -0.156441
C21   C     C_R   0.454249 0.875514 0.741181 -0.147662
C22   C     C_R   0.479162 0.933840 0.624186 0.100154
C23   C     C_R   0.026159 0.273574 0.492133 -0.169556
C24   C     C_R   0.498658 0.057861 0.631872 0.095744
C25   C     C_R   0.506476 0.125923 0.507827 -0.120641
C26   C     C_R   0.507618 0.064596 0.383859 -0.214403
C27   C     C_R   0.500310 0.937656 0.380846 -0.218959
C28   C     C_R   0.610666 0.502509 0.499307 0.884760
C29   C     C_R   0.487518 0.871529 0.500536 -0.123951
C30   C     C_R   0.424834 0.336309 0.144041 -0.171877
C31   C     C_R   0.387484 0.256958 0.075213 -0.207369
C32   C     C_R   0.387312 0.257779 0.935024 -0.188225
C33   C     C_R   0.424704 0.337492 0.862954 -0.171508
C34   C     C_R   0.058075 0.385667 0.504154 0.004435
C35   C     C_R   0.463006 0.419432 0.929368 0.150360
C36   C     C_R   0.463074 0.419154 0.074242 0.169487
C37   C     C_R   0.534611 0.578718 0.069662 -0.138275
C38   C     C_R   0.534780 0.578322 0.926286 -0.114486
C39   C     C_R   0.882128 0.609577 0.539053 0.515782
C40   C     C_R   0.879132 0.388849 0.507645 0.503331
C41   C     C_R   0.938671 0.386397 0.508508 -0.004333
C42   C     C_R   0.970316 0.499586 0.522435 -0.022565
C43   C     C_R   0.941799 0.611875 0.538181 -0.052125
C44   C     C_3   0.681958 0.644271 0.283155 -0.417609
C45   C     C_R   0.030369 0.500122 0.519808 -0.054082
C46   C     C_3   0.654811 0.763182 0.333707 -0.803699
C47   C     C_3   0.061321 0.856069 0.565286 -0.337134
C48   C     C_3   0.082416 0.874168 0.710005 -0.763829
C49   C     C_3   0.208837 0.469299 0.770087 -0.416196
C50   C     C_3   0.216922 0.587698 0.852827 -0.841538
C51   C     C_R   0.062424 0.614198 0.531848 -0.053499
C52   C     C_R   0.032747 0.728052 0.548589 0.153555
C53   C     C_R   0.972971 0.724032 0.551749 -0.192717
C54   C     C_R   0.117359 0.385702 0.500971 0.480365
H1    H     H_    0.943591 0.186001 0.483589 0.190898
H2    H     H_    0.562458 0.643678 0.122092 0.148278
H3    H     H_    0.046788 0.185104 0.480569 0.183576
H4    H     H_    0.422123 0.329966 0.251482 0.210258
H5    H     H_    0.358521 0.194385 0.131195 0.161733
H6    H     H_    0.358373 0.195578 0.881588 0.160530
H7    H     H_    0.422595 0.331381 0.755662 0.210995
H8    H     H_    0.563103 0.642316 0.870539 0.158296
H9    H     H_    0.950476 0.810045 0.565154 0.191266
H10   H     H_    0.213576 0.509138 0.293576 0.141676
H11   H     H_    0.317964 0.511834 0.285527 0.171167
H12   H     H_    0.674491 0.393618 0.685375 0.167940
H13   H     H_    0.321593 0.475751 0.722059 0.169310
H14   H     H_    0.778338 0.392621 0.698430 0.153613
H15   H     H_    0.619077 0.741578 0.405203 0.255217
H16   H     H_    0.687258 0.822698 0.385464 0.270606
H17   H     H_    0.637866 0.816562 0.246306 0.236703
H18   H     H_    0.715926 0.673300 0.208945 0.203273
H19   H     H_    0.651100 0.586899 0.224734 0.222250
H20   H     H_    0.045535 0.872772 0.781468 0.239861
H21   H     H_    0.111651 0.799659 0.741123 0.275867
H22   H     H_    0.105385 0.965907 0.717166 0.252466
H23   H     H_    0.793065 0.610303 0.331127 0.142121
H24   H     H_    0.095691 0.873957 0.489205 0.253643
H25   H     H_    0.030645 0.931116 0.544193 0.170281
H26   H     H_    0.262792 0.605697 0.874760 0.254358
H27   H     H_    0.193422 0.576551 0.950604 0.246881
H28   H     H_    0.200049 0.669140 0.796814 0.284840
H29   H     H_    0.162389 0.449509 0.759343 0.211936
H30   H     H_    0.226362 0.388933 0.827017 0.208725
H31   H     H_    0.514805 0.114439 0.288591 0.171381
H32   H     H_    0.534216 0.191562 0.777988 0.170359
H33   H     H_    0.496625 0.083321 0.977904 0.145290
H34   H     H_    0.441828 0.883706 0.957102 0.141196
H35   H     H_    0.430668 0.787420 0.735969 0.161236
H36   H     H_    0.505662 0.891399 0.284819 0.169675
N1    N     N_R   0.852325 0.499478 0.522054 -0.351788
N2    N     N_R   0.147776 0.495060 0.512303 -0.356345
N3    N     N_R   0.499460 0.498800 0.142780 -0.119532
N4    N     N_R   0.499440 0.498720 0.857170 -0.127019
O1    O     O_R   0.500000 0.316780 0.614690 -0.653483
O2    O     O_R   0.583850 0.500050 0.614640 -0.617910
O3    O     O_R   0.583840 0.500030 0.385310 -0.613059
O4    O     O_2   0.853928 0.716360 0.556601 -0.557153
O5    O     O_2   0.848192 0.282096 0.490479 -0.556766
O6    O     O_2   0.144780 0.277415 0.487180 -0.568254
O7    O     O_2   0.156283 0.711120 0.532926 -0.574894
O8    O     O_R   0.500000 0.316750 0.385360 -0.637957
O9    O     O_R   0.416160 0.499970 0.614690 -0.647590
O10   O     O_R   0.416150 0.499950 0.385360 -0.637005
O11   O     O_R   0.500000 0.683250 0.614640 -0.622385
O12   O     O_R   0.500000 0.683220 0.385310 -0.619418
Zn1   Zn    Zn3+2 0.500000 0.500020 0.653130 0.923895
Zn2   Zn    Zn3+2 0.500000 0.499980 0.346870 0.932550

loop_
_geom_bond_atom_site_label_1
_geom_bond_atom_site_label_2
_ccdc_geom_bond_type
C28   O3    A    
C22   C29   A    
C27   C29   A    
C11   C13   A    
C41   C42   A    
C48   H22   S    
C35   C36   A    
C17   N1    S    
C47   H25   S    
C40   O5    S    
C7    C8    A    
C21   H35   S    
C3    H10   S    
O11   Zn1   S    
C12   C23   A    
C26   C27   A    
C37   C38   A    
C18   C24   A    
C49   H30   S    
C19   H33   S    
N3    Zn2   S    
C30   C31   A    
C45   C51   A    
C10   C17   A    
C4    O9    A    
C4    O10   A    
C27   H36   S    
C15   C17   A    
C18   C19   A    
C31   H5    S    
C46   H15   S    
C30   H4    S    
C37   H2    S    
C36   N3    A    
C43   C53   A    
C19   C20   A    
C8    C9    A    
C13   C28   S    
O8    Zn2   S    
C1    O8    A    
C11   H12   S    
C16   O12   A    
C15   H23   S    
C21   C22   A    
C1    C25   S    
O3    Zn2   S    
C48   H21   S    
C54   O6    S    
C9    N2    S    
C39   N1    A    
C44   C46   S    
N4    Zn1   S    
C51   C52   A    
C48   H20   S    
C24   C25   A    
C5    H11   S    
C2    C51   A    
C39   O4    S    
C39   C43   A    
C2    O7    S    
C16   C29   S    
C42   C45   A    
C54   N2    A    
C12   C41   A    
C3    C9    A    
C47   C48   S    
C1    O1    A    
C23   C34   A    
C38   N4    A    
C37   N3    A    
C34   C45   A    
C18   H32   S    
C2    N2    A    
C46   H17   S    
C47   C52   S    
O1    Zn1   S    
C16   O11   A    
C4    C6    S    
C40   C41   A    
O2    Zn1   S    
C34   C54   A    
C22   C24   A    
C42   C43   A    
C32   H6    S    
O10   Zn2   S    
C52   C53   A    
C50   H28   S    
C14   C44   S    
C35   N4    A    
C23   H3    S    
C31   C32   A    
C3    C5    A    
C50   H26   S    
C6    C7    A    
C10   H14   S    
C30   C36   A    
C28   O2    A    
C32   C33   A    
C49   H29   S    
C25   C26   A    
C53   H9    S    
C5    C6    A    
O12   Zn2   S    
C26   H31   S    
C20   H34   S    
C33   C35   A    
C44   H18   S    
C40   N1    A    
C44   H19   S    
C46   H16   S    
C12   H1    S    
C10   C11   A    
C7    H13   S    
C20   C21   A    
C33   H7    S    
C49   C50   S    
C14   C15   A    
O9    Zn1   S    
C47   H24   S    
C13   C14   A    
C8    C49   S    
C50   H27   S    
C38   H8    S    
