data_mof_unit_48776.cif
_audit_creation_date              2012-12-11T19:05:12-0500
_audit_creation_method            fapswitch 2.2
_symmetry_space_group_name_H-M    P1
_symmetry_Int_Tables_number       1
_space_group_crystal_system       triclinic
_cell_length_a                    8.274843
_cell_length_b                    15.046766
_cell_length_c                    22.804527
_cell_angle_alpha                 97.799508
_cell_angle_beta                  88.74618
_cell_angle_gamma                 99.007037
_cell_volume                      2778.42723563

loop_
_atom_site_label
_atom_site_type_symbol
_atom_type_description
_atom_site_fract_x
_atom_site_fract_y
_atom_site_fract_z
_atom_type_partial_charge
Ba1   Ba    Ba6+2 0.856840 0.543240 0.473380 1.664344
Ba2   Ba    Ba6+2 0.332990 0.456840 0.526630 1.683164
C1    C     C_3   0.597140 0.853030 0.313782 -0.037628
C2    C     C_3   0.544424 0.749313 0.307138 0.494261
C3    C     C_3   0.474884 0.310103 0.344530 0.310615
C4    C     C_3   0.488686 0.284465 0.277986 -0.392328
C5    C     C_3   0.960607 0.197242 0.679195 0.430041
C6    C     C_3   0.999998 0.175456 0.739999 0.311687
C7    C     C_3   0.504833 0.213763 0.653517 0.388290
C8    C     C_3   0.463158 0.121380 0.674768 -0.371401
C9    C     C_R   0.350544 0.510568 0.330360 -0.303966
C10   C     C_R   0.147520 0.548955 0.936435 -0.021593
C11   C     C_R   0.094083 0.548298 0.877676 0.599123
C12   C     C_3   0.002544 0.813079 0.341848 0.326191
C13   C     C_R   0.981485 0.390700 0.872649 0.602358
C14   C     C_R   0.026122 0.390346 0.932239 -0.027068
C15   C     C_R   0.109733 0.470021 0.964252 -0.053689
C16   C     C_R   0.236935 0.627147 0.968293 -0.077614
C17   C     C_R   0.286966 0.627014 0.026424 -0.077877
C18   C     C_R   0.246734 0.549184 0.055164 -0.014982
C19   C     C_R   0.157000 0.470630 0.024159 -0.053250
C20   C     C_R   0.989119 0.311958 0.960606 -0.098978
C21   C     C_R   0.031708 0.313321 0.019932 -0.076965
C22   C     C_R   0.115792 0.392588 0.052651 -0.025176
C23   C     C_3   0.012756 0.878190 0.294935 0.216138
C24   C     C_R   0.159616 0.395623 0.113005 0.587589
C25   C     C_R   0.294554 0.548918 0.114248 0.577258
C26   C     C_2   0.789094 0.437042 0.771411 0.370557
C27   C     C_3   0.747447 0.418157 0.704910 -0.135102
C28   C     C_1   0.003285 0.516475 0.686144 0.040201
C29   C     C_2   0.060846 0.506562 0.738885 -0.172742
C30   C     C_2   0.948335 0.469913 0.786172 0.192897
C31   C     C_R   0.442910 0.515120 0.229169 -0.078659
C32   C     C_R   0.473519 0.533099 0.290393 -0.014240
C33   C     C_R   0.195672 0.469572 0.311036 0.032446
C34   C     C_3   0.235818 0.739195 0.606773 0.324323
C35   C     C_R   0.160534 0.454187 0.249522 -0.112972
C36   C     C_R   0.283714 0.478915 0.207381 0.201078
C37   C     C_2   0.849897 0.485218 0.670138 -0.262120
C38   C     C_R   0.339936 0.826786 0.471662 0.039927
C39   C     C_R   0.577437 0.792415 0.516614 0.021958
C40   C     C_R   0.754985 0.231539 0.523188 -0.280710
C41   C     C_R   0.846086 0.172755 0.544585 -0.020054
C42   C     C_R   0.786470 0.079679 0.538909 -0.148482
C43   C     C_R   0.633283 0.044013 0.511180 0.016712
C44   C     C_R   0.545819 0.105172 0.487424 -0.035337
C45   C     C_3   0.242100 0.841224 0.623580 -0.355706
C46   C     C_R   0.565639 0.949672 0.504526 0.007927
C47   C     C_R   0.408324 0.919863 0.478060 -0.000543
C48   C     C_R   0.324616 0.983023 0.457356 -0.065119
C49   C     C_R   0.394876 0.072454 0.459651 -0.078903
C50   C     C_R   0.647837 0.883644 0.523645 -0.154945
C51   C     C_R   0.428735 0.763856 0.488347 -0.285501
C52   C     C_R   0.611221 0.198069 0.491704 0.020304
C53   C     C_3   0.964984 0.264682 0.401785 0.362046
C54   C     C_3   0.922477 0.162075 0.383873 -0.035387
C55   C     C_3   0.763260 0.802362 0.654443 0.715136
C56   C     C_3   0.646541 0.867756 0.679459 -0.403608
H1    H     H_    0.478156 0.732238 0.348262 -0.022356
H2    H     H_    0.285611 0.862295 0.669773 0.128852
H3    H     H_    0.325993 0.878990 0.593914 0.043525
H4    H     H_    0.119204 0.860062 0.619828 0.131823
H5    H     H_    0.855828 0.291616 0.420556 -0.044659
H6    H     H_    0.063038 0.278780 0.435495 0.066989
H7    H     H_    0.818118 0.146911 0.352291 0.089811
H8    H     H_    0.881502 0.130007 0.423685 0.004007
H9    H     H_    0.842626 0.837729 0.622370 -0.007334
H10   H     H_    0.662430 0.874376 0.356660 0.053215
H11   H     H_    0.714812 0.926583 0.708195 0.118688
H12   H     H_    0.546658 0.833391 0.705446 0.101279
H13   H     H_    0.590947 0.894062 0.642954 0.039067
H14   H     H_    0.344355 0.312738 0.355808 0.032537
H15   H     H_    0.549431 0.378025 0.356885 0.035870
H16   H     H_    0.424014 0.214492 0.264535 0.123185
H17   H     H_    0.432890 0.331886 0.254466 0.074187
H18   H     H_    0.619479 0.287729 0.265059 0.126878
H19   H     H_    0.681702 0.868741 0.277176 0.118934
H20   H     H_    0.140187 0.914155 0.292967 0.055180
H21   H     H_    0.919989 0.264927 0.684536 -0.143904
H22   H     H_    0.860568 0.143765 0.660009 -0.052956
H23   H     H_    0.096220 0.230478 0.760499 0.065643
H24   H     H_    0.886371 0.173571 0.767173 0.009101
H25   H     H_    0.640237 0.230467 0.651789 -0.115807
H26   H     H_    0.454312 0.208829 0.608263 0.083406
H27   H     H_    0.523900 0.070815 0.645914 0.063176
H28   H     H_    0.329174 0.098546 0.672733 0.189581
H29   H     H_    0.905971 0.829506 0.374141 0.016155
H30   H     H_    0.506155 0.125185 0.720970 0.096763
H31   H     H_    0.998802 0.251790 0.040065 0.115147
H32   H     H_    0.924888 0.249378 0.937191 0.104624
H33   H     H_    0.355874 0.688806 0.049108 0.113695
H34   H     H_    0.540868 0.534061 0.198918 0.122606
H35   H     H_    0.268989 0.688895 0.948321 0.116364
H36   H     H_    0.187025 0.533371 0.750409 0.153236
H37   H     H_    0.038269 0.424148 0.234832 0.113615
H38   H     H_    0.376892 0.524279 0.377288 0.077721
H39   H     H_    0.971197 0.741833 0.320989 0.122912
H40   H     H_    0.793229 0.512976 0.635613 0.086055
H41   H     H_    0.377277 0.692513 0.482405 0.062408
H42   H     H_    0.205076 0.964534 0.437407 0.102318
H43   H     H_    0.765618 0.900877 0.544548 0.070844
H44   H     H_    0.803300 0.303183 0.526740 0.064672
H45   H     H_    0.863112 0.037666 0.556088 0.074078
H46   H     H_    0.326683 0.115135 0.439126 0.124340
H47   H     H_    0.934639 0.930984 0.308535 -0.012590
H48   H     H_    0.362032 0.724089 0.601908 -0.004654
H49   H     H_    0.167135 0.717899 0.564589 0.037938
N1    N     N_R   0.008284 0.470130 0.846500 -0.402174
N2    N     N_R   0.245627 0.474124 0.144070 -0.422135
O1    O     O_2   0.889550 0.449620 0.359410 -0.456363
O2    O     O_3   0.675003 0.718507 0.628039 -0.647511
O3    O     O_3   0.156442 0.821040 0.367894 -0.660242
O4    O     O_2   0.300150 0.550410 0.640630 -0.449531
O5    O     O_3   0.059590 0.549510 0.569530 -0.489096
O6    O     O_3   0.515610 0.383640 0.601250 -0.463058
O7    O     O_3   0.159396 0.695390 0.652337 -0.610200
O8    O     O_3   0.613300 0.389650 0.468010 -0.470207
O9    O     O_3   0.096810 0.336470 0.571300 -0.465726
O10   O     O_2   0.180282 0.176398 0.533063 -0.493201
O11   O     O_3   0.101330 0.198216 0.643725 -0.566340
O12   O     O_3   0.130120 0.450560 0.430480 -0.496959
O13   O     O_3   0.576410 0.610420 0.531990 -0.452075
O14   O     O_2   0.341630 0.276020 0.466390 -0.471506
O15   O     O_3   0.532413 0.244129 0.372848 -0.650047
O16   O     O_2   0.417370 0.453135 0.706820 -0.474381
O17   O     O_3   0.435789 0.279101 0.692003 -0.598915
O18   O     O_2   0.122979 0.617726 0.854646 -0.624251
O19   O     O_2   0.919906 0.319678 0.843823 -0.657519
O20   O     O_2   0.123137 0.327845 0.137443 -0.605661
O21   O     O_2   0.379996 0.616224 0.139037 -0.621811
O22   O     O_3   0.674100 0.616440 0.398760 -0.479958
O23   O     O_2   0.817512 0.563607 0.296401 -0.484827
O24   O     O_3   0.014421 0.304530 0.351377 -0.645590
O25   O     O_3   0.689456 0.710676 0.299791 -0.608670
O26   O     O_2   0.848070 0.724010 0.533650 -0.468860
O27   O     O_3   0.092910 0.663610 0.428710 -0.478464
O28   O     O_2   0.003990 0.827775 0.470824 -0.519837
P1    P     P_3+3 0.056010 0.422560 0.367570 0.990506
P2    P     P_3+3 0.670430 0.710550 0.550450 0.988539
P3    P     P_3+3 0.140925 0.782682 0.437078 0.921125
P4    P     P_3+3 0.133710 0.577520 0.632440 1.027391
P5    P     P_3+3 0.053146 0.219394 0.573216 0.969532
P6    P     P_3+3 0.662917 0.601863 0.321111 0.968749
P7    P     P_3+3 0.526550 0.275763 0.449479 0.939220
P8    P     P_3+3 0.529618 0.386706 0.677728 0.985425
N3    N     N_2   0.063702 0.124006 0.358753 -0.416351
H50   H     H_    0.077708 0.064347 0.374189 0.178499
C57   C     C_3   0.082207 0.118551 0.295075 -0.187376
H51   H     H_    0.188821 0.084619 0.280742 0.071497
H52   H     H_    0.104660 0.187042 0.281050 0.161244
H53   H     H_    0.971241 0.078801 0.272492 0.087115
O29   O     O_3   0.870270 0.789039 0.699204 -0.654289
C58   C     C_3   0.794174 0.727651 0.737022 0.280383
H54   H     H_    0.770056 0.657605 0.712989 0.058287
H55   H     H_    0.677786 0.747108 0.755853 0.036616
C59   C     C_3   0.908345 0.727418 0.788176 -0.318250
H56   H     H_    0.852623 0.676735 0.816834 0.113400
H57   H     H_    0.929639 0.795558 0.814935 0.110344
H58   H     H_    0.027306 0.709552 0.770953 0.170796
N4    N     N_2   0.444017 0.717809 0.254721 -0.424751
H59   H     H_    0.485163 0.745161 0.217022 0.232142
C60   C     C_3   0.268316 0.701382 0.262012 -0.191135
H60   H     H_    0.218624 0.763685 0.258123 0.136385
H61   H     H_    0.233090 0.675623 0.304559 0.096836
H62   H     H_    0.211257 0.650128 0.226194 0.154238
N5    N     N_2   0.463307 0.903909 0.311714 -0.415865
H63   H     H_    0.401072 0.888155 0.272198 0.195365
C61   C     C_3   0.512454 0.001172 0.324256 -0.229910
H64   H     H_    0.402275 0.034925 0.330025 0.122580
H65   H     H_    0.586577 0.026858 0.287094 0.093033
H66   H     H_    0.586016 0.019108 0.365466 0.115722
O30   O     O_3   0.054720 0.090401 0.733951 -0.645188
C62   C     C_3   0.096660 0.071436 0.790100 0.257817
H67   H     H_    0.986725 0.064579 0.819168 0.042167
H68   H     H_    0.192561 0.125613 0.811691 0.037991
C63   C     C_3   0.164467 0.982290 0.782737 -0.333814
H69   H     H_    0.278872 0.988556 0.756243 0.112671
H70   H     H_    0.191830 0.964650 0.826805 0.065424
H71   H     H_    0.073609 0.927122 0.759856 0.170583
O31   O     O_3   0.673433 0.434717 0.816810 -0.643451
C64   C     C_3   0.571636 0.349774 0.814480 0.312543
H72   H     H_    0.627354 0.292519 0.790188 0.045808
H73   H     H_    0.453430 0.354131 0.794140 0.093171
C65   C     C_3   0.530880 0.329427 0.877227 -0.325658
H74   H     H_    0.468688 0.383695 0.901534 0.119354
H75   H     H_    0.447761 0.263599 0.875691 0.053519
H76   H     H_    0.643496 0.325309 0.901503 0.148916
O32   O     O_3   0.961234 0.828930 0.239423 -0.642282
C66   C     C_3   0.998674 0.882473 0.192954 0.284731
H77   H     H_    0.048241 0.839632 0.155443 0.074620
H78   H     H_    0.093534 0.943501 0.203907 -0.004211
C67   C     C_3   0.844068 0.911618 0.171884 -0.355056
H79   H     H_    0.798303 0.960674 0.206578 0.093317
H80   H     H_    0.871434 0.945016 0.131499 0.076540
H81   H     H_    0.747779 0.851532 0.161314 0.138469

loop_
_geom_bond_atom_site_label_1
_geom_bond_atom_site_label_2
_ccdc_geom_bond_type
C9    H38   S    
O12   P1    S    
C52   P7    S    
C53   C54   S    
C8    H27   S    
O3    P3    S    
C17   C18   A    
C9    C32   A    
C57   H53   S    
O27   P3    S    
Ba1   O26   S    
C45   H4    S    
Ba2   O9    S    
C23   H47   S    
C5    C6    S    
C2    N4    S    
Ba2   O14   S    
C51   H41   S    
O26   P2    D    
C3    O15   S    
C8    H30   S    
C38   C47   A    
C28   P4    S    
C6    H24   S    
C3    C4    S    
C5    H21   S    
C26   C27   S    
C33   C35   A    
C22   C24   A    
O13   P2    S    
C16   C17   A    
C3    H14   S    
C33   P1    S    
C27   P8    S    
C28   C29   D    
Ba2   O4    S    
C56   H13   S    
C43   C46   A    
C54   H7    S    
C55   O29   S    
C65   H74   S    
C35   H37   S    
C34   C45   S    
Ba1   Ba2   S    
Ba2   P4    S    
C66   H78   S    
Ba1   O13   S    
C45   H2    S    
O17   P8    S    
C63   H71   S    
C8    H28   S    
C1    H10   S    
O4    P4    D    
C14   C15   A    
C53   H5    S    
O14   P7    D    
C21   C22   A    
C21   H31   S    
C63   H69   S    
C58   H55   S    
Ba1   O27   S    
C7    C8    S    
C39   C50   A    
C60   H61   S    
Ba1   P2    S    
C25   O21   D    
O23   P6    D    
C63   H70   S    
O25   P6    S    
C6    O30   S    
O24   P1    S    
C62   H67   S    
C34   H49   S    
N5    C61   S    
C44   C52   A    
C55   H9    S    
C11   N1    Am   
C40   H44   S    
Ba1   O22   S    
C42   H45   S    
C4    H16   S    
N3    C57   S    
Ba2   O13   S    
C50   H43   S    
O28   P3    D    
C24   O20   D    
C32   P6    S    
N3    H50   S    
O2    P2    S    
C23   H20   S    
O5    P4    S    
C4    H17   S    
O8    P7    S    
O11   P5    S    
C57   H51   S    
C31   H34   S    
C56   H12   S    
C37   H40   S    
C48   C49   A    
C49   H46   S    
C64   H72   S    
C34   H48   S    
C44   C49   A    
C15   C19   A    
C6    H23   S    
O32   C66   S    
C36   N2    S    
N4    C60   S    
C13   N1    Am   
C10   C15   A    
C66   C67   S    
C12   O3    S    
C41   C42   A    
C67   H81   S    
C54   N3    S    
C45   H3    S    
C35   C36   A    
C23   O32   S    
Ba1   O1    S    
C60   H62   S    
Ba2   O6    S    
C29   C30   S    
C26   C30   D    
C46   C47   A    
C53   H6    S    
C27   C37   S    
C31   C32   A    
C20   H32   S    
Ba1   O8    S    
C18   C19   A    
C58   C59   S    
C26   O31   S    
C24   N2    Am   
C39   C51   A    
C62   H68   S    
C7    H25   S    
O1    P1    D    
C61   H64   S    
C47   C48   A    
C13   O19   D    
C30   N1    S    
N5    H63   S    
Ba1   O5    S    
C1    C2    S    
C34   O7    S    
O22   P6    S    
O30   C62   S    
C12   H39   S    
C2    O25   S    
C60   H60   S    
Ba2   O12   S    
C16   H35   S    
C59   H56   S    
C14   C20   A    
C64   C65   S    
C5    O11   S    
C59   H58   S    
C42   C43   A    
C31   C36   A    
C57   H52   S    
O9    P5    S    
C12   H29   S    
C56   H11   S    
C4    H18   S    
C18   C25   A    
C29   H36   S    
Ba2   O8    S    
O6    P8    S    
C48   H42   S    
C7    O17   S    
C65   H76   S    
C61   H65   S    
C67   H79   S    
C59   H57   S    
C53   O24   S    
N4    H59   S    
Ba2   O5    S    
C55   C56   S    
C55   O2    S    
C54   H8    S    
C38   P3    S    
C2    H1    S    
C9    C33   A    
C62   C63   S    
C65   H75   S    
C28   C37   D    
C12   C23   S    
C3    H15   S    
C66   H77   S    
Ba1   O12   S    
C39   P2    S    
C17   H33   S    
Ba1   P1    S    
C7    H26   S    
O7    P4    S    
C11   O18   D    
C43   C44   A    
C64   H73   S    
C10   C11   A    
C25   N2    Am   
C38   C51   A    
C40   C41   A    
C19   C22   A    
C10   C16   A    
O10   P5    D    
C20   C21   A    
O15   P7    S    
C41   P5    S    
O16   P8    D    
O29   C58   S    
C61   H66   S    
C58   H54   S    
C46   C50   A    
C40   C52   A    
O31   C64   S    
C13   C14   A    
C1    N5    S    
C67   H80   S    
C5    H22   S    
C1    H19   S    
