data_mof_unit_30785.cif
_audit_creation_date              2012-12-10T17:03:38-0500
_audit_creation_method            fapswitch 2.2
_symmetry_space_group_name_H-M    P1
_symmetry_Int_Tables_number       1
_space_group_crystal_system       triclinic
_cell_length_a                    10.0159
_cell_length_b                    10.709741
_cell_length_c                    13.203331
_cell_angle_alpha                 89.833418
_cell_angle_beta                  69.7233
_cell_angle_gamma                 89.1923
_cell_volume                      1328.38829646

loop_
_atom_site_label
_atom_site_type_symbol
_atom_type_description
_atom_site_fract_x
_atom_site_fract_y
_atom_site_fract_z
_atom_type_partial_charge
C1    C     C_R   0.496509 0.737380 0.505566 0.934401
C2    C     C_R   0.370339 0.493428 0.822637 -0.241269
C3    C     C_2   0.580563 0.066228 0.551264 0.483249
C4    C     C_R   0.420502 0.502977 0.704502 0.922124
C5    C     C_2   0.504962 0.129900 0.501199 -0.345512
C6    C     C_2   0.589148 0.930876 0.541121 -0.286511
C7    C     C_2   0.483342 0.868074 0.526336 -0.372404
C8    C     C_2   0.106228 0.432643 0.433882 0.356755
C9    C     C_2   0.961966 0.456278 0.420561 0.342074
C10   C     C_R   0.500460 0.262441 0.501651 0.979744
C11   C     C_R   0.579225 0.498915 0.295982 0.873487
C12   C     C_R   0.454262 0.465849 0.973622 -0.004922
C13   C     C_R   0.779570 0.594793 0.012667 -0.187056
C14   C     C_R   0.628747 0.503402 0.179003 -0.098064
C15   C     C_R   0.246331 0.425983 0.876860 0.391759
C16   C     C_R   0.232815 0.368128 0.975675 0.261179
C17   C     C_R   0.346799 0.374579 0.015750 0.266631
C18   C     C_R   0.464031 0.526569 0.876497 -0.059969
C19   C     C_R   0.556252 0.495827 0.022104 0.137817
C20   C     C_R   0.675535 0.570379 0.966603 0.151801
C21   C     C_R   0.682095 0.629355 0.871242 -0.228467
C22   C     C_R   0.572615 0.614559 0.831102 -0.118367
C23   C     C_R   0.533438 0.467133 0.129479 -0.169699
C24   C     C_R   0.756708 0.560134 0.119033 -0.150552
H1    H     H_    0.831952 0.587841 0.156850 0.179013
H2    H     H_    0.767577 0.692758 0.831034 0.143817
H3    H     H_    0.873071 0.648312 0.969331 0.154719
H4    H     H_    0.433030 0.429748 0.179849 0.240457
H5    H     H_    0.063257 0.364445 0.875801 0.388326
H6    H     H_    0.310050 0.208942 0.080934 0.359002
H7    H     H_    0.101631 0.291274 0.104673 0.350356
H8    H     H_    0.700419 0.064591 0.639598 0.329525
H9    H     H_    0.382078 0.911968 0.533549 0.161244
H10   H     H_    0.575401 0.671004 0.762240 0.150378
H11   H     H_    0.448690 0.085309 0.454500 0.118140
H12   H     H_    0.684743 0.883657 0.543599 0.177037
H13   H     H_    0.144393 0.286053 0.342229 0.332574
H14   H     H_    0.083127 0.571830 0.537772 0.095399
H15   H     H_    0.039251 0.423130 0.267277 0.316178
H16   H     H_    0.864963 0.510298 0.572426 0.115727
N1    N     N_2   0.148270 0.498670 0.498870 -0.183281
N2    N     N_2   0.852610 0.498640 0.498840 -0.190456
O1    O     O_R   0.386950 0.680940 0.500020 -0.629220
O2    O     O_3   0.943938 0.429513 0.324056 -0.724250
O3    O     O_3   0.145491 0.411413 0.828021 -0.733848
O4    O     O_3   0.362581 0.284828 0.086435 -0.776167
O5    O     O_3   0.112663 0.299379 0.027441 -0.770985
O6    O     O_3   0.653052 0.127803 0.608022 -0.734228
O7    O     O_R   0.613110 0.680900 0.499980 -0.622296
O8    O     O_R   0.330780 0.500000 0.653640 -0.555587
O9    O     O_R   0.556930 0.499960 0.653610 -0.622157
O10   O     O_R   0.386890 0.319100 0.500020 -0.567773
O11   O     O_R   0.613050 0.319060 0.499980 -0.533146
O12   O     O_R   0.443070 0.500040 0.346390 -0.586900
O13   O     O_R   0.669220 0.500000 0.346360 -0.552486
O14   O     O_3   0.198179 0.341492 0.373676 -0.711414
Zn1   Zn    Zn3+2 0.349000 0.500030 0.500020 1.022817
Zn2   Zn    Zn3+2 0.651000 0.499970 0.499980 1.021257

loop_
_geom_bond_atom_site_label_1
_geom_bond_atom_site_label_2
_ccdc_geom_bond_type
C12   C17   A    
C14   C23   A    
C2    C4    S    
C21   H2    S    
C6    C7    D    
C2    C18   A    
C7    H9    S    
C19   C23   A    
C19   C20   A    
H6    O4    S    
O11   Zn2   S    
C3    C6    S    
C10   O10   A    
C8    O14   S    
H16   N2    S    
N1    Zn1   S    
C5    C10   S    
H13   O14   S    
O9    Zn2   S    
C1    C7    S    
C23   H4    S    
C24   H1    S    
C8    N1    D    
C2    C15   A    
H8    O6    S    
N2    Zn2   S    
C9    N2    D    
H15   O2    S    
C11   O12   A    
C5    H11   S    
C16   O5    S    
C21   C22   A    
C6    H12   S    
C22   H10   S    
C11   C14   S    
C16   C17   A    
O10   Zn1   S    
O1    Zn1   S    
C4    O9    A    
C14   C24   A    
C15   C16   A    
C3    O6    S    
C11   O13   A    
C17   O4    S    
C12   C19   A    
H14   N1    S    
O13   Zn2   S    
C12   C18   A    
C10   O11   A    
C15   O3    S    
C13   H3    S    
C9    O2    S    
H7    O5    S    
C13   C20   A    
C20   C21   A    
C18   C22   A    
O8    Zn1   S    
C1    O7    A    
C1    O1    A    
H5    O3    S    
O7    Zn2   S    
C13   C24   A    
C4    O8    A    
C8    C9    S    
C3    C5    D    
O12   Zn1   S    
