data_mof_unit_17085.cif
_audit_creation_date              2013-03-05T15:56:02-0500
_audit_creation_method            fapswitch 2.2
_symmetry_space_group_name_H-M    P1
_symmetry_Int_Tables_number       1
_space_group_crystal_system       triclinic
_cell_length_a                    12.316524
_cell_length_b                    13.136317
_cell_length_c                    17.209748
_cell_angle_alpha                 104.945983
_cell_angle_beta                  74.67667
_cell_angle_gamma                 116.846516
_cell_volume                      2364.73614989

loop_
_atom_site_label
_atom_site_type_symbol
_atom_site_description
_atom_site_fract_x
_atom_site_fract_y
_atom_site_fract_z
_atom_type_partial_charge
O1    O     O_R   0.025490 0.682370 0.523640 -0.585757
O2    O     O_R   0.194150 0.640180 0.491890 -0.604441
C1    C     C_R   0.144692 0.713981 0.507365 0.771396
O3    O     O_R   0.905900 0.523560 0.631310 -0.528705
O4    O     O_R   0.074570 0.481370 0.599560 -0.608485
C2    C     C_R   0.985878 0.501368 0.652591 0.815797
Cu1   Cu    Cu3+1 0.900140 0.524980 0.518800 0.971191
Cu2   Cu    Cu3+1 0.099860 0.475020 0.481200 0.923398
O5    O     O_R   0.805850 0.359820 0.508110 -0.572117
O6    O     O_R   0.974510 0.317630 0.476360 -0.584027
O7    O     O_R   0.925430 0.518630 0.400440 -0.588830
O8    O     O_R   0.094100 0.476440 0.368690 -0.597162
C3    C     C_R   0.856012 0.286092 0.487844 0.787218
C4    C     C_R   0.015684 0.501320 0.347989 0.815357
C5    C     C_R   0.980171 0.503399 0.739479 -0.158282
C6    C     C_R   0.082231 0.504744 0.762486 -0.245293
C7    C     C_R   0.085681 0.513534 0.843853 -0.157302
C8    C     C_R   0.987528 0.522474 0.904318 0.106816
C9    C     C_R   0.884164 0.518531 0.882353 -0.195098
C10   C     C_R   0.878558 0.508336 0.800488 0.330045
C11   C     C_R   0.004579 0.611068 0.170337 0.339100
C12   C     C_R   0.979446 0.582668 0.247712 -0.266330
C13   C     C_R   0.121199 0.489644 0.203377 -0.221786
C14   C     C_R   0.146035 0.514241 0.124546 0.081354
C15   C     C_R   0.084662 0.572611 0.107373 0.016956
C16   C     C_2   0.987490 0.529770 0.990670 -0.151807
C17   C     C_2   0.091421 0.579371 0.022353 -0.139649
C18   C     C_R   0.036392 0.521462 0.264469 -0.120649
H1    H     H_    0.160819 0.499934 0.717577 0.178346
H2    H     H_    0.918150 0.612140 0.295817 0.199540
H3    H     H_    0.166904 0.443950 0.216743 0.158418
H4    H     H_    0.181185 0.617324 0.985001 0.147352
H5    H     H_    0.806770 0.522261 0.929140 0.174295
H6    H     H_    0.898727 0.493380 0.029888 0.159386
H7    H     H_    0.164585 0.511586 0.858920 0.139941
C19   C     C_R   0.730413 0.986760 0.372207 -0.177157
H8    H     H_    0.908720 0.127459 0.369086 0.157669
H9    H     H_    0.550890 0.787887 0.323628 0.165088
H10   H     H_    0.762493 0.933822 0.320491 0.172023
C20   C     C_R   0.775582 0.163671 0.469589 -0.080020
C21   C     C_R   0.181411 0.919303 0.558634 -0.184310
C22   C     C_R   0.259612 0.036247 0.569317 -0.140762
C23   C     C_R   0.385361 0.072035 0.538701 -0.176306
C24   C     C_R   0.434802 0.990880 0.496553 0.064542
C25   C     C_R   0.352040 0.875991 0.472549 0.078592
C26   C     C_R   0.563630 0.022316 0.472166 0.055248
C27   C     C_R   0.604975 0.950338 0.406145 0.127142
C28   C     C_R   0.520474 0.843199 0.374307 -0.216561
C29   C     C_R   0.396100 0.804932 0.408501 -0.189492
C30   C     C_R   0.653603 0.120346 0.512165 0.007455
C31   C     C_R   0.814250 0.095488 0.401191 -0.216223
C32   C     C_R   0.226599 0.837763 0.510995 -0.102016
H11   H     H_    0.085325 0.892765 0.587344 0.152902
H12   H     H_    0.441831 0.163713 0.544043 0.138635
H13   H     H_    0.223066 0.099258 0.602651 0.147694
H14   H     H_    0.334521 0.722109 0.380573 0.176010
C33   C     C_R   0.642002 0.674610 0.630588 -0.278629
H15   H     H_    0.818140 0.693789 0.645423 0.131762
H16   H     H_    0.440048 0.709962 0.656441 0.153239
H17   H     H_    0.638474 0.742625 0.681314 0.142556
N1    N     N_R   0.749710 0.562810 0.547300 -0.183837
C34   C     C_R   0.249783 0.351635 0.389492 0.076300
C35   C     C_R   0.348104 0.318848 0.365789 -0.243439
C36   C     C_R   0.447929 0.374633 0.407424 -0.184047
C37   C     C_R   0.450661 0.464565 0.473751 -0.002582
C38   C     C_R   0.347363 0.494928 0.496003 0.292333
C39   C     C_R   0.551249 0.525132 0.518914 -0.033029
C40   C     C_R   0.545927 0.614047 0.585107 0.169457
C41   C     C_R   0.444715 0.642091 0.605805 -0.284966
C42   C     C_R   0.347793 0.583833 0.562449 -0.191922
C43   C     C_R   0.657759 0.501934 0.501649 0.027921
C44   C     C_R   0.743614 0.647370 0.610592 0.135721
N2    N     N_R   0.249640 0.437820 0.453210 -0.207406
H18   H     H_    0.669836 0.436173 0.452357 0.123984
H19   H     H_    0.172640 0.307700 0.356899 0.125373
H20   H     H_    0.521320 0.345531 0.386523 0.138922
H21   H     H_    0.346888 0.249851 0.314991 0.153486
H22   H     H_    0.274655 0.611568 0.583789 0.206611
C45   C     C_3   0.234685 0.473567 0.059736 -0.392942
C46   C     C_3   0.165124 0.358165 0.008222 -0.357596
C47   C     C_3   0.254461 0.318197 0.942302 -0.799641
H23   H     H_    0.309317 0.382985 0.900623 0.262041
H24   H     H_    0.318060 0.305646 0.970477 0.260404
H25   H     H_    0.201668 0.234722 0.905996 0.242227
H26   H     H_    0.110015 0.291227 0.048316 0.228193
H27   H     H_    0.100778 0.366705 0.978252 0.227683
H28   H     H_    0.294291 0.540403 0.020254 0.198908
H29   H     H_    0.298224 0.462360 0.088992 0.201964
C48   C     C_3   0.630465 0.164958 0.603821 -0.341837
C49   C     C_3   0.576366 0.067481 0.655117 -0.384480
C50   C     C_3   0.566291 0.115291 0.746279 -0.771028
H30   H     H_    0.659042 0.175049 0.761694 0.263800
H31   H     H_    0.505423 0.162210 0.764062 0.272642
H32   H     H_    0.526117 0.042941 0.781644 0.231062
H33   H     H_    0.482820 0.005090 0.642832 0.231720
H34   H     H_    0.636705 0.020092 0.639037 0.223227
H35   H     H_    0.719269 0.227587 0.623983 0.218242
H36   H     H_    0.572658 0.214004 0.619385 0.219355
N3    N     N_R   0.949591 0.679988 0.156856 0.117656
O9    O     O_R   0.844530 0.676758 0.200554 -0.381856
O10   O     O_R   0.010273 0.755632 0.107584 -0.347334
N4    N     N_R   0.768405 0.500633 0.781163 0.122719
O11   O     O_R   0.705091 0.410245 0.733457 -0.390853
O12   O     O_R   0.718324 0.570814 0.823689 -0.372425

loop_
_geom_bond_atom_site_label_1
_geom_bond_atom_site_label_2
_geom_bond_distance
_ccdc_geom_bond_type
C42   H22   1.063776 S    
C21   C22   1.390305 A    
C9    C10   1.397632 A    
C8    C16   1.464196 S    
C45   H28   1.110581 S    
C47   H23   1.111166 S    
Cu1   Cu2   2.701500 S    
Cu1   O7    1.963060 S    
C16   C17   1.338935 D    
C46   H26   1.111935 S    
O4    C2    1.305303 A    
C11   N3    1.441309 S    
O7    C4    1.301649 A    
C20   C30   1.406727 A    
C10   N4    1.434793 S    
C5    C6    1.405917 A    
C19   C27   1.398767 A    
C8    C9    1.396788 A    
O5    C3    1.301415 A    
Cu1   N1    2.036144 S    
C3    C20   1.459872 S    
C46   H27   1.110356 S    
C14   C45   1.515769 S    
C43   H18   1.076740 S    
C2    C5    1.472146 S    
C16   H6    1.087965 S    
C27   C28   1.394571 A    
C40   C41   1.388867 A    
C37   C39   1.439333 A    
C13   C14   1.398570 A    
C34   N2    1.358174 A    
C21   C32   1.404833 A    
H9    C28   1.084088 S    
N1    C43   1.366576 A    
C12   C18   1.399064 A    
C11   C12   1.393652 A    
C41   C42   1.385115 A    
O3    Cu1   1.961363 S    
C45   H29   1.112722 S    
C47   H24   1.111100 S    
C24   C26   1.417723 A    
C5    C10   1.420060 A    
C39   C40   1.417608 A    
C49   H33   1.109219 S    
C14   C15   1.416029 A    
O3    C2    1.301751 A    
C9    H5    1.084216 S    
C50   H30   1.111048 S    
C6    C7    1.385492 A    
C33   H17   1.083943 S    
C25   C32   1.416795 A    
C6    H1    1.082993 S    
C38   N2    1.386295 A    
C35   C36   1.393938 A    
C48   H35   1.110926 S    
O1    C1    1.303221 A    
C13   H3    1.083949 S    
C23   C24   1.409778 A    
C34   C35   1.392020 A    
C22   H13   1.082570 S    
C50   H31   1.110996 S    
C30   C48   1.532712 S    
N3    O9    1.301660 A    
C25   C29   1.411184 A    
Cu2   O8    1.961363 S    
C7    C8    1.399420 A    
C36   H20   1.077929 S    
C13   C18   1.399411 A    
C23   H12   1.078287 S    
N4    O12   1.301152 A    
C21   H11   1.083218 S    
C19   C31   1.388418 A    
H16   C41   1.084736 S    
N1    C44   1.354248 A    
C28   C29   1.387882 A    
N3    O10   1.301512 A    
O8    C4    1.301364 A    
C34   H19   1.081627 S    
C22   C23   1.391480 A    
C33   C40   1.401369 A    
C20   C31   1.399916 A    
C47   H25   1.110381 S    
C24   C25   1.413829 A    
C35   H21   1.082562 S    
Cu1   O5    1.928985 S    
C11   C15   1.415999 A    
C26   C27   1.420997 A    
C12   H2    1.083302 S    
C17   H4    1.084402 S    
O1    Cu1   1.939395 S    
C19   H10   1.083934 S    
O2    Cu2   1.928984 S    
C46   C47   1.525834 S    
O6    C3    1.297864 A    
O4    Cu2   1.963060 S    
C1    C32   1.471367 S    
C49   H34   1.112075 S    
C15   C17   1.466847 S    
C29   H14   1.080547 S    
C26   C30   1.420284 A    
C48   H36   1.103753 S    
C36   C37   1.410168 A    
O2    C1    1.302435 A    
C50   H32   1.110403 S    
H15   C44   1.081850 S    
C49   C50   1.526582 S    
C38   C42   1.407252 A    
H8    C31   1.083524 S    
Cu2   N2    2.024140 S    
C39   C43   1.417883 A    
C33   C44   1.387838 A    
N4    O11   1.300479 A    
C45   C46   1.534029 S    
Cu2   O6    1.939396 S    
C37   C38   1.430534 A    
C7    H7    1.082330 S    
C4    C18   1.463742 S    
C48   C49   1.537709 S    
