data_mof_unit_8843.cif
_audit_creation_date              2013-03-05T15:45:40-0500
_audit_creation_method            fapswitch 2.2
_symmetry_space_group_name_H-M    P1
_symmetry_Int_Tables_number       1
_space_group_crystal_system       triclinic
_cell_length_a                    15.038415
_cell_length_b                    11.041211
_cell_length_c                    9.869909
_cell_angle_alpha                 111.432366
_cell_angle_beta                  98.482949
_cell_angle_gamma                 90.948047
_cell_volume                      1504.38436517

loop_
_atom_site_label
_atom_site_type_symbol
_atom_site_description
_atom_site_fract_x
_atom_site_fract_y
_atom_site_fract_z
_atom_type_partial_charge
O1    O     O_R   0.508410 0.332340 0.577400 -0.587216
O2    O     O_R   0.491590 0.667660 0.422600 -0.586167
O3    O     O_R   0.481780 0.295500 0.332650 -0.576398
O4    O     O_R   0.518220 0.704500 0.667350 -0.576558
C1    C     C_R   0.493413 0.254013 0.440400 0.864160
C2    C     C_R   0.506558 0.745986 0.559600 0.867913
O5    O     O_R   0.383570 0.518390 0.622380 -0.586125
O6    O     O_R   0.616430 0.481610 0.377620 -0.586302
O7    O     O_R   0.356940 0.481550 0.377630 -0.580841
O8    O     O_R   0.643060 0.518450 0.622370 -0.576713
C3    C     C_R   0.328890 0.500899 0.501262 0.813490
C4    C     C_R   0.671115 0.499440 0.498927 0.807152
Cu1   Cu    Cu3+1 0.515770 0.521810 0.644910 0.961166
Cu2   Cu    Cu3+1 0.484230 0.478190 0.355090 0.959520
C5    C     C_R   0.805120 0.543262 0.401394 -0.182283
C6    C     C_R   0.195804 0.468380 0.606913 -0.182613
C7    C     C_R   0.767725 0.499387 0.498069 -0.086458
C8    C     C_R   0.232625 0.505605 0.504854 -0.086287
C9    C     C_R   0.822703 0.458773 0.598095 -0.170769
C10   C     C_R   0.177769 0.548304 0.406534 -0.164747
C11   C     C_R   0.916448 0.464833 0.606383 -0.004653
C12   C     C_R   0.085262 0.556058 0.410036 -0.001054
C13   C     C_R   0.954127 0.509018 0.507482 0.024153
C14   C     C_R   0.047551 0.511825 0.508750 0.024226
C15   C     C_R   0.898163 0.548731 0.405610 0.062221
C16   C     C_R   0.103309 0.468996 0.607843 0.065206
C17   C     C_R   0.973346 0.425160 0.707955 0.352603
C18   C     C_R   0.029163 0.603282 0.314886 0.341675
C19   C     C_R   0.066160 0.426602 0.706115 -0.222265
C20   C     C_R   0.935821 0.595811 0.311236 -0.210358
H1    H     H_    0.761864 0.575354 0.324887 0.150752
H2    H     H_    0.238910 0.435388 0.682762 0.149537
H3    H     H_    0.790933 0.420082 0.666603 0.197256
H4    H     H_    0.208018 0.574506 0.327201 0.197123
H5    H     H_    0.109766 0.395649 0.783202 0.184932
H6    H     H_    0.892568 0.630310 0.237059 0.195561
H7    H     H_    0.486070 0.863888 0.368814 0.184618
H8    H     H_    0.513658 0.136101 0.631184 0.183796
C21   C     C_2   0.489812 0.114317 0.406843 -0.335001
C22   C     C_2   0.510081 0.885678 0.593155 -0.335584
C23   C     C_2   0.501513 0.069649 0.516303 -0.137077
C24   C     C_2   0.498263 0.930342 0.483695 -0.131406
H9    H     H_    0.522311 0.952396 0.707845 0.153740
H10   H     H_    0.477632 0.047600 0.292151 0.155118
H11   H     H_    0.439830 0.419176 0.844880 0.145551
H12   H     H_    0.559958 0.581156 0.155209 0.145648
N1    N     N_2   0.460520 0.445420 0.137370 -0.145068
N2    N     N_2   0.539480 0.554580 0.862630 -0.145026
C25   C     C_2   0.507277 0.509553 0.080713 0.081080
C26   C     C_2   0.492635 0.490584 0.919324 0.079222
N3    N     N_R   0.938815 0.383262 0.813427 0.131154
O9    O     O_R   0.884741 0.453952 0.896563 -0.349731
O10   O     O_R   0.973520 0.287511 0.844654 -0.340035
N4    N     N_R   0.065727 0.663644 0.226164 0.120083
O11   O     O_R   0.131952 0.753729 0.285529 -0.361004
O12   O     O_R   0.022455 0.647786 0.095908 -0.304474
N5    N     N_3   0.607717 0.645687 0.956827 -0.525636
H13   H     H_    0.667773 0.617816 0.916944 0.263963
H14   H     H_    0.594697 0.734735 0.946312 0.244099
N6    N     N_3   0.392618 0.353788 0.043029 -0.528318
H15   H     H_    0.332445 0.381078 0.082765 0.253231
H16   H     H_    0.406042 0.264858 0.053572 0.246220

loop_
_geom_bond_atom_site_label_1
_geom_bond_atom_site_label_2
_geom_bond_distance
_ccdc_geom_bond_type
C4    C7    1.454144 S    
Cu1   N2    2.019205 S    
N3    O10   1.301536 A    
O7    Cu2   1.958862 S    
C3    C8    1.454646 S    
C5    H1    1.084960 S    
Cu2   N1    2.019205 S    
N4    O12   1.300701 A    
C17   C19   1.398470 A    
C23   C24   1.450133 S    
C19   H5    1.084416 S    
C20   H6    1.084290 S    
O6    C4    1.296322 A    
C10   H4    1.081666 S    
C22   C24   1.333250 D    
C11   C17   1.417500 A    
N2    N5    1.389318 S    
N1    C25   1.302864 D    
C12   C18   1.415697 A    
Cu1   Cu2   2.687884 S    
O5    C3    1.295576 A    
N2    C26   1.302856 D    
O7    C3    1.294949 A    
H12   C25   1.084383 S    
N5    H13   1.044446 S    
O2    C2    1.294653 A    
O3    Cu2   1.946234 S    
O8    C4    1.293905 A    
H11   C26   1.084379 S    
H8    C23   1.088046 S    
O1    C1    1.294661 A    
C6    C8    1.396360 A    
C7    C9    1.397963 A    
C14   C16   1.411545 A    
C17   N3    1.439038 S    
N1    N6    1.389301 S    
C8    C10   1.398407 A    
C11   C13   1.419146 A    
C6    C16   1.392471 A    
O2    Cu2   1.945377 S    
C12   C14   1.418097 A    
C5    C15   1.393343 A    
O4    C2    1.294297 A    
N5    H14   1.044386 S    
C21   H10   1.087457 S    
N3    O9    1.301380 A    
O5    Cu1   1.965777 S    
C2    C22   1.452654 S    
O1    Cu1   1.945377 S    
C21   C23   1.333250 D    
C16   C19   1.398201 A    
N6    H16   1.044387 S    
C25   C26   1.510252 S    
C9    H3    1.080563 S    
H7    C24   1.088046 S    
C5    C7    1.395878 A    
C1    C21   1.452673 S    
C18   N4    1.438668 S    
C6    H2    1.085026 S    
C15   C20   1.399393 A    
O6    Cu2   1.965777 S    
C13   C14   1.402886 A    
N6    H15   1.044419 S    
C9    C11   1.399107 A    
C13   C15   1.412896 A    
N4    O11   1.301406 A    
C22   H9    1.087457 S    
O4    Cu1   1.946233 S    
C10   C12   1.399926 A    
C18   C20   1.399143 A    
O3    C1    1.294295 A    
O8    Cu1   1.958862 S    
