data_mof_unit_60579.cif
_audit_creation_date              2012-12-10T20:02:56-0500
_audit_creation_method            fapswitch 2.2
_symmetry_space_group_name_H-M    P1
_symmetry_Int_Tables_number       1
_space_group_crystal_system       triclinic
_cell_length_a                    38.710976
_cell_length_b                    32.022503
_cell_length_c                    21.711069
_cell_angle_alpha                 89.967884
_cell_angle_beta                  55.843886
_cell_angle_gamma                 90.033916
_cell_volume                      22271.2184634

loop_
_atom_site_label
_atom_site_type_symbol
_atom_type_description
_atom_site_fract_x
_atom_site_fract_y
_atom_site_fract_z
_atom_type_partial_charge
C1    C     C_R   0.919275 0.499960 0.581098 0.888829
C2    C     C_R   0.080707 0.499947 0.418599 0.865796
C3    C     C_R   0.419296 0.999908 0.581020 0.871893
C4    C     C_R   0.580715 0.999940 0.418117 0.887194
C5    C     C_3   0.962298 0.473205 0.323385 0.163183
C6    C     C_3   0.039982 0.476332 0.674244 0.145206
C7    C     C_3   0.461307 0.974001 0.325712 0.181883
C8    C     C_3   0.540063 0.977058 0.674347 0.156797
C9    C     C_3   0.001114 0.500005 0.308850 -0.171054
C10   C     C_3   0.999208 0.500084 0.690799 -0.169257
C11   C     C_3   0.501019 0.000112 0.308874 -0.166617
C12   C     C_3   0.498876 0.999885 0.691167 -0.175387
C13   C     C_3   0.000387 0.497748 0.189176 -0.232076
C14   C     C_3   0.000047 0.497890 0.810257 -0.218742
C15   C     C_3   0.499980 0.998284 0.189801 -0.203192
C16   C     C_3   0.499843 0.997784 0.810623 -0.231115
C17   C     C_3   0.045391 0.480892 0.169825 0.432362
C18   C     C_3   0.956519 0.477359 0.828882 0.416806
C19   C     C_3   0.543681 0.978074 0.170155 0.413760
C20   C     C_3   0.456554 0.976934 0.828535 0.427768
C21   C     C_3   0.963382 0.468206 0.250419 0.475104
C22   C     C_3   0.039292 0.471277 0.746778 0.481021
C23   C     C_3   0.460494 0.971723 0.254051 0.433654
C24   C     C_3   0.539306 0.971646 0.746890 0.482060
C25   C     C_R   0.727986 0.473772 0.813803 -0.032400
C26   C     C_R   0.272474 0.494631 0.170447 -0.028295
C27   C     C_R   0.227564 0.992432 0.828186 -0.027297
C28   C     C_R   0.772703 0.993448 0.169936 -0.036433
C29   C     C_R   0.706388 0.495797 0.789543 -0.105900
C30   C     C_R   0.293541 0.495509 0.206023 -0.123799
C31   C     C_R   0.206451 0.996069 0.792954 -0.122807
C32   C     C_R   0.793544 0.994990 0.205877 -0.123507
C33   C     C_R   0.727967 0.517592 0.721232 0.332904
C34   C     C_R   0.271345 0.494078 0.284119 0.360115
C35   C     C_R   0.228591 0.997631 0.714863 0.361245
C36   C     C_R   0.771165 0.993772 0.283980 0.359662
C37   C     C_R   0.771919 0.519383 0.679313 0.346891
C38   C     C_R   0.227708 0.496090 0.326772 0.319296
C39   C     C_R   0.272249 0.999510 0.672311 0.315207
C40   C     C_R   0.727530 0.995686 0.326223 0.318690
C41   C     C_R   0.793251 0.497204 0.703948 -0.159114
C42   C     C_R   0.206607 0.495131 0.291309 -0.181055
C43   C     C_R   0.293387 0.995693 0.707456 -0.187593
C44   C     C_R   0.706628 0.993885 0.290429 -0.178901
C45   C     C_R   0.999418 0.500072 0.378891 0.938430
C46   C     C_R   0.000403 0.500076 0.621274 0.986065
C47   C     C_R   0.500090 0.000081 0.378221 1.002989
C48   C     C_R   0.500454 0.000048 0.621242 0.936470
C49   C     C_R   0.771735 0.473386 0.769642 0.365113
C50   C     C_R   0.228761 0.492354 0.213259 0.396457
C51   C     C_R   0.271267 0.990436 0.785114 0.395394
C52   C     C_R   0.729012 0.989990 0.212425 0.406591
C53   C     C_1   0.661852 0.497735 0.836822 0.091229
C54   C     C_1   0.338100 0.497569 0.162135 0.090385
C55   C     C_1   0.161891 0.997929 0.837258 0.090347
C56   C     C_1   0.838093 0.997389 0.162238 0.091422
C57   C     C_1   0.837771 0.499053 0.661268 0.110430
C58   C     C_1   0.162133 0.497691 0.335495 0.069845
C59   C     C_1   0.337871 0.997873 0.663443 0.072616
C60   C     C_1   0.662164 0.997183 0.334350 0.064449
C61   C     C_1   0.875067 0.499817 0.624839 -0.209656
C62   C     C_1   0.124883 0.499436 0.373362 -0.222312
C63   C     C_1   0.375127 0.999383 0.625891 -0.211530
C64   C     C_1   0.624917 0.999327 0.372408 -0.215070
C65   C     C_1   0.624553 0.499007 0.875289 -0.189985
C66   C     C_1   0.375412 0.498911 0.124821 -0.186943
C67   C     C_1   0.124581 0.999098 0.874978 -0.186550
C68   C     C_1   0.875403 0.998879 0.124906 -0.187059
C69   C     C_1   0.500072 0.662072 0.999168 0.000259
C70   C     C_1   0.999986 0.162091 0.000305 -0.000941
C71   C     C_R   0.999977 0.580626 0.000694 0.901354
C72   C     C_R   0.500055 0.080626 0.999123 0.894084
C73   C     C_R   0.000087 0.498143 0.121378 0.930192
C74   C     C_R   0.000032 0.498325 0.878462 0.934055
C75   C     C_R   0.499947 0.998730 0.121602 0.938839
C76   C     C_R   0.499973 0.998189 0.878568 0.922789
C77   C     C_1   0.000008 0.337873 0.001038 0.060094
C78   C     C_1   0.499791 0.837858 0.998553 0.058561
C79   C     C_R   0.999982 0.419293 0.000094 0.864290
C80   C     C_R   0.499977 0.919288 0.999863 0.862792
C81   C     C_1   0.999956 0.375147 0.000633 -0.185009
C82   C     C_1   0.499906 0.875135 0.999143 -0.185507
C83   C     C_R   0.500022 0.419668 0.999980 0.893714
C84   C     C_R   0.999949 0.919666 0.000085 0.892794
C85   C     C_R   0.580326 0.499974 0.919683 0.890498
C86   C     C_R   0.419663 0.499945 0.080373 0.886307
C87   C     C_R   0.080334 0.999971 0.919606 0.886770
C88   C     C_R   0.919659 0.999976 0.080389 0.886172
C89   C     C_R   0.500046 0.580410 0.999917 0.898628
C90   C     C_R   0.999990 0.080414 0.000004 0.897691
C91   C     C_R   0.499065 0.272257 0.944277 -0.226438
C92   C     C_R   0.502846 0.271907 0.052139 -0.225880
C93   C     C_R   0.001508 0.771987 0.943637 -0.225367
C94   C     C_R   0.995824 0.772150 0.060802 -0.224658
C95   C     C_R   0.500829 0.293599 0.998488 0.112649
C96   C     C_R   0.998815 0.793588 0.001976 0.112937
C97   C     C_R   0.995868 0.728435 0.061470 0.086852
C98   C     C_R   0.001313 0.728299 0.943474 0.089423
C99   C     C_R   0.503119 0.228215 0.052090 0.090561
C100  C     C_R   0.499006 0.228551 0.943551 0.089714
C101  C     C_R   0.998746 0.706703 0.002412 0.125472
C102  C     C_R   0.501001 0.206718 0.997758 0.125291
C103  C     C_1   0.500518 0.338054 0.999150 -0.047676
C104  C     C_1   0.999221 0.838046 0.001297 -0.047833
C105  C     C_1   0.999277 0.662125 0.002017 -0.039271
C106  C     C_1   0.500652 0.162139 0.997942 -0.038561
C107  C     C_1   0.999760 0.624820 0.001352 -0.210297
C108  C     C_1   0.500286 0.124828 0.998466 -0.212596
C109  C     C_1   0.500093 0.624713 0.999655 -0.183139
C110  C     C_1   0.999977 0.124725 0.000071 -0.184396
C111  C     C_1   0.500258 0.375396 0.999670 -0.182501
C112  C     C_1   0.999593 0.875390 0.000615 -0.182813
C113  C     C_R   0.533415 0.728175 0.938848 -0.283693
C114  C     C_R   0.466151 0.728080 0.057896 -0.286181
C115  C     C_R   0.032467 0.228264 0.939268 -0.287699
C116  C     C_R   0.967759 0.228053 0.062439 -0.286146
C117  C     C_R   0.499910 0.706543 0.998634 0.033409
C118  C     C_R   0.000044 0.206570 0.000647 0.034977
C119  C     C_R   0.000153 0.293397 0.001211 -0.073610
C120  C     C_R   0.499642 0.793372 0.998162 -0.075299
C121  C     C_R   0.967994 0.271682 0.063553 0.421273
C122  C     C_R   0.032371 0.271899 0.938781 0.423388
C123  C     C_R   0.466122 0.771701 0.058486 0.422220
C124  C     C_R   0.533141 0.771802 0.937757 0.423212
C125  C     C_3   0.998603 0.547334 0.284794 0.103388
C126  C     C_3   0.999229 0.547635 0.716827 0.099093
C127  C     C_3   0.498812 0.047670 0.285496 0.092655
C128  C     C_3   0.497053 0.047276 0.719391 0.104778
C129  C     C_3   0.990730 0.544967 0.220598 0.489419
C130  C     C_3   0.006114 0.545759 0.782314 0.484516
C131  C     C_3   0.494254 0.046251 0.217200 0.490710
C132  C     C_3   0.505341 0.045650 0.783081 0.486636
C133  C     C_3   0.043778 0.479042 0.244945 0.161203
C134  C     C_3   0.957813 0.476379 0.753610 0.158878
C135  C     C_3   0.543213 0.978089 0.244533 0.155020
C136  C     C_3   0.458281 0.975000 0.753346 0.164795
H1    H     H_    0.497554 0.289635 0.902983 0.142981
H2    H     H_    0.504282 0.289011 0.093730 0.143134
H3    H     H_    0.003687 0.789161 0.898525 0.142940
H4    H     H_    0.993669 0.789459 0.105738 0.143068
H5    H     H_    0.559620 0.711324 0.893198 0.168015
H6    H     H_    0.439984 0.711146 0.103605 0.165882
H7    H     H_    0.057716 0.211442 0.891938 0.165277
H8    H     H_    0.942535 0.211074 0.109664 0.166266
H9    H     H_    0.934004 0.491795 0.362587 0.078671
H10   H     H_    0.066770 0.497173 0.637230 0.090913
H11   H     H_    0.433223 0.990950 0.369296 0.085424
H12   H     H_    0.566325 0.998709 0.637986 0.091435
O1    O     O_R   0.939010 0.534400 0.560970 -0.608201
O2    O     O_R   0.060990 0.534400 0.439030 -0.615986
O3    O     O_R   0.439010 0.034400 0.560970 -0.615262
O4    O     O_R   0.560990 0.034400 0.439030 -0.618084
O5    O     O_R   0.560960 0.500010 0.886780 -0.620470
O6    O     O_R   0.439040 0.500010 0.113220 -0.615190
O7    O     O_R   0.060960 0.000010 0.886780 -0.615738
O8    O     O_R   0.939040 0.000010 0.113220 -0.615159
O9    O     O_R   0.560970 0.499940 0.991330 -0.607836
O10   O     O_R   0.439030 0.499940 0.008670 -0.609695
O11   O     O_R   0.060970 0.999940 0.991330 -0.609486
O12   O     O_R   0.939030 0.999940 0.008670 -0.609714
O13   O     O_R   0.500000 0.561000 0.947810 -0.613533
O14   O     O_R   0.500000 0.561000 0.052190 -0.612393
O15   O     O_R   0.000000 0.061000 0.947810 -0.612895
O16   O     O_R   0.000000 0.061000 0.052190 -0.612896
O17   O     O_R   0.938970 0.465540 0.561010 -0.633800
O18   O     O_R   0.061030 0.465540 0.438990 -0.633275
O19   O     O_R   0.438970 0.965540 0.561010 -0.640193
O20   O     O_R   0.561030 0.965540 0.438990 -0.631384
O21   O     O_R   0.999990 0.534400 0.407410 -0.633748
O22   O     O_R   0.000010 0.534400 0.592590 -0.634251
O23   O     O_R   0.499990 0.034400 0.407410 -0.640106
O24   O     O_R   0.500010 0.034400 0.592590 -0.633000
O25   O     O_R   0.999950 0.465540 0.407450 -0.577069
O26   O     O_R   0.000050 0.465540 0.592550 -0.572538
O27   O     O_R   0.499950 0.965540 0.407450 -0.556978
O28   O     O_R   0.500050 0.965540 0.592550 -0.574226
O29   O     O_R   0.965540 0.560940 0.034450 -0.630584
O30   O     O_R   0.034460 0.560940 0.965550 -0.634598
O31   O     O_R   0.465540 0.060940 0.034450 -0.634679
O32   O     O_R   0.534460 0.060940 0.965550 -0.629348
O33   O     O_R   0.965550 0.499950 0.127040 -0.589404
O34   O     O_R   0.034450 0.499950 0.872960 -0.602741
O35   O     O_R   0.465550 0.999950 0.127040 -0.597858
O36   O     O_R   0.534450 0.999950 0.872960 -0.597704
O37   O     O_R   0.034410 0.500000 0.058200 -0.639972
O38   O     O_R   0.965590 0.500000 0.941800 -0.610529
O39   O     O_R   0.534410 0.000000 0.058200 -0.609387
O40   O     O_R   0.465590 1.000000 0.941800 -0.635321
O41   O     O_R   0.965550 0.438960 0.034430 -0.630741
O42   O     O_R   0.034450 0.438960 0.965570 -0.637268
O43   O     O_R   0.465550 0.938960 0.034430 -0.629789
O44   O     O_R   0.534450 0.938960 0.965570 -0.637650
O45   O     O_R   0.499940 0.439020 0.947690 -0.616333
O46   O     O_R   0.500060 0.439020 0.052310 -0.616064
O47   O     O_R   0.999940 0.939020 0.947690 -0.616339
O48   O     O_R   0.000060 0.939020 0.052310 -0.616159
Zn1   Zn    Zn3+2 0.000000 0.545950 0.500000 0.947973
Zn2   Zn    Zn3+2 0.500000 0.045950 0.500000 0.941147
Zn3   Zn    Zn3+2 0.000000 0.454000 0.500000 0.946986
Zn4   Zn    Zn3+2 0.500000 0.954000 0.500000 0.961881
Zn5   Zn    Zn3+2 0.954000 0.499940 0.045990 0.917022
Zn6   Zn    Zn3+2 0.046000 0.499940 0.954010 0.895646
Zn7   Zn    Zn3+2 0.454000 0.999940 0.045990 0.905343
Zn8   Zn    Zn3+2 0.546000 0.999940 0.954010 0.909490
Zn9   Zn    Zn3+2 0.499970 0.500020 0.930220 0.962050
Zn10  Zn    Zn3+2 0.500030 0.500020 0.069780 0.967766
Zn11  Zn    Zn3+2 0.999970 0.000020 0.930220 0.965362
Zn12  Zn    Zn3+2 0.000030 0.000020 0.069780 0.966079
N1    N     N_3   0.037779 0.570471 0.258039 -0.413785
H13   H     H_    0.044512 0.571113 0.298239 0.231440
H14   H     H_    0.034180 0.602035 0.250557 0.158335
N2    N     N_3   0.959476 0.569126 0.742601 -0.465266
H15   H     H_    0.953132 0.569145 0.701890 0.235887
H16   H     H_    0.961560 0.600844 0.751500 0.164190
N3    N     N_3   0.536615 0.072008 0.264065 -0.477991
H17   H     H_    0.543461 0.071683 0.304010 0.238044
H18   H     H_    0.532266 0.103631 0.258254 0.164981
N4    N     N_3   0.455874 0.066386 0.748006 -0.412898
H19   H     H_    0.449568 0.066284 0.707185 0.227695
H20   H     H_    0.456332 0.098147 0.758637 0.159740
N5    N     N_3   0.968922 0.424418 0.224234 -0.465709
H21   H     H_    0.989518 0.406333 0.228765 0.202136
H22   H     H_    0.975579 0.422480 0.170566 0.166149
N6    N     N_3   0.037371 0.427113 0.769419 -0.464354
H23   H     H_    0.019559 0.406984 0.760790 0.207083
H24   H     H_    0.029586 0.424421 0.823751 0.161548
N7    N     N_3   0.460836 0.928086 0.230972 -0.490189
H25   H     H_    0.480423 0.908058 0.235504 0.203859
H26   H     H_    0.467260 0.926366 0.177472 0.177034
N8    N     N_3   0.537602 0.927435 0.769076 -0.464111
H27   H     H_    0.519019 0.907555 0.762117 0.202010
H28   H     H_    0.530585 0.924736 0.822904 0.162788
N9    N     N_3   0.047349 0.436070 0.266581 -0.421739
H29   H     H_    0.078112 0.425395 0.232835 0.147547
H30   H     H_    0.029291 0.414002 0.262371 0.231968
N10   N     N_3   0.957752 0.433058 0.729142 -0.404368
H31   H     H_    0.928605 0.418914 0.764267 0.148923
H32   H     H_    0.978937 0.413285 0.728727 0.230375
N11   N     N_3   0.545689 0.934976 0.267470 -0.394990
H33   H     H_    0.575901 0.922993 0.233069 0.142657
H34   H     H_    0.526978 0.913454 0.263456 0.233907
N12   N     N_3   0.458566 0.931788 0.728338 -0.421645
H35   H     H_    0.429182 0.917897 0.762352 0.148721
H36   H     H_    0.479484 0.911897 0.728488 0.231679
N13   N     N_3   0.054505 0.438390 0.137138 -0.543661
H37   H     H_    0.084493 0.428499 0.118970 0.175985
H38   H     H_    0.049967 0.434934 0.094400 0.177900
N14   N     N_3   0.952653 0.434105 0.856964 -0.540214
H39   H     H_    0.925166 0.419291 0.870887 0.175659
H40   H     H_    0.955042 0.432316 0.902421 0.179226
N15   N     N_3   0.547047 0.934649 0.143187 -0.539256
H41   H     H_    0.574589 0.919819 0.128861 0.173393
H42   H     H_    0.543979 0.932402 0.098539 0.179969
N16   N     N_3   0.451313 0.933894 0.857899 -0.542937
H43   H     H_    0.422278 0.921281 0.875525 0.177650
H44   H     H_    0.456103 0.931343 0.900479 0.172080
O49   O     O_3   0.793137 0.454544 0.796116 -0.630987
C137  C     C_3   0.806045 0.414366 0.764501 0.078985
H45   H     H_    0.825226 0.415880 0.702604 0.137720
H46   H     H_    0.778507 0.393936 0.783540 0.128144
C138  C     C_3   0.832479 0.395162 0.789292 -0.313397
H47   H     H_    0.859925 0.415487 0.770733 0.217410
H48   H     H_    0.813687 0.393185 0.851062 0.223918
C139  C     C_3   0.847765 0.351621 0.756728 -0.972517
H49   H     H_    0.820856 0.330548 0.774859 0.264710
H50   H     H_    0.866530 0.338563 0.776385 0.264123
H51   H     H_    0.867707 0.353131 0.695000 0.270134
O50   O     O_3   0.208235 0.490254 0.177698 -0.636046
C140  C     C_3   0.188605 0.450802 0.190138 0.097415
H52   H     H_    0.154885 0.456344 0.215516 0.153222
H53   H     H_    0.190808 0.429748 0.228912 0.120913
C141  C     C_3   0.207367 0.428185 0.115894 -0.365034
H54   H     H_    0.208815 0.449766 0.074483 0.239506
H55   H     H_    0.239644 0.418140 0.094804 0.209729
C142  C     C_3   0.181765 0.389759 0.124073 -0.966778
H56   H     H_    0.180320 0.367554 0.164790 0.267704
H57   H     H_    0.196576 0.373850 0.069435 0.271386
H58   H     H_    0.149594 0.398952 0.143035 0.249639
O51   O     O_3   0.291768 0.986086 0.820429 -0.635880
C143  C     C_3   0.311627 0.946587 0.804180 0.097730
H59   H     H_    0.345743 0.951999 0.774506 0.155534
H60   H     H_    0.306848 0.926061 0.767891 0.118084
C144  C     C_3   0.295874 0.923318 0.876874 -0.361278
H61   H     H_    0.296906 0.944395 0.916336 0.239519
H62   H     H_    0.262950 0.913663 0.902469 0.210271
C145  C     C_3   0.322052 0.884553 0.863866 -0.970613
H63   H     H_    0.320738 0.862691 0.825522 0.268394
H64   H     H_    0.309676 0.868414 0.917695 0.271911
H65   H     H_    0.355031 0.893398 0.839672 0.250117
O52   O     O_3   0.708710 0.986833 0.176528 -0.637529
C146  C     C_3   0.691192 0.946387 0.187129 0.097422
H66   H     H_    0.665409 0.948917 0.179219 0.155020
H67   H     H_    0.677114 0.933761 0.244308 0.130947
C147  C     C_3   0.723236 0.915340 0.129746 -0.384495
H68   H     H_    0.738351 0.928635 0.072957 0.227297
H69   H     H_    0.747595 0.909389 0.140716 0.211178
C148  C     C_3   0.702642 0.873934 0.133328 -0.948592
H70   H     H_    0.687486 0.859814 0.189567 0.263881
H71   H     H_    0.726653 0.851977 0.091737 0.268615
H72   H     H_    0.678859 0.878803 0.120578 0.263807
N17   N     N_3   0.705236 0.453015 0.884634 -0.428905
H73   H     H_    0.712345 0.421205 0.876116 0.184154
H74   H     H_    0.715246 0.464872 0.916981 0.224372
N18   N     N_3   0.295724 0.496112 0.090745 -0.426455
H75   H     H_    0.289540 0.468928 0.072021 0.193125
H76   H     H_    0.285170 0.521588 0.075533 0.219152
N19   N     N_3   0.204363 0.990656 0.907865 -0.426521
H77   H     H_    0.210866 0.962288 0.923055 0.193114
H78   H     H_    0.214713 0.014804 0.926094 0.219717
N20   N     N_3   0.796170 0.996136 0.090277 -0.426647
H79   H     H_    0.791916 0.968663 0.069528 0.192241
H80   H     H_    0.784457 0.020991 0.076001 0.219850
O53   O     O_3   0.706476 0.541798 0.700390 -0.611529
C149  C     C_3   0.689524 0.515744 0.670967 0.051666
H81   H     H_    0.664591 0.495239 0.714685 0.154862
H82   H     H_    0.713981 0.495604 0.625419 0.102141
C150  C     C_3   0.670353 0.543079 0.639885 -0.299712
H83   H     H_    0.645308 0.562728 0.685296 0.233889
H84   H     H_    0.694670 0.564057 0.596087 0.215107
C151  C     C_3   0.651890 0.516675 0.606584 -0.973330
H85   H     H_    0.676579 0.497329 0.560092 0.262367
H86   H     H_    0.638187 0.537441 0.584685 0.266799
H87   H     H_    0.626916 0.495965 0.649767 0.268119
O54   O     O_3   0.292015 0.494578 0.319452 -0.626373
C152  C     C_3   0.305333 0.453715 0.321501 0.109622
H88   H     H_    0.333726 0.456840 0.322107 0.168120
H89   H     H_    0.314650 0.434673 0.271375 0.111743
C153  C     C_3   0.271678 0.430773 0.392379 -0.320665
H90   H     H_    0.261298 0.450755 0.441716 0.241675
H91   H     H_    0.244354 0.424201 0.389763 0.236461
C154  C     C_3   0.287964 0.389451 0.401451 -0.991595
H92   H     H_    0.298098 0.368802 0.353034 0.267299
H93   H     H_    0.262759 0.373482 0.452778 0.271155
H94   H     H_    0.314699 0.395002 0.406233 0.268901
O55   O     O_3   0.207846 0.001217 0.679915 -0.626694
C155  C     C_3   0.194775 0.961294 0.672549 0.111890
H95   H     H_    0.166460 0.965899 0.672145 0.168974
H96   H     H_    0.185420 0.939943 0.720182 0.110775
C156  C     C_3   0.228661 0.940790 0.599011 -0.326253
H97   H     H_    0.239486 0.963203 0.552454 0.243234
H98   H     H_    0.255629 0.932189 0.601500 0.238444
C157  C     C_3   0.212506 0.901370 0.583753 -0.988849
H99   H     H_    0.201893 0.878346 0.629336 0.267024
H100  H     H_    0.237947 0.887124 0.530652 0.271112
H101  H     H_    0.186140 0.909035 0.578910 0.269413
O56   O     O_3   0.791633 0.994845 0.319650 -0.626530
C158  C     C_3   0.804893 0.954134 0.322706 0.109351
H102  H     H_    0.833017 0.957544 0.324073 0.168194
H103  H     H_    0.814620 0.934827 0.272651 0.111699
C159  C     C_3   0.770959 0.931392 0.393594 -0.321848
H104  H     H_    0.760204 0.951637 0.442787 0.241977
H105  H     H_    0.743908 0.924540 0.390306 0.235703
C160  C     C_3   0.787103 0.890293 0.403776 -0.988842
H106  H     H_    0.797604 0.869384 0.355519 0.267331
H107  H     H_    0.761703 0.874468 0.455078 0.271533
H108  H     H_    0.813553 0.896130 0.409250 0.268889
O57   O     O_3   0.794403 0.547006 0.620280 -0.604239
C161  C     C_3   0.792695 0.535279 0.559348 0.136302
H109  H     H_    0.766692 0.552401 0.562979 0.190450
H110  H     H_    0.788377 0.500960 0.556933 0.076306
C162  C     C_3   0.833505 0.547840 0.486977 -0.343510
H111  H     H_    0.842794 0.579801 0.492278 0.245757
H112  H     H_    0.858583 0.525809 0.475901 0.192122
C163  C     C_3   0.828906 0.547302 0.421604 -0.999824
H113  H     H_    0.814569 0.517549 0.420436 0.263706
H114  H     H_    0.860050 0.550552 0.368674 0.298777
H115  H     H_    0.808871 0.573625 0.426366 0.268107
O58   O     O_3   0.205549 0.494756 0.403538 -0.639869
C164  C     C_3   0.198603 0.535901 0.431165 0.122743
H116  H     H_    0.180784 0.554226 0.414156 0.134983
H117  H     H_    0.228804 0.551883 0.410755 0.167524
C165  C     C_3   0.173109 0.533808 0.515955 -0.340945
H118  H     H_    0.143491 0.516746 0.536609 0.206578
H119  H     H_    0.191204 0.516416 0.533194 0.219547
C166  C     C_3   0.162829 0.577133 0.550925 -0.972827
H120  H     H_    0.191930 0.594983 0.530884 0.266752
H121  H     H_    0.145279 0.573887 0.612311 0.280624
H122  H     H_    0.143230 0.594501 0.537010 0.262099
O59   O     O_3   0.294385 0.000908 0.595536 -0.638313
C167  C     C_3   0.301597 0.042955 0.572216 0.124498
H123  H     H_    0.318556 0.059741 0.592642 0.134900
H124  H     H_    0.271499 0.059130 0.592791 0.168327
C168  C     C_3   0.328393 0.043873 0.487289 -0.333018
H125  H     H_    0.358144 0.027071 0.466268 0.214124
H126  H     H_    0.311496 0.027677 0.466475 0.230404
C169  C     C_3   0.338221 0.088402 0.457336 -0.982938
H127  H     H_    0.308938 0.105983 0.477940 0.268880
H128  H     H_    0.356652 0.087490 0.395679 0.272279
H129  H     H_    0.356790 0.104666 0.474691 0.265863
O60   O     O_3   0.705161 0.995162 0.403058 -0.639989
C170  C     C_3   0.698494 0.036598 0.429345 0.122043
H130  H     H_    0.681044 0.054703 0.411315 0.134202
H131  H     H_    0.728789 0.052405 0.408805 0.168133
C171  C     C_3   0.672661 0.035431 0.514224 -0.340785
H132  H     H_    0.642951 0.018509 0.535086 0.206308
H133  H     H_    0.690419 0.018336 0.532480 0.219500
C172  C     C_3   0.662592 0.079139 0.547686 -0.971216
H134  H     H_    0.691784 0.096890 0.527340 0.266400
H135  H     H_    0.644820 0.076601 0.609201 0.279575
H136  H     H_    0.643270 0.096215 0.532820 0.262086
N21   N     N_3   0.004019 0.705693 0.883709 -0.465019
H137  H     H_    0.007891 0.726268 0.842853 0.176788
H138  H     H_    0.975456 0.690561 0.905478 0.181306
N22   N     N_3   0.992715 0.705945 0.121802 -0.463275
H139  H     H_    0.988590 0.726620 0.162684 0.177917
H140  H     H_    0.021218 0.690880 0.100669 0.181489
N23   N     N_3   0.497209 0.206173 0.888006 -0.465205
H141  H     H_    0.498117 0.226918 0.849913 0.175900
H142  H     H_    0.468305 0.191038 0.914929 0.181631
N24   N     N_3   0.505201 0.205501 0.107065 -0.466844
H143  H     H_    0.504402 0.226005 0.145309 0.175619
H144  H     H_    0.534141 0.190476 0.079664 0.181962
O61   O     O_3   0.065182 0.293686 0.879738 -0.631270
C173  C     C_3   0.059001 0.295862 0.821615 0.077891
H145  H     H_    0.026799 0.306706 0.842396 0.130190
H146  H     H_    0.064411 0.264640 0.795100 0.143321
C174  C     C_3   0.090063 0.327121 0.763351 -0.305270
H147  H     H_    0.083986 0.358545 0.789188 0.229995
H148  H     H_    0.122371 0.317742 0.743520 0.230276
C175  C     C_3   0.086528 0.329449 0.696876 -0.981560
H149  H     H_    0.094439 0.298801 0.668100 0.264559
H150  H     H_    0.108594 0.353314 0.656904 0.265602
H151  H     H_    0.054360 0.338288 0.715257 0.268949
O62   O     O_3   0.935434 0.293186 0.123373 -0.631552
C176  C     C_3   0.943142 0.296115 0.179550 0.081166
H152  H     H_    0.974670 0.309610 0.157236 0.132811
H153  H     H_    0.940884 0.264648 0.203494 0.141226
C177  C     C_3   0.910462 0.324775 0.241319 -0.307043
H154  H     H_    0.913332 0.356606 0.218365 0.230589
H155  H     H_    0.878706 0.312666 0.262683 0.228589
C178  C     C_3   0.915853 0.327442 0.305674 -0.986243
H156  H     H_    0.912125 0.296075 0.330572 0.265111
H157  H     H_    0.891794 0.348527 0.349370 0.261828
H158  H     H_    0.947200 0.339957 0.285980 0.274135
O63   O     O_3   0.566734 0.793483 0.880001 -0.630289
C179  C     C_3   0.561674 0.796624 0.820610 0.078756
H159  H     H_    0.529833 0.808070 0.840134 0.130507
H160  H     H_    0.566983 0.765593 0.793524 0.143697
C180  C     C_3   0.593581 0.827778 0.763437 -0.303977
H161  H     H_    0.587647 0.859036 0.789804 0.229322
H162  H     H_    0.625557 0.817761 0.744695 0.231447
C181  C     C_3   0.591094 0.831046 0.695882 -0.982151
H163  H     H_    0.598584 0.800482 0.666928 0.264881
H164  H     H_    0.613941 0.854588 0.656394 0.264214
H165  H     H_    0.559340 0.840814 0.713142 0.270712
O64   O     O_3   0.432103 0.793236 0.115412 -0.632497
C182  C     C_3   0.436094 0.796459 0.175985 0.081580
H166  H     H_    0.467144 0.809586 0.158036 0.132326
H167  H     H_    0.432092 0.765169 0.201679 0.141522
C183  C     C_3   0.402242 0.825761 0.234101 -0.295060
H168  H     H_    0.406674 0.857340 0.209327 0.225188
H169  H     H_    0.371048 0.813886 0.251255 0.228966
C184  C     C_3   0.403686 0.829147 0.302700 -1.013399
H170  H     H_    0.398269 0.798091 0.329499 0.270583
H171  H     H_    0.378913 0.850829 0.343415 0.260130
H172  H     H_    0.434479 0.841339 0.287008 0.266273
N25   N     N_3   0.964738 0.571096 0.349528 -0.429212
H173  H     H_    0.935593 0.556800 0.375422 0.203014
H174  H     H_    0.962120 0.600858 0.332611 0.193889
N26   N     N_3   0.032443 0.572949 0.653485 -0.426609
H175  H     H_    0.062451 0.561026 0.628694 0.209564
H176  H     H_    0.032732 0.603173 0.671508 0.194525
N27   N     N_3   0.463038 0.069857 0.350124 -0.426457
H177  H     H_    0.434197 0.056339 0.369239 0.213410
H178  H     H_    0.461696 0.100699 0.335628 0.199795
N28   N     N_3   0.528438 0.074390 0.657171 -0.428200
H179  H     H_    0.558819 0.062920 0.629214 0.209706
H180  H     H_    0.528381 0.104158 0.677099 0.192020
O65   O     O_3   0.947143 0.554325 0.255602 -0.643012
C185  C     C_3   0.934651 0.576109 0.214215 0.196419
H181  H     H_    0.908490 0.558313 0.219397 0.181113
H182  H     H_    0.958844 0.578717 0.153990 0.157127
C186  C     C_3   0.918504 0.619512 0.247792 -0.438994
H183  H     H_    0.894142 0.616557 0.308342 0.235417
H184  H     H_    0.944306 0.638731 0.240952 0.223901
C187  C     C_3   0.899878 0.641936 0.210859 -0.905622
H185  H     H_    0.923673 0.645528 0.150280 0.280629
H186  H     H_    0.888995 0.673448 0.235712 0.269635
H187  H     H_    0.872863 0.624095 0.219515 0.253423
O66   O     O_3   0.048628 0.558725 0.749542 -0.639333
C188  C     C_3   0.059033 0.580361 0.793951 0.203118
H188  H     H_    0.085569 0.563557 0.789064 0.189883
H189  H     H_    0.033988 0.581524 0.853801 0.145521
C189  C     C_3   0.073383 0.624643 0.763431 -0.434050
H190  H     H_    0.095926 0.623477 0.702054 0.235449
H191  H     H_    0.046228 0.643544 0.775557 0.223461
C190  C     C_3   0.094373 0.645961 0.797105 -0.904256
H192  H     H_    0.072888 0.647085 0.858574 0.280231
H193  H     H_    0.103064 0.678408 0.775651 0.270174
H194  H     H_    0.123114 0.628814 0.781656 0.252315
O67   O     O_3   0.452528 0.060495 0.246347 -0.634333
C191  C     C_3   0.444201 0.082725 0.199677 0.197299
H195  H     H_    0.418148 0.066418 0.202023 0.189630
H196  H     H_    0.470357 0.083849 0.140676 0.138335
C192  C     C_3   0.430101 0.127082 0.229918 -0.429053
H197  H     H_    0.408589 0.126145 0.291504 0.233858
H198  H     H_    0.457564 0.146208 0.215667 0.224475
C193  C     C_3   0.407535 0.147967 0.198840 -0.906529
H199  H     H_    0.427622 0.148515 0.137245 0.278438
H200  H     H_    0.399533 0.180601 0.219389 0.269436
H201  H     H_    0.378246 0.130874 0.217364 0.251911
O68   O     O_3   0.547984 0.058799 0.748299 -0.642003
C194  C     C_3   0.559279 0.080243 0.791628 0.205491
H202  H     H_    0.586662 0.063835 0.784187 0.188723
H203  H     H_    0.535082 0.080523 0.851951 0.146909
C195  C     C_3   0.572254 0.124997 0.762673 -0.434145
H204  H     H_    0.593603 0.124718 0.701003 0.235097
H205  H     H_    0.544322 0.143563 0.777959 0.225451
C196  C     C_3   0.594456 0.146140 0.794232 -0.908876
H206  H     H_    0.574239 0.146274 0.855884 0.278208
H207  H     H_    0.601999 0.178930 0.774260 0.270086
H208  H     H_    0.623969 0.129514 0.775552 0.253160
N29   N     N_3   0.016726 0.575864 0.160415 -0.483820
H209  H     H_    0.048557 0.573811 0.136895 0.243434
H210  H     H_    0.008049 0.606159 0.181423 0.151936
N30   N     N_3   0.977238 0.574352 0.844437 -0.475296
H211  H     H_    0.945914 0.570111 0.865069 0.242701
H212  H     H_    0.984244 0.605320 0.826248 0.151716
N31   N     N_3   0.524980 0.074156 0.155329 -0.470366
H213  H     H_    0.555574 0.070461 0.139600 0.240683
H214  H     H_    0.517628 0.105340 0.171731 0.153754
N32   N     N_3   0.477124 0.074361 0.845522 -0.480355
H215  H     H_    0.445541 0.069498 0.869124 0.243264
H216  H     H_    0.483305 0.105220 0.826587 0.151715
N33   N     N_3   0.079403 0.502499 0.235502 -0.392674
H217  H     H_    0.107430 0.489137 0.193121 0.195493
H218  H     H_    0.079524 0.499777 0.283366 0.166082
N34   N     N_3   0.921365 0.497342 0.760701 -0.452016
H219  H     H_    0.905242 0.518776 0.803727 0.247222
H220  H     H_    0.899085 0.476552 0.765851 0.174979
N35   N     N_3   0.578858 0.001426 0.236389 -0.453843
H221  H     H_    0.592508 0.024182 0.195063 0.247629
H222  H     H_    0.603033 0.982183 0.227164 0.166850
N36   N     N_3   0.420569 0.994831 0.764803 -0.391440
H223  H     H_    0.393953 0.978658 0.805585 0.195277
H224  H     H_    0.420795 0.992239 0.716581 0.164770
O69   O     O_3   0.077383 0.510632 0.121518 -0.633992
C197  C     C_3   0.109923 0.499468 0.047377 0.165712
H225  H     H_    0.115453 0.527142 0.012035 0.159809
H226  H     H_    0.102792 0.473880 0.022026 0.144087
C198  C     C_3   0.150533 0.490391 0.041296 -0.411553
H227  H     H_    0.158074 0.517001 0.064677 0.249614
H228  H     H_    0.146838 0.461840 0.073330 0.213507
C199  C     C_3   0.186778 0.483722 0.960471 -0.960845
H229  H     H_    0.180301 0.456679 0.936370 0.263893
H230  H     H_    0.215773 0.477303 0.957793 0.268805
H231  H     H_    0.191797 0.512085 0.926902 0.263307
O70   O     O_3   0.922716 0.503598 0.882930 -0.656649
C200  C     C_3   0.887060 0.485404 0.947226 0.156538
H232  H     H_    0.872303 0.510495 0.989769 0.152360
H233  H     H_    0.894380 0.460967 0.974334 0.141486
C201  C     C_3   0.854384 0.470845 0.932844 -0.414263
H234  H     H_    0.843392 0.498070 0.916592 0.232397
H235  H     H_    0.867872 0.447683 0.887163 0.213506
C202  C     C_3   0.816858 0.450942 0.002246 -0.947350
H236  H     H_    0.826746 0.422989 0.018907 0.261576
H237  H     H_    0.793651 0.441113 0.990339 0.272850
H238  H     H_    0.801840 0.473667 0.048912 0.262426
O71   O     O_3   0.577423 0.003930 0.114671 -0.659450
C203  C     C_3   0.612671 0.985468 0.050320 0.165279
H239  H     H_    0.627007 0.010265 0.007059 0.153481
H240  H     H_    0.604991 0.960518 0.024566 0.140560
C204  C     C_3   0.645860 0.971683 0.063725 -0.419224
H241  H     H_    0.656091 0.999038 0.081116 0.237393
H242  H     H_    0.633054 0.947873 0.108346 0.206682
C205  C     C_3   0.683771 0.953174 0.993227 -0.944226
H243  H     H_    0.674554 0.925099 0.975651 0.262531
H244  H     H_    0.707469 0.943853 0.004104 0.273072
H245  H     H_    0.697957 0.976561 0.947521 0.261471
O72   O     O_3   0.422096 0.003768 0.879063 -0.632316
C206  C     C_3   0.390835 0.989950 0.952382 0.170070
H246  H     H_    0.382771 0.017275 0.989622 0.158713
H247  H     H_    0.400448 0.965533 0.975825 0.144637
C207  C     C_3   0.351197 0.976655 0.958009 -0.418556
H248  H     H_    0.341119 0.002123 0.936642 0.248897
H249  H     H_    0.357473 0.948309 0.923999 0.214775
C208  C     C_3   0.315854 0.966961 0.038348 -0.959237
H250  H     H_    0.324989 0.941085 0.060511 0.265649
H251  H     H_    0.287583 0.957336 0.040683 0.268788
H252  H     H_    0.308143 0.995039 0.073832 0.263240
O73   O     O_3   0.960080 0.433135 0.354172 -0.645294
C209  C     C_3   0.923502 0.427827 0.426529 0.121584
H253  H     H_    0.895677 0.425660 0.424277 0.099158
H254  H     H_    0.919163 0.454209 0.463538 0.132091
C210  C     C_3   0.927153 0.387269 0.459468 -0.264568
H255  H     H_    0.931812 0.360757 0.422524 0.213796
H256  H     H_    0.954677 0.389044 0.462985 0.232600
C211  C     C_3   0.888085 0.379232 0.536960 -1.012554
H257  H     H_    0.883586 0.404789 0.575292 0.274742
H258  H     H_    0.891539 0.349328 0.558867 0.264184
H259  H     H_    0.860151 0.377092 0.534770 0.259162
O74   O     O_3   0.046023 0.436899 0.638980 -0.651246
C212  C     C_3   0.083087 0.435774 0.566321 0.127853
H260  H     H_    0.111016 0.439843 0.567936 0.109747
H261  H     H_    0.083080 0.461070 0.531384 0.140542
C213  C     C_3   0.086039 0.393657 0.530758 -0.291911
H262  H     H_    0.084443 0.368174 0.567040 0.216409
H263  H     H_    0.059231 0.390134 0.525497 0.230130
C214  C     C_3   0.126757 0.389714 0.453938 -0.955923
H264  H     H_    0.128541 0.414058 0.415866 0.278341
H265  H     H_    0.128152 0.358587 0.430152 0.256917
H266  H     H_    0.153992 0.392950 0.458010 0.267175
O75   O     O_3   0.461354 0.933777 0.354383 -0.638747
C215  C     C_3   0.421985 0.913877 0.397986 0.073250
H267  H     H_    0.428047 0.880083 0.399114 0.164015
H268  H     H_    0.404369 0.915056 0.372438 0.132749
C216  C     C_3   0.396276 0.929101 0.478806 -0.338521
H269  H     H_    0.411517 0.918157 0.506466 0.246530
H270  H     H_    0.394440 0.963647 0.481776 0.209876
C217  C     C_3   0.351958 0.911645 0.521026 -0.942633
H271  H     H_    0.335385 0.923451 0.496168 0.270279
H272  H     H_    0.334549 0.921718 0.580079 0.281865
H273  H     H_    0.352592 0.876974 0.519229 0.253908
O76   O     O_3   0.546856 0.937778 0.638295 -0.648220
C218  C     C_3   0.584106 0.937371 0.565871 0.128265
H274  H     H_    0.611781 0.942955 0.567725 0.107676
H275  H     H_    0.583309 0.962058 0.530844 0.141259
C219  C     C_3   0.588723 0.894822 0.530331 -0.294408
H276  H     H_    0.588006 0.869953 0.566759 0.217128
H277  H     H_    0.562144 0.889704 0.524894 0.229845
C220  C     C_3   0.629651 0.891736 0.453634 -0.952466
H278  H     H_    0.630471 0.915254 0.415303 0.277059
H279  H     H_    0.632384 0.860192 0.430106 0.256830
H280  H     H_    0.656674 0.896837 0.457781 0.268751
O77   O     O_3   0.924592 0.482343 0.264089 -0.588637
C221  C     C_3   0.889529 0.456784 0.312580 0.107003
H281  H     H_    0.872453 0.470423 0.369217 0.133534
H282  H     H_    0.897281 0.423994 0.316651 0.163803
C222  C     C_3   0.860827 0.456193 0.285190 -0.325782
H283  H     H_    0.850966 0.488595 0.283882 0.220159
H284  H     H_    0.878170 0.443443 0.227672 0.230772
C223  C     C_3   0.822211 0.429353 0.335373 -1.002026
H285  H     H_    0.831428 0.396513 0.335481 0.269041
H286  H     H_    0.801844 0.429926 0.314395 0.272303
H287  H     H_    0.804267 0.441574 0.393210 0.259880
O78   O     O_3   0.076931 0.489042 0.733355 -0.593326
C224  C     C_3   0.113017 0.463501 0.693497 0.106423
H288  H     H_    0.137759 0.481629 0.645169 0.135205
H289  H     H_    0.108785 0.434206 0.671213 0.154479
C225  C     C_3   0.127948 0.452957 0.743585 -0.304724
H290  H     H_    0.134439 0.482345 0.762607 0.214630
H291  H     H_    0.103071 0.435651 0.793434 0.232869
C226  C     C_3   0.167424 0.426360 0.702589 -0.998717
H292  H     H_    0.161385 0.396461 0.684278 0.269109
H293  H     H_    0.177452 0.419269 0.740374 0.271584
H294  H     H_    0.193006 0.443398 0.653213 0.266990
O79   O     O_3   0.423619 0.991840 0.268042 -0.586334
C227  C     C_3   0.385364 0.970169 0.312117 0.116638
H295  H     H_    0.374107 0.972044 0.371609 0.123709
H296  H     H_    0.387494 0.937282 0.294066 0.155213
C228  C     C_3   0.352981 0.991811 0.304000 -0.331293
H297  H     H_    0.349066 0.024677 0.323304 0.225565
H298  H     H_    0.364098 0.992145 0.244356 0.222860
C229  C     C_3   0.310888 0.969479 0.349082 -0.993012
H299  H     H_    0.313802 0.937188 0.328003 0.268446
H300  H     H_    0.287749 0.986638 0.343824 0.271610
H301  H     H_    0.299360 0.968109 0.408816 0.262331
O80   O     O_3   0.576801 0.989519 0.733878 -0.594285
C230  C     C_3   0.613170 0.964461 0.692783 0.106396
H302  H     H_    0.637216 0.982718 0.643816 0.134155
H303  H     H_    0.608906 0.934804 0.671417 0.157096
C231  C     C_3   0.629347 0.954740 0.741233 -0.307904
H304  H     H_    0.635617 0.984453 0.759767 0.214426
H305  H     H_    0.605207 0.937115 0.791432 0.231657
C232  C     C_3   0.669350 0.928970 0.698790 -0.997520
H306  H     H_    0.663568 0.898732 0.681024 0.269675
H307  H     H_    0.680304 0.922525 0.735402 0.271250
H308  H     H_    0.694170 0.946327 0.648948 0.267030

loop_
_geom_bond_atom_site_label_1
_geom_bond_atom_site_label_2
_ccdc_geom_bond_type
C170  C171  S    
C15   C75   S    
C214  H264  S    
O57   C161  S    
O36   Zn8   S    
C176  H152  S    
N35   H221  S    
C211  H259  S    
C226  H294  S    
O66   C188  S    
C42   C58   S    
C187  H186  S    
N17   H73   S    
C123  O64   S    
C84   C112  S    
C21   N5    S    
C175  H149  S    
C230  H303  S    
O7    Zn11  S    
C26   C50   A    
C6    H10   S    
C228  C229  S    
C219  H276  S    
C84   O47   A    
C38   O58   S    
C29   C33   A    
C165  H118  S    
C161  C162  S    
C210  H255  S    
C188  H189  S    
N16   H44   S    
C173  C174  S    
C212  H261  S    
N20   H79   S    
C201  C202  S    
C146  H66   S    
C223  H286  S    
N34   H219  S    
C231  C232  S    
C69   C117  S    
N12   H36   S    
O19   Zn4   S    
C46   O26   A    
C209  H253  S    
C98   N21   S    
C91   C100  A    
C76   O40   A    
C223  H287  S    
C164  C165  S    
N13   H37   S    
C173  H146  S    
C80   O44   A    
O13   Zn9   S    
C143  H60   S    
O43   Zn7   S    
C227  C228  S    
C41   C49   A    
O58   C164  S    
C160  H107  S    
N14   H40   S    
C221  H281  S    
C205  H244  S    
C194  H203  S    
C25   C29   A    
C162  C163  S    
N20   H80   S    
C116  C121  A    
C27   C31   A    
N27   H177  S    
C151  H87   S    
C28   C32   A    
C5    H9    S    
C213  H262  S    
C21   O77   S    
C196  H207  S    
C157  H99   S    
C155  H95   S    
C94   C97   A    
C149  H81   S    
O65   C185  S    
O39   Zn8   S    
C4    O20   A    
C1    C61   S    
C186  C187  S    
O37   Zn6   S    
C184  H172  S    
C169  H128  S    
N3    H17   S    
C182  H167  S    
C207  H248  S    
C93   H3    S    
C45   O25   A    
C73   O33   A    
C78   C82   T    
N7    H25   S    
C16   C20   S    
C208  H252  S    
C209  C210  S    
C215  H268  S    
C193  H199  S    
O44   Zn8   S    
C51   O51   S    
C190  H193  S    
C168  H125  S    
N22   H139  S    
C232  H308  S    
C94   C96   A    
C227  H296  S    
C203  H239  S    
N26   H176  S    
C217  H272  S    
C96   C104  S    
C17   C133  S    
C224  H288  S    
C210  C211  S    
C229  H300  S    
C180  C181  S    
C169  H129  S    
C92   C95   A    
C226  H292  S    
C128  N4    S    
C89   O14   A    
C39   O59   S    
C179  H159  S    
C79   C81   S    
O80   C230  S    
C14   C130  S    
C124  O63   S    
C145  H65   S    
O10   Zn9   S    
C175  H151  S    
O42   Zn6   S    
N30   H211  S    
C157  H101  S    
C47   O23   A    
C166  H120  S    
C22   O78   S    
C12   C128  S    
C198  C199  S    
C217  H273  S    
C59   C63   T    
C165  C166  S    
C60   C64   T    
C199  H229  S    
C172  H135  S    
C86   O6    A    
C200  H233  S    
C220  H278  S    
C145  H64   S    
C127  N3    S    
C196  H206  S    
C113  C124  A    
C141  C142  S    
C27   C51   A    
C116  C118  A    
C19   O71   S    
C88   O12   A    
C100  N23   S    
C159  H104  S    
O8    Zn12  S    
C127  C131  S    
C171  H132  S    
O33   Zn5   S    
O55   C155  S    
N33   H218  S    
C125  C129  S    
C5    C21   S    
N2    H15   S    
C192  H197  S    
O59   C167  S    
N28   H179  S    
C79   O41   A    
C214  H266  S    
C134  N10   S    
N36   H223  S    
C126  N26   S    
N25   H174  S    
C8    O76   S    
C167  H123  S    
C9    C133  S    
C2    O2    A    
C183  H169  S    
C154  H93   S    
C83   O45   A    
C113  C117  A    
C133  N33   S    
C216  H269  S    
C213  C214  S    
C225  H290  S    
N8    H28   S    
N21   H137  S    
C216  C217  S    
C3    O19   A    
C178  H157  S    
C105  C107  T    
O26   Zn3   S    
C198  H227  S    
C32   C36   A    
C103  C111  T    
C146  H67   S    
C211  H258  S    
C180  H162  S    
C138  H47   S    
C183  C184  S    
C163  H113  S    
C184  H171  S    
O49   C137  S    
C204  H241  S    
C152  H89   S    
C5    O73   S    
C70   C110  T    
C170  H130  S    
C116  H8    S    
N4    H20   S    
C203  C204  S    
C72   C108  S    
C87   O11   A    
C139  H49   S    
C224  C225  S    
O24   Zn2   S    
C53   C65   T    
N9    H29   S    
O2    Zn1   S    
C179  C180  S    
C43   C59   S    
C44   C52   A    
C201  H235  S    
N33   H217  S    
C144  C145  S    
C148  H71   S    
O73   C209  S    
C155  C156  S    
C189  H190  S    
C174  H148  S    
C122  O61   S    
C95   C103  S    
C188  H188  S    
C7    H11   S    
C119  C121  A    
C4    O4    A    
O45   Zn9   S    
C30   C34   A    
C199  H231  S    
C142  H58   S    
C143  H59   S    
C80   C82   S    
O16   Zn12  S    
C220  H280  S    
C104  C112  T    
C125  N1    S    
C185  H181  S    
C141  H54   S    
C56   C68   T    
C22   N6    S    
C9    C125  S    
C46   O22   A    
N36   H224  S    
C204  H242  S    
C151  H86   S    
O48   Zn12  S    
C11   C127  S    
C5    C9    S    
N5    H21   S    
C202  H237  S    
C130  N30   S    
C178  H156  S    
C17   N13   S    
C8    C12   S    
C7    O75   S    
N1    H13   S    
C218  H275  S    
C20   C136  S    
C161  H110  S    
N24   H143  S    
O76   C218  S    
C42   C50   A    
C167  C168  S    
O5    Zn9   S    
C114  C123  A    
O62   C176  S    
N7    H26   S    
O31   Zn7   S    
C26   C30   A    
C129  N29   S    
O29   Zn5   S    
C72   O32   A    
C134  N34   S    
C163  H114  S    
C225  C226  S    
C177  H154  S    
O21   Zn1   S    
C166  H122  S    
C170  H131  S    
N25   H173  S    
C127  N27   S    
C205  H243  S    
N18   H75   S    
C206  C207  S    
C207  C208  S    
C16   C76   S    
C153  H90   S    
C226  H293  S    
C185  C186  S    
C45   O21   A    
C66   C86   S    
C138  C139  S    
C73   O37   A    
C194  H202  S    
C177  C178  S    
C20   N16   S    
C54   C66   T    
C186  H184  S    
C163  H115  S    
C23   O79   S    
C17   O69   S    
C14   C22   S    
C175  H150  S    
C137  H45   S    
C168  C169  S    
C222  H283  S    
C158  C159  S    
C228  H298  S    
C19   N15   S    
C219  H277  S    
C84   O48   A    
C139  H51   S    
C7    C23   S    
C8    C24   S    
C165  H119  S    
C18   C134  S    
C192  C193  S    
C231  H305  S    
N23   H142  S    
C37   C41   A    
C154  H94   S    
C114  C117  A    
N32   H215  S    
C91   C95   A    
C40   C44   A    
C156  C157  S    
C15   C131  S    
C141  H55   S    
C12   C136  S    
C34   O54   S    
C144  H61   S    
C28   N20   S    
C209  H254  S    
C131  O67   S    
C181  H163  S    
C10   C126  S    
C18   O70   S    
O22   Zn1   S    
C47   O27   A    
C92   C99   A    
C48   O28   A    
C205  H245  S    
C58   C62   T    
C136  N36   S    
C9    C45   S    
O61   C173  S    
C71   C107  S    
O25   Zn3   S    
C94   H4    S    
O54   C152  S    
C11   C47   S    
C142  H56   S    
O3    Zn2   S    
C143  C144  S    
C12   C48   S    
C92   H2    S    
N6    H23   S    
C212  C213  S    
C160  H106  S    
N15   H41   S    
C15   C19   S    
C162  H112  S    
C197  H225  S    
C88   O8    A    
C71   O30   A    
N11   H33   S    
C213  H263  S    
O23   Zn2   S    
C24   N8    S    
C147  H68   S    
C97   N22   S    
C157  H100  S    
C144  H62   S    
C126  C130  S    
C19   C135  S    
C6    C22   S    
C188  C189  S    
C191  H195  S    
N31   H214  S    
O52   C146  S    
C149  H82   S    
C150  H84   S    
O18   Zn3   S    
C207  H249  S    
C208  H251  S    
C193  H200  S    
O51   C143  S    
C83   O46   A    
C1    O1    A    
C232  H307  S    
C202  H238  S    
C2    O18   A    
C120  C123  A    
C149  C150  S    
C203  H240  S    
C206  H246  S    
C140  H52   S    
O14   Zn10  S    
C129  O65   S    
C176  H153  S    
C229  H301  S    
C8    H12   S    
C85   O9    A    
O28   Zn4   S    
C153  C154  S    
C89   O13   A    
C187  H185  S    
C179  H160  S    
C212  H260  S    
N17   H74   S    
N29   H210  S    
C50   O50   S    
C193  H201  S    
C132  N32   S    
C182  H166  S    
O11   Zn12  S    
C230  C231  S    
C147  C148  S    
N30   H212  S    
C172  H136  S    
C158  H102  S    
C140  H53   S    
C71   O29   A    
O74   C212  S    
C159  C160  S    
O72   C206  S    
N11   H34   S    
C33   C37   A    
N19   H77   S    
O38   Zn5   S    
C67   C87   S    
C199  H230  S    
C35   C39   A    
C202  H236  S    
C200  H232  S    
C11   C135  S    
C30   C54   S    
C23   N7    S    
C156  H97   S    
C77   C81   T    
C6    O74   S    
N12   H35   S    
C133  N9    S    
C159  H105  S    
C171  H133  S    
C74   O34   A    
C155  H96   S    
N2    H16   S    
N28   H180  S    
N13   H38   S    
C173  H145  S    
C80   O43   A    
C31   C35   A    
C222  C223  S    
C20   O72   S    
C14   C74   S    
C160  H108  S    
N14   H39   S    
C167  H124  S    
O77   C221  S    
C194  C195  S    
O68   C194  S    
O20   Zn4   S    
N35   H222  S    
O34   Zn6   S    
C3    O3    A    
C75   O39   A    
O9    Zn10  S    
C52   O52   S    
O32   Zn8   S    
C171  C172  S    
C225  H291  S    
C6    C10   S    
C196  H208  S    
C216  H270  S    
O60   C170  S    
C3    C63   S    
C98   C101  A    
C4    C64   S    
C191  C192  S    
C136  N12   S    
C90   O15   A    
C220  H279  S    
C169  H127  S    
C195  H204  S    
C182  C183  S    
C41   C57   S    
N8    H27   S    
C154  H92   S    
C126  N2    S    
C43   C51   A    
O53   C149  S    
C44   C60   S    
O15   Zn11  S    
C215  H267  S    
N10   H32   S    
C190  H194  S    
C131  N31   S    
C152  H88   S    
C16   C132  S    
C25   C49   A    
N3    H18   S    
C13   C17   S    
C18   N14   S    
C99   C102  A    
O47   Zn11  S    
N26   H175  S    
C139  H50   S    
C217  H271  S    
C140  C141  S    
C90   O16   A    
C218  H274  S    
C224  H289  S    
C229  H299  S    
C31   C55   S    
C172  H134  S    
C32   C56   S    
C187  H187  S    
O50   C140  S    
C74   O38   A    
O64   C182  S    
C25   N17   S    
C150  C151  S    
C148  H70   S    
C14   C18   S    
C78   C120  S    
C230  H302  S    
C180  H161  S    
C75   O35   A    
C189  H191  S    
C174  H147  S    
O56   C158  S    
N31   H213  S    
C191  H196  S    
N10   H31   S    
C7    C11   S    
N16   H43   S    
C106  C108  T    
C150  H83   S    
C114  H6    S    
O70   C200  S    
C142  H57   S    
C70   C118  S    
C38   C42   A    
C200  C201  S    
O17   Zn3   S    
C145  H63   S    
C185  H182  S    
N15   H42   S    
C89   C109  S    
N29   H209  S    
C36   O56   S    
C57   C61   T    
C121  O62   S    
N1    H14   S    
C48   O24   A    
C69   C109  T    
C195  C196  S    
C113  H5    S    
C79   O42   A    
C10   C46   S    
C33   O53   S    
N23   H141  S    
C29   C53   S    
N24   H144  S    
C115  C118  A    
C130  O66   S    
C183  H168  S    
C16   C24   S    
C115  C122  A    
C91   H1    S    
C132  O68   S    
C184  H170  S    
C49   O49   S    
C128  C132  S    
C35   O55   S    
N21   H138  S    
C177  H155  S    
C178  H158  S    
C135  N35   S    
C166  H121  S    
C101  C105  S    
O46   Zn10  S    
C115  H7    S    
C206  H247  S    
C13   C21   S    
C27   N19   S    
N9    H30   S    
C36   C40   A    
C146  C147  S    
C211  H257  S    
C222  H284  S    
C153  H91   S    
C195  H205  S    
O75   C215  S    
C138  H48   S    
C39   C43   A    
O41   Zn5   S    
C186  H183  S    
C215  C216  S    
N18   H76   S    
N19   H78   S    
C152  C153  S    
C137  H46   S    
C168  H126  S    
C158  H103  S    
O71   C203  S    
C1    O17   A    
O67   C191  S    
O69   C197  S    
C100  C102  A    
O4    Zn2   S    
C192  H198  S    
C85   O5    A    
C86   O10   A    
C125  N25   S    
O6    Zn10  S    
N32   H216  S    
N34   H220  S    
C201  H234  S    
C156  H98   S    
C93   C96   A    
O30   Zn6   S    
C68   C88   S    
C148  H72   S    
C87   O7    A    
C137  C138  S    
C90   C110  S    
C181  H164  S    
C37   O57   S    
C99   N24   S    
C190  H192  S    
C174  C175  S    
C223  H285  S    
O79   C227  S    
C164  H116  S    
C119  C122  A    
C13   C129  S    
C128  N28   S    
C34   C38   A    
C10   C134  S    
C13   C73   S    
C227  H295  S    
C77   C119  S    
N6    H24   S    
C221  H282  S    
C65   C85   S    
C228  H297  S    
C162  H111  S    
O40   Zn7   S    
C197  H226  S    
C26   N18   S    
C204  C205  S    
O35   Zn7   S    
C151  H85   S    
N22   H140  S    
C181  H165  S    
C214  H265  S    
N5    H22   S    
C24   O80   S    
O12   Zn11  S    
C147  H69   S    
C28   C52   A    
N4    H19   S    
C210  H256  S    
C55   C67   T    
C15   C23   S    
C176  C177  S    
C135  N11   S    
C102  C106  S    
C218  C219  S    
C83   C111  S    
C189  C190  S    
C161  H109  S    
O27   Zn4   S    
C221  C222  S    
O63   C179  S    
C120  C124  A    
C198  H228  S    
C197  C198  S    
C208  H250  S    
N27   H178  S    
C231  H304  S    
C72   O31   A    
C164  H117  S    
C232  H306  S    
C76   O36   A    
C40   O60   S    
C93   C98   A    
C219  C220  S    
C97   C101  A    
C2    C62   S    
O1    Zn1   S    
O78   C224  S    
