data_mof_unit_30662.cif
_audit_creation_date              2013-03-05T15:56:43-0500
_audit_creation_method            fapswitch 2.2
_symmetry_space_group_name_H-M    P1
_symmetry_Int_Tables_number       1
_space_group_crystal_system       triclinic
_cell_length_a                    20.625453
_cell_length_b                    21.92698
_cell_length_c                    13.85071
_cell_angle_alpha                 89.913621
_cell_angle_beta                  91.670685
_cell_angle_gamma                 89.85657
_cell_volume                      6261.34731172

loop_
_atom_site_label
_atom_site_type_symbol
_atom_site_description
_atom_site_fract_x
_atom_site_fract_y
_atom_site_fract_z
_atom_type_partial_charge
O1    O     O_R   0.064880 0.435140 0.582280 -0.581120
O2    O     O_R   0.935120 0.564860 0.417720 -0.582638
O3    O     O_R   0.935120 0.564860 0.582280 -0.587017
O4    O     O_R   0.064880 0.435140 0.417720 -0.585548
O5    O     O_R   0.935120 0.435140 0.417720 -0.582518
O6    O     O_R   0.064880 0.564860 0.582280 -0.591322
O7    O     O_R   0.064880 0.564860 0.417720 -0.584420
O8    O     O_R   0.935120 0.435140 0.582280 -0.602252
O9    O     O_R   0.564880 0.935140 0.582280 -0.586779
O10   O     O_R   0.435120 0.064860 0.417720 -0.591104
O11   O     O_R   0.435120 0.064860 0.582280 -0.586805
O12   O     O_R   0.564880 0.935140 0.417720 -0.599812
O13   O     O_R   0.435120 0.935140 0.417720 -0.582571
O14   O     O_R   0.564880 0.064860 0.582280 -0.583115
O15   O     O_R   0.564880 0.064860 0.417720 -0.586028
O16   O     O_R   0.435120 0.935140 0.582280 -0.582715
C1    C     C_R   0.088451 0.417055 0.500760 0.873629
C2    C     C_R   0.913184 0.584330 0.499203 0.871580
C3    C     C_R   0.914257 0.414606 0.499385 0.860339
C4    C     C_R   0.086213 0.585001 0.500850 0.859728
C5    C     C_R   0.587310 0.915888 0.500357 0.856816
C6    C     C_R   0.414302 0.085429 0.499080 0.863732
C7    C     C_R   0.411850 0.916905 0.499233 0.878959
C8    C     C_R   0.587135 0.083850 0.500743 0.870999
Cu1   Cu    Cu3+1 0.000000 0.500000 0.597420 0.933959
Cu2   Cu    Cu3+1 0.000000 0.500000 0.402580 0.942497
Cu3   Cu    Cu3+1 0.500000 0.000000 0.597420 0.939375
Cu4   Cu    Cu3+1 0.500000 0.000000 0.402580 0.933741
C9    C     C_R   0.112168 0.694262 0.495992 -0.294527
C10   C     C_R   0.886345 0.306664 0.521794 -0.298227
C11   C     C_R   0.885277 0.691039 0.527708 -0.314089
C12   C     C_R   0.120846 0.313026 0.463958 -0.313525
C13   C     C_R   0.616759 0.190714 0.483540 -0.304233
C14   C     C_R   0.381687 0.810788 0.523707 -0.312271
C15   C     C_R   0.388717 0.194682 0.505720 -0.310394
C16   C     C_R   0.623185 0.814561 0.450534 -0.298520
C17   C     C_R   0.133783 0.634247 0.503553 -0.160974
C18   C     C_R   0.866270 0.365753 0.498995 -0.163334
C19   C     C_R   0.865799 0.633500 0.497333 -0.171267
C20   C     C_R   0.138756 0.369988 0.499742 -0.168966
C21   C     C_R   0.636266 0.131200 0.501880 -0.157143
C22   C     C_R   0.362106 0.869628 0.499434 -0.164015
C23   C     C_R   0.367157 0.134990 0.496012 -0.176237
C24   C     C_R   0.637769 0.868949 0.497975 -0.179356
C25   C     C_R   0.199835 0.621327 0.516212 0.439839
C26   C     C_R   0.800886 0.378613 0.479139 0.435433
C27   C     C_R   0.801444 0.622902 0.467661 0.462577
C28   C     C_R   0.204468 0.383460 0.520410 0.437327
C29   C     C_R   0.702036 0.116698 0.515021 0.436771
C30   C     C_R   0.295959 0.883870 0.486079 0.435548
C31   C     C_R   0.301160 0.122586 0.481599 0.479620
C32   C     C_R   0.701779 0.881225 0.529178 0.429417
C33   C     C_R   0.244253 0.669268 0.532389 -0.114376
C34   C     C_R   0.754146 0.332299 0.486715 -0.109906
C35   C     C_R   0.759511 0.672624 0.449557 -0.097029
C36   C     C_R   0.252218 0.338543 0.502260 -0.107513
C37   C     C_R   0.748083 0.164034 0.525009 -0.112298
C38   C     C_R   0.249002 0.838033 0.501619 -0.112898
C39   C     C_R   0.257098 0.170608 0.463024 -0.095096
C40   C     C_R   0.750449 0.836173 0.520697 -0.099814
C41   C     C_R   0.223205 0.730044 0.517436 -0.084098
C42   C     C_R   0.774816 0.271627 0.505167 -0.085305
C43   C     C_R   0.778420 0.730817 0.484181 -0.095801
C44   C     C_R   0.232291 0.278547 0.479450 -0.087526
C45   C     C_R   0.728408 0.224539 0.503938 -0.086318
C46   C     C_R   0.269571 0.777152 0.516870 -0.091730
C47   C     C_R   0.278177 0.231092 0.479814 -0.099777
C48   C     C_R   0.733097 0.778669 0.481955 -0.087071
C49   C     C_R   0.156217 0.743298 0.499620 0.045293
C50   C     C_R   0.841704 0.258143 0.523266 0.049852
C51   C     C_R   0.841255 0.739882 0.526513 0.069737
C52   C     C_R   0.166744 0.266442 0.453775 0.071959
C53   C     C_R   0.662487 0.237561 0.478238 0.044775
C54   C     C_R   0.336485 0.763521 0.531866 0.060514
C55   C     C_R   0.344528 0.243588 0.501793 0.071659
C56   C     C_R   0.670578 0.769397 0.439562 0.075725
C57   C     C_R   0.309272 0.657336 0.562135 0.437531
C58   C     C_R   0.687463 0.345078 0.470833 0.481450
C59   C     C_R   0.699644 0.665084 0.398232 0.447235
C60   C     C_R   0.319153 0.352086 0.503709 0.440472
C61   C     C_R   0.813234 0.151830 0.553031 0.457522
C62   C     C_R   0.182121 0.851580 0.503885 0.473689
C63   C     C_R   0.193004 0.159316 0.428197 0.455603
C64   C     C_R   0.815554 0.846881 0.551862 0.437600
C65   C     C_R   0.861225 0.196945 0.543343 0.052585
C66   C     C_R   0.135755 0.805110 0.490148 0.056357
C67   C     C_R   0.149183 0.208697 0.415532 0.048659
C68   C     C_R   0.858983 0.797674 0.564218 0.056883
C69   C     C_R   0.356302 0.703538 0.557700 0.055795
C70   C     C_R   0.643944 0.297431 0.451360 0.052226
C71   C     C_R   0.657327 0.715630 0.385988 0.045504
C72   C     C_R   0.365141 0.304744 0.514661 0.062255
H1    H     H_    0.060561 0.700514 0.487852 0.133502
H2    H     H_    0.937243 0.300669 0.538393 0.135911
H3    H     H_    0.934944 0.696297 0.553224 0.156097
H4    H     H_    0.070092 0.305640 0.446126 0.156301
H5    H     H_    0.565317 0.199325 0.475712 0.133679
H6    H     H_    0.433081 0.803011 0.535349 0.159226
H7    H     H_    0.440157 0.201619 0.517703 0.151865
H8    H     H_    0.574006 0.807930 0.423324 0.160654
C73   C     C_R   0.057193 0.501202 0.799482 0.242154
C74   C     C_R   0.943695 0.510383 0.200653 0.271295
C75   C     C_R   0.942622 0.496934 0.794408 0.260965
C76   C     C_R   0.056994 0.494699 0.204947 0.274388
C77   C     C_R   0.555737 0.011898 0.799688 0.265489
C78   C     C_R   0.442540 0.000908 0.200674 0.245454
C79   C     C_R   0.443578 0.990521 0.794929 0.277307
C80   C     C_R   0.557277 0.998980 0.205468 0.258804
N1    N     N_R   0.000000 0.500000 0.743810 -0.195632
N2    N     N_R   1.000000 0.500000 0.256190 -0.225487
N3    N     N_R   0.500000 0.000000 0.743810 -0.231808
N4    N     N_R   0.500000 0.000000 0.256190 -0.196477
C81   C     C_R   0.943766 0.484918 0.896469 -0.071818
C82   C     C_R   0.056255 0.514097 0.105836 -0.074150
C83   C     C_R   0.056620 0.515430 0.900692 -0.070094
C84   C     C_R   0.943326 0.490922 0.101432 -0.054969
C85   C     C_R   0.442767 0.010491 0.893775 -0.067994
C86   C     C_R   0.556355 0.986583 0.103908 -0.072748
C87   C     C_R   0.556833 0.992265 0.899141 -0.056391
C88   C     C_R   0.442678 0.014363 0.098992 -0.069024
C89   C     C_R   0.999929 0.501344 0.949572 -0.010452
C90   C     C_R   0.999772 0.502326 0.051444 -0.059962
C91   C     C_R   0.499762 0.001480 0.948612 -0.064224
C92   C     C_R   0.499634 0.001089 0.050461 -0.010167
C93   C     C_R   0.891029 0.458470 0.947326 0.100016
C94   C     C_R   0.109746 0.540148 0.059234 0.158198
C95   C     C_R   0.110708 0.540318 0.955305 0.114041
C96   C     C_R   0.890306 0.463084 0.050971 0.159531
C97   C     C_R   0.388097 0.035209 0.939672 0.162642
C98   C     C_R   0.610008 0.961497 0.053992 0.099651
C99   C     C_R   0.610795 0.966092 0.950526 0.160851
C100  C     C_R   0.388037 0.038003 0.043696 0.098123
O17   O     O_3   0.220691 0.561821 0.506796 -0.517284
C101  C     C_3   0.248828 0.555761 0.415431 -0.196172
H9    H     H_    0.296653 0.578749 0.413030 0.166400
H10   H     H_    0.216475 0.573564 0.355987 0.099699
H11   H     H_    0.257418 0.506871 0.401848 0.216116
O18   O     O_3   0.783137 0.436488 0.449657 -0.541910
C102  C     C_3   0.778302 0.436936 0.348062 -0.217263
H12   H     H_    0.749906 0.398023 0.317387 0.134912
H13   H     H_    0.827646 0.436616 0.318993 0.167792
H14   H     H_    0.752654 0.479036 0.324183 0.220198
O19   O     O_3   0.778037 0.564029 0.468335 -0.535442
C103  C     C_3   0.748620 0.554842 0.558231 -0.272147
H15   H     H_    0.705028 0.584120 0.565982 0.130269
H16   H     H_    0.782794 0.563375 0.619611 0.132337
H17   H     H_    0.732980 0.507009 0.563983 0.230148
O20   O     O_3   0.220713 0.441027 0.554509 -0.525288
C104  C     C_3   0.249653 0.437340 0.648456 -0.182008
H18   H     H_    0.303166 0.435922 0.646361 0.206298
H19   H     H_    0.232806 0.397973 0.691604 0.093475
H20   H     H_    0.238260 0.479705 0.687620 0.154948
O21   O     O_3   0.720591 0.056137 0.512233 -0.518363
C105  C     C_3   0.747485 0.043488 0.421366 -0.192938
H21   H     H_    0.800976 0.047922 0.425626 0.176918
H22   H     H_    0.728597 0.072994 0.361474 0.095589
H23   H     H_    0.736018 0.995757 0.401138 0.171749
O22   O     O_3   0.278543 0.943091 0.461509 -0.535715
C106  C     C_3   0.250900 0.945330 0.366681 -0.184176
H24   H     H_    0.197412 0.943234 0.367525 0.193537
H25   H     H_    0.268564 0.908992 0.318141 0.094849
H26   H     H_    0.262354 0.990138 0.334402 0.194196
O23   O     O_3   0.279226 0.064255 0.497224 -0.520707
C107  C     C_3   0.263589 0.060061 0.595706 -0.305042
H27   H     H_    0.223910 0.092117 0.614103 0.132178
H28   H     H_    0.306683 0.068750 0.643784 0.155568
H29   H     H_    0.246151 0.013481 0.610452 0.215146
O24   O     O_3   0.717154 0.938392 0.563460 -0.519764
C108  C     C_3   0.715569 0.937086 0.664583 -0.187917
H30   H     H_    0.740335 0.896556 0.697484 0.142445
H31   H     H_    0.664509 0.938885 0.686292 0.168997
H32   H     H_    0.741574 0.977665 0.693090 0.193178
O25   O     O_3   0.327768 0.599648 0.593186 -0.536952
C109  C     C_3   0.313972 0.594459 0.692020 -0.294752
H33   H     H_    0.260778 0.595462 0.703137 0.172396
H34   H     H_    0.338290 0.630801 0.735837 0.128301
H35   H     H_    0.332929 0.550040 0.718975 0.176495
O26   O     O_3   0.664738 0.404510 0.468575 -0.551401
C110  C     C_3   0.639661 0.417892 0.559936 -0.360337
H36   H     H_    0.678244 0.415085 0.617718 0.155952
H37   H     H_    0.598789 0.387247 0.577870 0.153760
H38   H     H_    0.620461 0.465187 0.558660 0.174191
O27   O     O_3   0.687712 0.610899 0.348981 -0.558601
C111  C     C_3   0.635187 0.578969 0.389126 -0.298882
H39   H     H_    0.597407 0.570775 0.332036 0.157000
H40   H     H_    0.612037 0.602146 0.451017 0.116223
H41   H     H_    0.652403 0.533459 0.413723 0.242989
O28   O     O_3   0.339713 0.411517 0.491046 -0.552587
C112  C     C_3   0.353607 0.419703 0.392681 -0.344413
H42   H     H_    0.309674 0.412324 0.345570 0.153331
H43   H     H_    0.393524 0.389171 0.369903 0.149434
H44   H     H_    0.369975 0.467320 0.381986 0.186769
O29   O     O_3   0.831352 0.094392 0.585891 -0.551307
C113  C     C_3   0.826573 0.093064 0.687168 -0.293555
H45   H     H_    0.776067 0.101246 0.708818 0.162991
H46   H     H_    0.859190 0.126981 0.723037 0.124793
H47   H     H_    0.841294 0.047150 0.713544 0.194890
O30   O     O_3   0.161293 0.910418 0.521547 -0.572408
C114  C     C_3   0.156205 0.917495 0.622282 -0.370861
H48   H     H_    0.204296 0.912358 0.659924 0.169036
H49   H     H_    0.121071 0.884693 0.652679 0.153474
H50   H     H_    0.137988 0.964092 0.637023 0.173060
O31   O     O_3   0.177115 0.101770 0.393254 -0.557406
C115  C     C_3   0.132013 0.072906 0.453455 -0.301705
H51   H     H_    0.089157 0.058577 0.408979 0.156341
H52   H     H_    0.115115 0.101129 0.514874 0.114163
H53   H     H_    0.154037 0.030634 0.483413 0.258941
O32   O     O_3   0.836141 0.905118 0.575554 -0.549501
C116  C     C_3   0.866721 0.930159 0.494816 -0.269600
H54   H     H_    0.911517 0.904463 0.477623 0.126105
H55   H     H_    0.881217 0.977651 0.512170 0.213161
H56   H     H_    0.833333 0.931549 0.430266 0.146314
C117  C     C_3   0.931846 0.175764 0.549796 -0.351823
C118  C     C_3   0.947736 0.136025 0.462982 -0.847650
H57   H     H_    0.917439 0.094332 0.459913 0.269993
H58   H     H_    0.939810 0.162150 0.394870 0.244197
H59   H     H_    0.999120 0.121416 0.469007 0.221013
H60   H     H_    0.967940 0.212608 0.553530 0.174244
H61   H     H_    0.940898 0.149066 0.616926 0.211334
C119  C     C_3   0.066441 0.824821 0.463346 -0.371209
C120  C     C_3   0.062485 0.853834 0.362979 -0.824682
H62   H     H_    0.090705 0.896774 0.361213 0.262999
H63   H     H_    0.081257 0.821691 0.308447 0.245765
H64   H     H_    0.011140 0.864821 0.343549 0.226973
H65   H     H_    0.030917 0.787633 0.462033 0.179436
H66   H     H_    0.048886 0.858059 0.517103 0.212177
C121  C     C_3   0.086901 0.200807 0.354901 -0.385562
C122  C     C_3   0.089080 0.237063 0.260657 -0.832244
H67   H     H_    0.093391 0.286706 0.274489 0.252166
H68   H     H_    0.130930 0.221913 0.217949 0.258187
H69   H     H_    0.043759 0.229144 0.217286 0.233218
H70   H     H_    0.078380 0.152805 0.333959 0.235805
H71   H     H_    0.044303 0.214739 0.396400 0.193525
C123  C     C_3   0.921224 0.807108 0.624509 -0.384293
C124  C     C_3   0.916015 0.778289 0.724410 -0.839464
H72   H     H_    0.875139 0.799180 0.763188 0.253910
H73   H     H_    0.908035 0.728424 0.718943 0.256768
H74   H     H_    0.961632 0.786232 0.767045 0.234834
H75   H     H_    0.963682 0.788457 0.587846 0.171041
H76   H     H_    0.932356 0.856087 0.635686 0.236976
C125  C     C_3   0.427055 0.687440 0.580408 -0.356745
C126  C     C_3   0.464119 0.677703 0.487882 -0.862174
H77   H     H_    0.444546 0.637410 0.448325 0.260519
H78   H     H_    0.459967 0.718193 0.440003 0.243676
H79   H     H_    0.516186 0.669521 0.506188 0.230890
H80   H     H_    0.450669 0.722972 0.626165 0.176420
H81   H     H_    0.431817 0.645134 0.624075 0.233816
C127  C     C_3   0.581731 0.312424 0.393744 -0.376006
C128  C     C_3   0.596818 0.333582 0.291600 -0.820042
H82   H     H_    0.624742 0.376787 0.293130 0.270539
H83   H     H_    0.625105 0.298031 0.254082 0.242795
H84   H     H_    0.550783 0.341675 0.249898 0.228452
H85   H     H_    0.548651 0.273300 0.384504 0.185779
H86   H     H_    0.554483 0.348986 0.430228 0.212856
C129  C     C_3   0.602050 0.713757 0.310318 -0.375661
C130  C     C_3   0.612333 0.759858 0.229152 -0.843295
H87   H     H_    0.610927 0.807371 0.256237 0.253935
H88   H     H_    0.659779 0.751600 0.195452 0.258121
H89   H     H_    0.573268 0.754810 0.172872 0.232346
H90   H     H_    0.597976 0.668772 0.274829 0.235200
H91   H     H_    0.554817 0.721990 0.343968 0.183371
C131  C     C_3   0.434871 0.320755 0.542610 -0.393113
C132  C     C_3   0.449834 0.306843 0.649042 -0.849180
H92   H     H_    0.418015 0.334617 0.695216 0.251072
H93   H     H_    0.442383 0.257866 0.665509 0.256100
H94   H     H_    0.501167 0.318472 0.666871 0.233786
H95   H     H_    0.468633 0.295855 0.496431 0.173288
H96   H     H_    0.445262 0.369815 0.531142 0.239265
C133  C     C_3   0.113890 0.464329 0.767194 -0.364867
C134  C     C_3   0.097360 0.396092 0.772005 -0.789221
H97   H     H_    0.048470 0.386203 0.740243 0.267644
H98   H     H_    0.133285 0.368632 0.733035 0.228996
H99   H     H_    0.097849 0.380877 0.848595 0.222883
H100  H     H_    0.128783 0.480545 0.696004 0.247670
H101  H     H_    0.156822 0.469682 0.815328 0.194080
C135  C     C_3   0.913332 0.573440 0.210559 -0.401251
C136  C     C_3   0.844032 0.573256 0.244858 -0.765391
H102  H     H_    0.839925 0.543088 0.308019 0.290827
H103  H     H_    0.830267 0.620236 0.266047 0.247166
H104  H     H_    0.809837 0.559026 0.185989 0.225793
H105  H     H_    0.944177 0.602531 0.258431 0.225531
H106  H     H_    0.912952 0.598045 0.140113 0.178901
C137  C     C_3   0.881695 0.526313 0.753403 -0.357439
C138  C     C_3   0.886284 0.595830 0.764887 -0.813604
H107  H     H_    0.933264 0.613740 0.740085 0.270623
H108  H     H_    0.846239 0.618866 0.723977 0.231896
H109  H     H_    0.882426 0.608131 0.842323 0.230913
H110  H     H_    0.870724 0.510288 0.679469 0.232237
H111  H     H_    0.838500 0.513673 0.792831 0.200013
C139  C     C_3   0.099281 0.438484 0.222185 -0.349355
C140  C     C_3   0.162631 0.450695 0.277711 -0.841097
H112  H     H_    0.154818 0.484605 0.335161 0.284347
H113  H     H_    0.180859 0.407624 0.310903 0.245836
H114  H     H_    0.200436 0.466919 0.228537 0.209225
H115  H     H_    0.070919 0.402552 0.258103 0.216287
H116  H     H_    0.111928 0.416917 0.152406 0.170563
C141  C     C_3   0.583310 0.075801 0.789291 -0.348674
C142  C     C_3   0.652664 0.077743 0.755867 -0.866505
H117  H     H_    0.658871 0.048127 0.692516 0.293226
H118  H     H_    0.664411 0.125264 0.734876 0.237697
H119  H     H_    0.686861 0.064136 0.815326 0.218918
H120  H     H_    0.551541 0.103705 0.740515 0.222530
H121  H     H_    0.582204 0.100547 0.859412 0.174439
C143  C     C_3   0.385153 0.965818 0.234862 -0.363415
C144  C     C_3   0.399610 0.897110 0.229616 -0.789050
H122  H     H_    0.448596 0.885731 0.259964 0.269071
H123  H     H_    0.363367 0.870653 0.269506 0.230003
H124  H     H_    0.397735 0.882060 0.153006 0.222837
H125  H     H_    0.371293 0.982510 0.306208 0.242009
H126  H     H_    0.341664 0.972493 0.188363 0.194824
C145  C     C_3   0.409290 0.929504 0.780935 -0.341490
C146  C     C_3   0.341756 0.933602 0.733711 -0.849301
H127  H     H_    0.340520 0.967863 0.675199 0.277658
H128  H     H_    0.328266 0.888547 0.702804 0.244070
H129  H     H_    0.305171 0.944962 0.788019 0.214509
H130  H     H_    0.440361 0.897738 0.740486 0.217384
H131  H     H_    0.404104 0.905978 0.851623 0.168183
C147  C     C_3   0.616993 0.030733 0.245357 -0.362913
C148  C     C_3   0.608354 0.100149 0.236268 -0.788660
H132  H     H_    0.560305 0.115503 0.261127 0.270753
H133  H     H_    0.646821 0.124245 0.278610 0.233672
H134  H     H_    0.611824 0.113939 0.159347 0.223641
H135  H     H_    0.630200 0.013917 0.318253 0.227838
H136  H     H_    0.660165 0.020948 0.203749 0.198174
C149  C     C_3   0.844888 0.414543 0.893932 -0.391088
C150  C     C_3   0.773937 0.436408 0.886748 -0.900087
H137  H     H_    0.741508 0.401944 0.918742 0.243780
H138  H     H_    0.767184 0.480579 0.924445 0.255922
H139  H     H_    0.758049 0.441937 0.809881 0.236084
H140  H     H_    0.861710 0.405007 0.819954 0.195994
H141  H     H_    0.847161 0.369497 0.930727 0.206511
C151  C     C_3   0.155728 0.579738 0.120026 -0.410175
C152  C     C_3   0.126042 0.642637 0.136517 -0.845606
H142  H     H_    0.115129 0.665953 0.066719 0.243737
H143  H     H_    0.080504 0.638370 0.176939 0.255572
H144  H     H_    0.160615 0.671095 0.179673 0.240717
H145  H     H_    0.165488 0.559471 0.191826 0.208062
H146  H     H_    0.203703 0.585165 0.087707 0.218899
C153  C     C_3   0.164107 0.574664 0.903882 -0.390471
C154  C     C_3   0.231326 0.544698 0.916879 -0.913917
H147  H     H_    0.231596 0.507788 0.971948 0.257433
H148  H     H_    0.247272 0.524909 0.847934 0.225063
H149  H     H_    0.267809 0.579472 0.939264 0.242549
H150  H     H_    0.152555 0.580004 0.825508 0.190167
H151  H     H_    0.166302 0.622107 0.931535 0.206918
C155  C     C_3   0.840345 0.429679 0.109271 -0.413911
C156  C     C_3   0.869417 0.372131 0.155838 -0.867376
H152  H     H_    0.888712 0.341499 0.099659 0.249627
H153  H     H_    0.909241 0.383858 0.208174 0.261580
H154  H     H_    0.831378 0.347267 0.194983 0.236547
H155  H     H_    0.821737 0.460093 0.164905 0.188119
H156  H     H_    0.796974 0.416199 0.066349 0.227806
C157  C     C_3   0.338126 0.069307 0.876905 -0.412192
C158  C     C_3   0.364823 0.130580 0.843832 -0.856343
H157  H     H_    0.378624 0.159271 0.907103 0.247416
H158  H     H_    0.407988 0.123675 0.798907 0.257844
H159  H     H_    0.327208 0.155029 0.799620 0.239325
H160  H     H_    0.324622 0.042811 0.812015 0.201473
H161  H     H_    0.292186 0.077398 0.913671 0.220832
C159  C     C_3   0.657536 0.919019 0.108592 -0.389208
C160  C     C_3   0.727672 0.942702 0.115971 -0.903263
H162  H     H_    0.761479 0.908455 0.086330 0.246039
H163  H     H_    0.733317 0.986311 0.076134 0.252185
H164  H     H_    0.742663 0.950026 0.192779 0.235091
H165  H     H_    0.640888 0.909528 0.182667 0.195236
H166  H     H_    0.656930 0.873686 0.072885 0.211503
C161  C     C_3   0.661515 0.933105 0.893811 -0.414183
C162  C     C_3   0.633885 0.873990 0.851017 -0.873811
H167  H     H_    0.614753 0.844652 0.909028 0.251442
H168  H     H_    0.594067 0.883858 0.797525 0.256567
H169  H     H_    0.672568 0.848305 0.814568 0.234207
H170  H     H_    0.678765 0.963617 0.837530 0.182876
H171  H     H_    0.705552 0.921481 0.936858 0.227556
C163  C     C_3   0.336616 0.075676 0.094232 -0.390718
C164  C     C_3   0.268657 0.046897 0.090166 -0.878692
H172  H     H_    0.267660 0.003923 0.047716 0.247784
H173  H     H_    0.252394 0.036776 0.164210 0.247666
H174  H     H_    0.232932 0.079264 0.057066 0.244865
H175  H     H_    0.350962 0.084150 0.170975 0.199224
H176  H     H_    0.334322 0.121842 0.061190 0.207788

loop_
_geom_bond_atom_site_label_1
_geom_bond_atom_site_label_2
_geom_bond_distance
_ccdc_geom_bond_type
C113  H46   1.112041 S    
C94   C95   1.440202 A    
C140  H112  1.104840 S    
C14   C22   1.388831 A    
C117  H61   1.108950 S    
C152  H142  1.109912 S    
C143  H126  1.098262 S    
C57   C69   1.406840 A    
C147  H135  1.100872 S    
C29   O21   1.381952 S    
C138  H107  1.109983 S    
C62   O30   1.383170 S    
C38   C62   1.411589 A    
C159  H165  1.110901 S    
C102  H14   1.108084 S    
O6    Cu1   1.970353 S    
O19   C103  1.415255 S    
C130  H89   1.110495 S    
C27   O19   1.379463 S    
C10   C18   1.392223 A    
C132  H93   1.109529 S    
C159  C160  1.538844 S    
C126  H78   1.108990 S    
C141  H120  1.109533 S    
C106  H25   1.110868 S    
C161  H170  1.094364 S    
C114  H48   1.112418 S    
C125  H81   1.109221 S    
C8    C21   1.452395 S    
C21   C29   1.399182 A    
C162  H167  1.110559 S    
C9    C49   1.409406 A    
C121  H71   1.106481 S    
C160  H164  1.111190 S    
C126  H79   1.110308 S    
C154  H147  1.111162 S    
O10   C6    1.298643 A    
C60   C72   1.409427 A    
O27   C111  1.418017 S    
C121  C122  1.529195 S    
O11   Cu3   1.957170 S    
C102  H12   1.113848 S    
C150  H139  1.111155 S    
O2    Cu2   1.965970 S    
C66   C119  1.527733 S    
C109  H35   1.108772 S    
C105  H21   1.107660 S    
C13   C53   1.399568 A    
O24   C108  1.402207 S    
C43   C51   1.421344 A    
O22   C106  1.417255 S    
C73   C83   1.436964 A    
C134  H98   1.106800 S    
C16   C24   1.391794 A    
C142  H117  1.102667 S    
C17   C25   1.396782 A    
O6    C4    1.299662 A    
C19   C27   1.398147 A    
C152  H144  1.110706 S    
C20   C28   1.409191 A    
C137  H110  1.100589 S    
C142  H119  1.108636 S    
C138  H109  1.111385 S    
C64   C68   1.407642 A    
C154  H148  1.107783 S    
C103  H15   1.111317 S    
C101  H10   1.114121 S    
C164  H172  1.111357 S    
C87   C91   1.393611 A    
C25   O17   1.380400 S    
C111  H40   1.115828 S    
C98   C99   1.437038 A    
C10   H2    1.075804 S    
C76   N2    1.395460 A    
O9    C5    1.307987 A    
C135  H106  1.114064 S    
C149  H141  1.111028 S    
C13   H5    1.079531 S    
C163  H175  1.111059 S    
C61   O29   1.385273 S    
C51   C68   1.416127 A    
C113  H47   1.109086 S    
O29   C113  1.409354 S    
C162  H169  1.109375 S    
C148  H133  1.108365 S    
C83   C89   1.402955 A    
C154  H149  1.110735 S    
O26   C110  1.411887 S    
C91   C92   1.410785 A    
C30   O22   1.385721 S    
C42   C50   1.425160 A    
C128  H82   1.109822 S    
C147  C148  1.536583 S    
O7    Cu2   1.962489 S    
C71   C129  1.526663 S    
C133  H100  1.100082 S    
C139  H116  1.114095 S    
C140  H113  1.109705 S    
C53   C70   1.412766 A    
C104  H19   1.111321 S    
C82   C94   1.415526 A    
C118  H58   1.110759 S    
C46   C54   1.420646 A    
C29   C37   1.412855 A    
C111  H39   1.109022 S    
O13   C7    1.302349 A    
C125  C126  1.526261 S    
O14   C8    1.299716 A    
C112  H43   1.112918 S    
C78   C143  1.501110 S    
C109  H33   1.112506 S    
C32   C40   1.414083 A    
C39   C47   1.414172 A    
C33   C41   1.413615 A    
C129  H91   1.106691 S    
C79   C145  1.524874 S    
C144  H123  1.107199 S    
C130  H88   1.110997 S    
C114  H50   1.109060 S    
C87   C99   1.422688 A    
C36   C44   1.412703 A    
C15   C23   1.388854 A    
C59   C71   1.415946 A    
Cu1   N1    2.027605 S    
C24   C32   1.403954 A    
O16   Cu3   1.962492 S    
C11   C51   1.402109 A    
C153  H150  1.110514 S    
Cu3   N3    2.027605 S    
C136  H102  1.101318 S    
C108  H31   1.104244 S    
C112  H42   1.113395 S    
C103  H17   1.101534 S    
C119  C120  1.527864 S    
O8    C3    1.296099 A    
C93   C149  1.531682 S    
C96   C155  1.516892 S    
C151  C152  1.527771 S    
C131  H95   1.103276 S    
C127  H85   1.102745 S    
Cu1   Cu2   2.698671 S    
C73   C133  1.499344 S    
C110  H36   1.113573 S    
C99   C161  1.510116 S    
C120  H62   1.108763 S    
C5    C24   1.462974 S    
C64   O32   1.383646 S    
C6    C23   1.456179 S    
C116  H54   1.112853 S    
C60   O28   1.383893 S    
C119  H66   1.110274 S    
C123  H76   1.108919 S    
C157  H161  1.102813 S    
C22   C30   1.405726 A    
O15   C8    1.295399 A    
C144  H122  1.110601 S    
O16   C7    1.297484 A    
C124  H74   1.110401 S    
C148  H132  1.110226 S    
C47   C55   1.420717 A    
C52   C67   1.417059 A    
C97   C157  1.522831 S    
C164  H174  1.110638 S    
C43   C48   1.403239 A    
C128  H84   1.110632 S    
C94   C151  1.523744 S    
C79   N3    1.395560 A    
C151  H145  1.101603 S    
C117  H60   1.100205 S    
C131  C132  1.527437 S    
C48   C56   1.416468 A    
O1    C1    1.304175 A    
C36   C60   1.412451 A    
C146  H129  1.109044 S    
C147  H136  1.095615 S    
C97   C100  1.442244 A    
C138  H108  1.108224 S    
C156  H154  1.110325 S    
C159  H166  1.110856 S    
C4    C17   1.460606 S    
C102  H13   1.105357 S    
C59   O27   1.389828 S    
C69   C125  1.524282 S    
C122  H69   1.110483 S    
C18   C26   1.396442 A    
C56   C71   1.416924 A    
C81   C89   1.402065 A    
C135  C136  1.519321 S    
C158  H157  1.110310 S    
C136  H104  1.108142 S    
C137  C138  1.535676 S    
C150  H138  1.111369 S    
C50   C65   1.424682 A    
C61   C65   1.410182 A    
C63   C67   1.416119 A    
C145  C146  1.523896 S    
C101  H11   1.103433 S    
C122  H68   1.110969 S    
C157  C158  1.527970 S    
C132  H92   1.110990 S    
C12   C52   1.400995 A    
C117  C118  1.528801 S    
C58   C70   1.400482 A    
C160  H163  1.111328 S    
C84   C90   1.394723 A    
O12   Cu4   1.957170 S    
C107  H27   1.112901 S    
C39   C63   1.416468 A    
Cu4   N4    2.027605 S    
C120  H64   1.110800 S    
C73   N1    1.390689 A    
C116  H56   1.112831 S    
C139  C140  1.521259 S    
C141  C142  1.516977 S    
C95   C153  1.528317 S    
C122  H67   1.108873 S    
C129  H90   1.105032 S    
O23   C107  1.413693 S    
O32   C116  1.410971 S    
C70   C127  1.526051 S    
C124  H72   1.111013 S    
O13   Cu4   1.970356 S    
C31   O23   1.376645 S    
O14   Cu3   1.970353 S    
C105  H22   1.112088 S    
C110  H38   1.109072 S    
C113  H45   1.106662 S    
C77   N3    1.392429 A    
C133  C134  1.537184 S    
O8    Cu1   1.962492 S    
C134  H99   1.111328 S    
C142  H118  1.110587 S    
C10   C50   1.409283 A    
C152  H143  1.111453 S    
C143  H125  1.099650 S    
C153  H151  1.109680 S    
C125  H80   1.109622 S    
C30   C38   1.418049 A    
C155  H155  1.096982 S    
C105  H23   1.108188 S    
C63   O31   1.388695 S    
C156  H152  1.110534 S    
C34   C42   1.416583 A    
C62   C66   1.408495 A    
C80   N4    1.392123 A    
C1    C20   1.461978 S    
C33   C57   1.415034 A    
C2    C19   1.453082 S    
C86   C98   1.431049 A    
C3    C18   1.460174 S    
C35   C59   1.416891 A    
C153  C154  1.538447 S    
C115  H53   1.106074 S    
O3    Cu1   1.957170 S    
C80   C147  1.507568 S    
C26   C34   1.407875 A    
C126  H77   1.110903 S    
C141  H121  1.114021 S    
C106  H26   1.107714 S    
C149  H140  1.111309 S    
C16   H8    1.081963 S    
C163  H176  1.110619 S    
C100  C163  1.528984 S    
C89   C90   1.411303 A    
C101  H9    1.110199 S    
C14   C54   1.402431 A    
O4    C1    1.296745 A    
C103  H16   1.104889 S    
C67   C121  1.524456 S    
O17   C101  1.413797 S    
C74   N2    1.392205 A    
C123  C124  1.527053 S    
C127  C128  1.529068 S    
O9    Cu3   1.965970 S    
O10   Cu4   1.965970 S    
C57   O25   1.384532 S    
C58   O26   1.383778 S    
C107  H29   1.104420 S    
C37   C45   1.413948 A    
O4    Cu2   1.957170 S    
C111  H41   1.108197 S    
C155  H156  1.100843 S    
O5    C3    1.301970 A    
C68   C123  1.525602 S    
C75   N1    1.394567 A    
C13   C21   1.385532 A    
C104  H18   1.105325 S    
C9    H1    1.075499 S    
C23   C31   1.397466 A    
O15   Cu4   1.962489 S    
C11   H3    1.080376 S    
C145  H131  1.114010 S    
C14   H6    1.080648 S    
C146  H128  1.110108 S    
C149  C150  1.539200 S    
C109  H34   1.113834 S    
O18   C102  1.407802 S    
O5    Cu2   1.970356 S    
C40   C48   1.413848 A    
O7    C4    1.298980 A    
C9    C17   1.391172 A    
C114  H49   1.113179 S    
C134  H97   1.110365 S    
C77   C87   1.442111 A    
C79   C85   1.438585 A    
C34   C58   1.413786 A    
C132  H94   1.110535 S    
O31   C115  1.416966 S    
O2    C2    1.300366 A    
C108  H30   1.114142 S    
C161  C162  1.530558 S    
C45   C53   1.423524 A    
C78   N4    1.393888 A    
O25   C109  1.410772 S    
C137  H111  1.094518 S    
C15   C55   1.405578 A    
C7    C22   1.460406 S    
C54   C69   1.418568 A    
C75   C81   1.437078 A    
C131  H96   1.109502 S    
C127  H86   1.108795 S    
C81   C93   1.436042 A    
C135  H105  1.109052 S    
C83   C95   1.438618 A    
O3    C2    1.295456 A    
C16   C56   1.401283 A    
C163  C164  1.538204 S    
C41   C46   1.409597 A    
C38   C46   1.413421 A    
C106  H24   1.104678 S    
C93   C96   1.439788 A    
O30   C114  1.411003 S    
Cu2   N2    2.027605 S    
C157  H160  1.100302 S    
C26   O18   1.377900 S    
C12   C20   1.391265 A    
C121  H70   1.105317 S    
C148  H134  1.111409 S    
C145  H130  1.108875 S    
O1    Cu1   1.965970 S    
C124  H73   1.108501 S    
C77   C141  1.521734 S    
C15   H7    1.080261 S    
C75   C137  1.506638 S    
C164  H173  1.110523 S    
C76   C139  1.522743 S    
C128  H83   1.111172 S    
C133  H101  1.099402 S    
C139  H115  1.108396 S    
C44   C47   1.404733 A    
C80   C86   1.432695 A    
C140  H114  1.109076 S    
O20   C104  1.417814 S    
C104  H20   1.104643 S    
C151  H146  1.104499 S    
C118  H57   1.108825 S    
C86   C92   1.401693 A    
O12   C5    1.291893 A    
C150  H137  1.110687 S    
C35   C43   1.415518 A    
O28   C112  1.411682 S    
C112  H44   1.109166 S    
C162  H168  1.110562 S    
C65   C117  1.527830 S    
C156  H153  1.110472 S    
C146  H127  1.103934 S    
C144  H124  1.111326 S    
C130  H87   1.108434 S    
C115  H51   1.108941 S    
C55   C72   1.417691 A    
C76   C82   1.436171 A    
C143  C144  1.537295 S    
C12   H4    1.081184 S    
C115  H52   1.116195 S    
C158  H158  1.111139 S    
C136  H103  1.110056 S    
C108  H32   1.107406 S    
C37   C61   1.412596 A    
C31   C39   1.407700 A    
C129  C130  1.530408 S    
C85   C97   1.417429 A    
C27   C35   1.407626 A    
C41   C49   1.425560 A    
C28   C36   1.418986 A    
C42   C45   1.409472 A    
C78   C88   1.438588 A    
C88   C100  1.439075 A    
C118  H59   1.107182 S    
C158  H159  1.110654 S    
C160  H162  1.110719 S    
O11   C6    1.297836 A    
C98   C159  1.533129 S    
C161  H171  1.101014 S    
C107  H28   1.111978 S    
C85   C91   1.394337 A    
C120  H63   1.111044 S    
C32   O24   1.375609 S    
C40   C64   1.418701 A    
C155  C156  1.529385 S    
C28   O20   1.386839 S    
C116  H55   1.108935 S    
C11   C19   1.387236 A    
C119  H65   1.097423 S    
C123  H75   1.103078 S    
C44   C52   1.413758 A    
C74   C84   1.439429 A    
C25   C33   1.409999 A    
C82   C90   1.393669 A    
C84   C96   1.420214 A    
Cu3   Cu4   2.698671 S    
C74   C135  1.524462 S    
O21   C105  1.417617 S    
C72   C131  1.520553 S    
C49   C66   1.423250 A    
C88   C92   1.400541 A    
C110  H37   1.112845 S    
