data_mof_unit_54205.cif
_audit_creation_date              2012-12-11T15:34:19-0500
_audit_creation_method            fapswitch 2.2
_symmetry_space_group_name_H-M    P1
_symmetry_Int_Tables_number       1
_space_group_crystal_system       triclinic
_cell_length_a                    15.06169
_cell_length_b                    15.043048
_cell_length_c                    34.920348
_cell_angle_alpha                 90.510483
_cell_angle_beta                  89.894438
_cell_angle_gamma                 60.078543
_cell_volume                      6856.98590304

loop_
_atom_site_label
_atom_site_type_symbol
_atom_type_description
_atom_site_fract_x
_atom_site_fract_y
_atom_site_fract_z
_atom_type_partial_charge
C1    C     C_R   0.302437 0.608405 0.555772 0.544251
C2    C     C_R   0.644943 0.662180 0.670464 0.038587
C3    C     C_R   0.255354 0.656425 0.267513 -0.120762
C4    C     C_R   0.187865 0.640285 0.290259 0.027635
C5    C     C_R   0.114857 0.621717 0.272930 -0.115881
C6    C     C_R   0.106521 0.623750 0.233211 -0.116587
C7    C     C_R   0.172144 0.642769 0.210422 0.029826
C8    C     C_R   0.205217 0.560169 0.353764 -0.119717
C9    C     C_R   0.230842 0.553755 0.392349 -0.126070
C10   C     C_R   0.225654 0.717277 0.388505 -0.126705
C11   C     C_R   0.200907 0.723150 0.349946 -0.122567
C12   C     C_R   0.194960 0.642583 0.332046 0.032229
C13   C     C_R   0.555754 0.728938 0.649844 0.165933
C14   C     C_R   0.245995 0.630013 0.409519 0.023330
C15   C     C_R   0.735706 0.026825 0.943528 0.563511
C16   C     C_R   0.745489 0.721945 0.945270 0.569129
C17   C     C_R   0.039532 0.733093 0.948578 0.551738
C18   C     C_R   0.723067 0.038710 0.052880 0.541092
C19   C     C_R   0.733545 0.734309 0.054755 0.545414
C20   C     C_R   0.027556 0.744611 0.057842 0.532690
C21   C     C_R   0.549034 0.709347 0.611105 -0.097385
C22   C     C_R   0.658358 0.672477 0.790086 0.349541
C23   C     C_R   0.650719 0.667280 0.712529 0.356510
C24   C     C_R   0.745515 0.592593 0.851390 -0.068544
C25   C     C_R   0.767063 0.602069 0.889621 0.171382
C26   C     C_R   0.626578 0.778303 0.890205 -0.160946
C27   C     C_R   0.605121 0.767238 0.852312 -0.130499
C28   C     C_R   0.668119 0.676550 0.831942 0.006605
C29   C     C_R   0.610381 0.588540 0.555335 0.548430
C30   C     C_R   0.711049 0.698221 0.908813 0.027085
C31   C     C_R   0.718301 0.084407 0.907445 0.029118
C32   C     C_R   0.618773 0.135033 0.892128 -0.155172
C33   C     C_R   0.602103 0.171285 0.854745 -0.076227
C34   C     C_R   0.684781 0.155351 0.831679 0.071934
C35   C     C_R   0.782313 0.113950 0.847628 -0.042638
C36   C     C_R   0.799654 0.080405 0.885442 0.157698
C37   C     C_R   0.696027 0.236269 0.770917 0.116930
C38   C     C_R   0.693732 0.240160 0.731089 -0.146316
C39   C     C_R   0.672528 0.174096 0.709398 -0.040592
C40   C     C_R   0.589854 0.300744 0.553682 0.546463
C41   C     C_R   0.653845 0.102287 0.728079 0.251676
C42   C     C_R   0.646663 0.104469 0.768590 0.238743
C43   C     C_R   0.673232 0.167937 0.789866 0.000949
C44   C     C_R   0.575315 0.196088 0.649241 -0.076979
C45   C     C_R   0.556547 0.224482 0.611021 -0.132727
C46   C     C_R   0.714230 0.230402 0.607772 -0.127751
C47   C     C_R   0.733675 0.200559 0.646011 -0.134072
C48   C     C_R   0.662509 0.186683 0.667404 0.053613
C49   C     C_R   0.623486 0.246296 0.590368 0.017968
C50   C     C_R   0.097858 0.693460 0.912297 0.009111
C51   C     C_R   0.299919 0.610405 0.446174 0.542648
C52   C     C_R   0.132808 0.752618 0.893506 -0.146197
C53   C     C_R   0.159092 0.736174 0.854839 -0.121976
C54   C     C_R   0.152149 0.659470 0.834356 -0.019812
C55   C     C_R   0.128464 0.592893 0.853816 -0.092083
C56   C     C_R   0.104089 0.607285 0.892888 0.266180
C57   C     C_R   0.220178 0.561206 0.773059 -0.102351
C58   C     C_R   0.226652 0.558056 0.733166 -0.096667
C59   C     C_R   0.172490 0.648471 0.711892 0.033543
C60   C     C_R   0.110821 0.741739 0.731332 -0.117729
C61   C     C_R   0.105056 0.744928 0.771149 -0.100097
C62   C     C_R   0.607886 0.590038 0.445286 0.547265
C63   C     C_R   0.160431 0.654914 0.792306 0.036138
C64   C     C_R   0.196561 0.725088 0.652436 -0.108065
C65   C     C_R   0.226125 0.716314 0.614192 -0.115893
C66   C     C_R   0.231150 0.553120 0.609311 -0.127702
C67   C     C_R   0.200540 0.562416 0.647585 -0.123707
C68   C     C_R   0.187013 0.646530 0.669919 0.025627
C69   C     C_R   0.247983 0.628213 0.592721 0.017508
C70   C     C_R   0.692672 0.717561 0.090711 -0.022494
C71   C     C_R   0.605404 0.798150 0.108326 -0.146568
C72   C     C_R   0.578916 0.788310 0.145714 -0.171546
C73   C     C_R   0.587693 0.303173 0.443652 0.542380
C74   C     C_R   0.639234 0.697967 0.166207 0.035729
C75   C     C_R   0.724154 0.614827 0.147931 0.269259
C76   C     C_R   0.748825 0.624534 0.110181 -0.102062
C77   C     C_R   0.624007 0.610555 0.224521 -0.106672
C78   C     C_R   0.625814 0.601705 0.264202 -0.155729
C79   C     C_R   0.623137 0.679050 0.287791 0.069361
C80   C     C_R   0.612506 0.768939 0.271396 0.277968
C81   C     C_R   0.614849 0.775280 0.231336 -0.123925
C82   C     C_R   0.621958 0.695866 0.207776 -0.012092
C83   C     C_R   0.545122 0.732518 0.352432 -0.144775
C84   C     C_R   0.629001 0.623448 0.592484 -0.011057
C85   C     C_R   0.542155 0.712430 0.391078 -0.148607
C86   C     C_R   0.710806 0.561923 0.385533 -0.119095
C87   C     C_R   0.713163 0.579836 0.346080 0.276788
C88   C     C_R   0.628781 0.665278 0.329593 0.082294
C89   C     C_R   0.623109 0.624655 0.407658 -0.022764
C90   C     C_R   0.699681 0.101617 0.087975 0.022516
C91   C     C_R   0.774268 0.120782 0.103877 -0.121603
C92   C     C_R   0.762222 0.160032 0.140980 -0.116608
C93   C     C_R   0.675317 0.181084 0.162658 0.032378
C94   C     C_R   0.596687 0.170502 0.145618 -0.121330
C95   C     C_R   0.720292 0.562476 0.612209 -0.142015
C96   C     C_R   0.608727 0.131105 0.108506 -0.126894
C97   C     C_R   0.581652 0.274026 0.222136 -0.123500
C98   C     C_R   0.575555 0.281678 0.261939 -0.128583
C99   C     C_R   0.659905 0.215276 0.284285 0.024076
C100  C     C_R   0.752078 0.144719 0.266334 -0.119434
C101  C     C_R   0.758292 0.137201 0.226534 -0.115393
C102  C     C_R   0.672480 0.200373 0.204164 0.031518
C103  C     C_R   0.725505 0.223271 0.348935 -0.128238
C104  C     C_R   0.709461 0.241772 0.388241 -0.130247
C105  C     C_R   0.548550 0.242525 0.383003 -0.121730
C106  C     C_R   0.728100 0.581765 0.650759 -0.158675
C107  C     C_R   0.564088 0.225450 0.343736 -0.125444
C108  C     C_R   0.650760 0.219493 0.326262 0.031649
C109  C     C_R   0.618716 0.255720 0.405341 0.024995
C110  C     C_R   0.083982 0.707434 0.093816 0.022989
C111  C     C_R   0.095345 0.617589 0.110420 -0.131478
C112  C     C_R   0.130240 0.592764 0.147795 -0.127657
C113  C     C_R   0.154660 0.657119 0.169000 0.032668
C114  C     C_R   0.151067 0.742387 0.151414 -0.119737
C115  C     C_R   0.116005 0.767375 0.114048 -0.125473
C116  C     C_R   0.247730 0.657406 0.227830 -0.121796
Cr1   Cr    Cr6+3 0.421670 0.426920 0.499620 1.012796
Cr2   Cr    Cr6+3 0.427030 0.651190 0.500980 1.017576
Cr3   Cr    Cr6+3 0.651280 0.421870 0.499380 1.013143
Cr4   Cr    Cr6+3 0.910810 0.908010 0.001130 1.068638
Cr5   Cr    Cr6+3 0.682800 0.909890 0.998370 1.012818
Cr6   Cr    Cr6+3 0.908370 0.682300 0.002180 1.062227
H1    H     H_    0.783605 0.496180 0.598535 0.139394
H2    H     H_    0.802001 0.192739 0.659387 0.113323
H3    H     H_    0.706866 0.296510 0.717011 0.168785
H4    H     H_    0.525656 0.206906 0.843084 0.115199
H5    H     H_    0.518153 0.187862 0.665193 0.152900
H6    H     H_    0.485801 0.236160 0.598527 0.133443
H7    H     H_    0.846305 0.103101 0.829977 0.162144
H8    H     H_    0.477927 0.757608 0.596326 0.158524
H9    H     H_    0.767346 0.246397 0.592561 0.129159
H10   H     H_    0.133124 0.816428 0.907946 0.182413
H11   H     H_    0.191287 0.501896 0.660089 0.106430
H12   H     H_    0.276597 0.485332 0.719097 0.107547
H13   H     H_    0.263464 0.490948 0.788929 0.102818
H14   H     H_    0.179882 0.786743 0.840433 0.141495
H15   H     H_    0.067016 0.812398 0.715769 0.102847
H16   H     H_    0.056477 0.817715 0.785464 0.122491
H17   H     H_    0.187628 0.790478 0.668852 0.134997
H18   H     H_    0.238274 0.775647 0.602258 0.145880
H19   H     H_    0.123475 0.532842 0.838310 0.127486
H20   H     H_    0.246675 0.484710 0.593368 0.125691
H21   H     H_    0.560581 0.870690 0.093997 0.137641
H22   H     H_    0.815770 0.560748 0.097027 0.143548
H23   H     H_    0.630387 0.533791 0.276617 0.116013
H24   H     H_    0.627717 0.549181 0.206892 0.161742
H25   H     H_    0.513642 0.852991 0.159288 0.108895
H26   H     H_    0.798019 0.530534 0.665676 0.136681
H27   H     H_    0.615532 0.840232 0.218615 0.109116
H28   H     H_    0.479414 0.797553 0.339838 0.109325
H29   H     H_    0.473571 0.762593 0.407377 0.136997
H30   H     H_    0.775145 0.496357 0.398442 0.125016
H31   H     H_    0.844694 0.099939 0.088552 0.131415
H32   H     H_    0.549769 0.117603 0.096933 0.126527
H33   H     H_    0.506407 0.220840 0.326788 0.103518
H34   H     H_    0.504365 0.338308 0.275324 0.109462
H35   H     H_    0.514895 0.324016 0.205412 0.107994
H36   H     H_    0.823039 0.169192 0.153434 0.109132
H37   H     H_    0.817970 0.092948 0.283095 0.107618
H38   H     H_    0.828741 0.078700 0.213308 0.105746
H39   H     H_    0.793132 0.218126 0.335873 0.095982
H40   H     H_    0.764933 0.251519 0.404718 0.119871
H41   H     H_    0.529185 0.185672 0.161907 0.102069
H42   H     H_    0.478022 0.252529 0.395296 0.127354
H43   H     H_    0.072141 0.569337 0.095345 0.124320
H44   H     H_    0.108503 0.836750 0.101875 0.129688
H45   H     H_    0.191230 0.788260 0.333606 0.103011
H46   H     H_    0.792639 0.520464 0.836462 0.188719
H47   H     H_    0.313704 0.668670 0.280523 0.104926
H48   H     H_    0.299664 0.671242 0.210761 0.104467
H49   H     H_    0.134003 0.525749 0.160695 0.096214
H50   H     H_    0.062307 0.609121 0.290145 0.115652
H51   H     H_    0.046039 0.614805 0.220368 0.101530
H52   H     H_    0.200373 0.497562 0.340315 0.102056
H53   H     H_    0.245513 0.485887 0.407946 0.122902
H54   H     H_    0.168925 0.793536 0.167339 0.102955
H55   H     H_    0.235929 0.777640 0.401026 0.126374
H56   H     H_    0.579921 0.852013 0.904180 0.137979
H57   H     H_    0.541560 0.831148 0.838453 0.134229
H58   H     H_    0.554143 0.142469 0.908441 0.125559
N1    N     N_R   0.710184 0.582265 0.770588 -0.188295
N2    N     N_R   0.706098 0.579719 0.732586 -0.214894
N3    N     N_R   0.599913 0.757572 0.732001 -0.189421
N4    N     N_R   0.603680 0.760149 0.770022 -0.244463
O1    O     O_R   0.502070 0.323090 0.541280 -0.518716
O2    O     O_R   0.520720 0.641670 0.461580 -0.499690
O3    O     O_R   0.674120 0.502090 0.457500 -0.520554
O4    O     O_R   0.640110 0.338380 0.459630 -0.503196
O5    O     O_3   0.499990 0.499990 0.499990 -0.236309
O6    O     O_R   0.017640 0.822070 0.960410 -0.489363
O7    O     O_R   0.822000 0.989470 0.960340 -0.443251
O8    O     O_R   0.666920 0.007430 0.955290 -0.529631
O9    O     O_R   0.694410 0.812480 0.959650 -0.515097
O10   O     O_R   0.831550 0.656950 0.958960 -0.437423
O11   O     O_R   0.998590 0.685540 0.963930 -0.459068
O12   O     O_R   0.338340 0.520690 0.539540 -0.501536
O13   O     O_R   0.008220 0.831200 0.045060 -0.519962
O14   O     O_R   0.813270 0.997930 0.038810 -0.500207
O15   O     O_R   0.657500 0.016560 0.039940 -0.523159
O16   O     O_R   0.685680 0.820940 0.038120 -0.500728
O17   O     O_R   0.822130 0.666070 0.043610 -0.519195
O18   O     O_R   0.989860 0.694000 0.042400 -0.514412
O19   O     O_3   0.833990 0.833400 0.000560 -0.253774
O20   O     O_R   0.324760 0.674070 0.543580 -0.518016
O21   O     O_R   0.522400 0.640310 0.540110 -0.502111
O22   O     O_R   0.675940 0.500630 0.542210 -0.515523
O23   O     O_R   0.641790 0.337020 0.538150 -0.500481
O24   O     O_R   0.500260 0.324550 0.456580 -0.520224
O25   O     O_R   0.336660 0.522040 0.461020 -0.503672
O26   O     O_R   0.322940 0.675540 0.458880 -0.521937
Br1   Br    Br    0.937615 0.025793 0.903160 -0.495944
Br2   Br    Br    0.725073 0.330001 0.798345 -0.484303
O27   O     O_3   0.636239 0.034886 0.706491 -0.588061
C117  C     C_3   0.721105 0.934178 0.708545 0.024502
H59   H     H_    0.691947 0.880302 0.703413 0.182945
H60   H     H_    0.758094 0.915095 0.737232 0.159188
C118  C     C_3   0.800519 0.916228 0.677480 -0.278483
H61   H     H_    0.761769 0.942274 0.649408 0.192826
H62   H     H_    0.838399 0.961492 0.684544 0.155268
C119  C     C_3   0.881773 0.802929 0.674250 -0.481179
H63   H     H_    0.918373 0.773841 0.702422 0.158394
H64   H     H_    0.941629 0.792918 0.653250 0.158771
H65   H     H_    0.846545 0.757208 0.664357 0.158629
O28   O     O_3   0.622842 0.038997 0.788233 -0.578626
C120  C     C_3   0.527420 0.050979 0.776505 0.045901
H66   H     H_    0.542695 0.984271 0.757999 0.211991
H67   H     H_    0.478891 0.122754 0.760213 0.131895
C121  C     C_3   0.466275 0.052621 0.811800 -0.283228
H68   H     H_    0.517730 0.993320 0.832260 0.185893
H69   H     H_    0.433463 0.128379 0.826436 0.140256
C122  C     C_3   0.378726 0.033923 0.801027 -0.464998
H70   H     H_    0.325649 0.093803 0.781010 0.165275
H71   H     H_    0.335410 0.036892 0.827231 0.154269
H72   H     H_    0.409120 0.957215 0.787280 0.193107
O29   O     O_3   0.074364 0.543921 0.910248 -0.517813
C123  C     C_3   0.158236 0.466130 0.930427 0.040502
H73   H     H_    0.126411 0.441965 0.954296 0.172417
H74   H     H_    0.207757 0.493319 0.943930 0.100090
C124  C     C_3   0.222220 0.372808 0.904317 -0.272365
H75   H     H_    0.171560 0.347158 0.891109 0.202458
H76   H     H_    0.258320 0.394054 0.881068 0.144594
C125  C     C_3   0.306664 0.284136 0.926532 -0.479119
H77   H     H_    0.359479 0.307523 0.939335 0.151053
H78   H     H_    0.351261 0.218085 0.906797 0.142755
H79   H     H_    0.273035 0.259535 0.949610 0.159058
Br3   Br    Br    0.875661 0.480600 0.912499 -0.428661
O30   O     O_3   0.799118 0.519839 0.323475 -0.570861
C126  C     C_3   0.832138 0.413870 0.326099 -0.003998
H80   H     H_    0.831703 0.384840 0.296779 0.141398
H81   H     H_    0.781715 0.395573 0.343825 0.114968
C127  C     C_3   0.941895 0.357095 0.341105 -0.257398
H82   H     H_    0.992444 0.369828 0.321409 0.168565
H83   H     H_    0.944756 0.387981 0.369805 0.163606
C128  C     C_3   0.982030 0.242160 0.344142 -0.492690
H84   H     H_    0.936712 0.227449 0.365691 0.143217
H85   H     H_    0.063230 0.202996 0.353371 0.143843
H86   H     H_    0.977635 0.209762 0.315959 0.141064
O31   O     O_3   0.610447 0.845164 0.294663 -0.562132
C129  C     C_3   0.518345 0.939485 0.289451 -0.002474
H87   H     H_    0.480248 0.965716 0.317868 0.143540
H88   H     H_    0.461524 0.934339 0.270348 0.103576
C130  C     C_3   0.542506 0.020407 0.274362 -0.248589
H89   H     H_    0.588778 0.034326 0.295814 0.182504
H90   H     H_    0.588071 0.992652 0.247468 0.165862
C131  C     C_3   0.444364 0.121004 0.266394 -0.494915
H91   H     H_    0.397804 0.108836 0.244564 0.141634
H92   H     H_    0.463785 0.178009 0.255239 0.154880
H93   H     H_    0.398452 0.152089 0.293100 0.137072
O32   O     O_3   0.783986 0.523780 0.166845 -0.581774
C132  C     C_3   0.866234 0.527473 0.184658 0.008159
H94   H     H_    0.838847 0.598695 0.202326 0.145686
H95   H     H_    0.921512 0.524040 0.162641 0.123623
C133  C     C_3   0.920826 0.435145 0.210967 -0.243757
H96   H     H_    0.864876 0.436046 0.231987 0.186586
H97   H     H_    0.952034 0.363307 0.193637 0.164224
C134  C     C_3   0.008089 0.436316 0.232632 -0.483144
H98   H     H_    0.065025 0.435751 0.212222 0.135071
H99   H     H_    0.047089 0.367148 0.250777 0.139921
H100  H     H_    0.977762 0.505457 0.251430 0.165596
Br4   Br    Br    0.435011 0.840138 0.673026 -0.521173

loop_
_geom_bond_atom_site_label_1
_geom_bond_atom_site_label_2
_ccdc_geom_bond_type
Cr6   O19   S    
C57   H13   S    
C87   C88   A    
C44   H5    S    
C101  C102  A    
C55   H19   S    
C83   C88   A    
C41   C42   A    
C122  H70   S    
C47   H2    S    
C124  H75   S    
C51   O26   A    
Cr6   O11   S    
C55   C56   A    
Cr1   O24   S    
O28   C120  S    
C133  C134  S    
C130  C131  S    
C119  H64   S    
C97   C98   A    
Cr2   O2    S    
C15   O7    A    
C127  H82   S    
C39   C41   A    
N1    N2    A    
C44   C45   A    
C118  C119  S    
C99   C108  S    
C105  C107  A    
C46   C49   A    
C11   C12   A    
C19   O16   A    
C128  H84   S    
C39   C48   S    
C64   C68   A    
Cr6   O17   S    
C27   C28   A    
C67   H11   S    
C27   H57   S    
C91   H31   S    
C22   N1    A    
Cr4   O6    S    
C3    C116  A    
C104  H40   S    
C5    C6    A    
Cr2   O5    S    
C117  H60   S    
C61   H16   S    
C127  H83   S    
C112  H49   S    
C54   C63   S    
C45   H6    S    
C16   C30   S    
C40   C49   S    
C62   C89   S    
C19   O17   A    
C120  C121  S    
C29   O21   A    
C123  H73   S    
C92   H36   S    
C34   C35   A    
C46   C47   A    
C61   C63   A    
C2    C13   A    
Cr3   O4    S    
C112  C113  A    
C128  H85   S    
C16   O9    A    
C103  C104  A    
C78   H23   S    
C120  H67   S    
C110  C111  A    
C65   H18   S    
Cr5   O15   S    
C111  C112  A    
C101  H38   S    
C8    C9    A    
C18   O14   A    
C50   C52   A    
O29   C123  S    
C21   C84   A    
C56   O29   S    
C103  C108  A    
C111  H43   S    
C45   C49   A    
C8    C12   A    
C4    C12   S    
C50   C56   A    
C131  H91   S    
C35   H7    S    
C130  H89   S    
C97   C102  A    
C126  C127  S    
C77   C78   A    
C60   H15   S    
C62   O2    A    
C83   H28   S    
C25   Br3   S    
C129  C130  S    
C114  H54   S    
C66   C67   A    
C40   O23   A    
C59   C60   A    
C22   C28   S    
O32   C132  S    
C11   H45   S    
C77   H24   S    
C132  C133  S    
C53   H14   S    
C66   C69   A    
Cr6   O10   S    
C42   O28   S    
C126  H80   S    
Cr5   O9    S    
C119  H63   S    
C131  H93   S    
C126  H81   S    
C57   C63   A    
C98   H34   S    
Cr4   O14   S    
C26   H56   S    
C38   C39   A    
C21   H8    S    
Cr5   O8    S    
C96   H32   S    
C38   H3    S    
C103  H39   S    
C125  H79   S    
C74   C75   A    
C13   C21   A    
C67   C68   A    
C52   H10   S    
C47   C48   A    
Cr3   O5    S    
C1    O12   A    
C16   O10   A    
C24   C25   A    
Cr5   O19   S    
C29   C84   S    
C124  H76   S    
C10   C14   A    
C114  C115  A    
C91   C92   A    
C132  H94   S    
C85   C89   A    
C86   C87   A    
C3    H47   S    
C127  C128  S    
C130  H90   S    
C40   O1    A    
C75   O32   S    
C128  H86   S    
C118  H61   S    
C53   C54   A    
C15   C31   S    
C2    C106  A    
C1    C69   S    
C29   O22   A    
C33   H4    S    
C60   C61   A    
C35   C36   A    
C18   C90   S    
C7    C116  A    
C37   C43   A    
C17   C50   S    
C94   C96   A    
C9    C14   A    
C85   H29   S    
C37   Br2   S    
C23   N3    A    
C37   C38   A    
C95   C106  A    
C86   H30   S    
C59   C68   S    
C41   O27   S    
C51   O25   A    
C125  H78   S    
C14   C51   S    
C58   H12   S    
C134  H100  S    
O27   C117  S    
C107  C108  A    
Cr2   O21   S    
C33   C34   A    
C26   C27   A    
C105  H42   S    
C116  H48   S    
C122  H71   S    
Cr3   O22   S    
C115  H44   S    
C90   C96   A    
C131  H92   S    
C70   C71   A    
C79   C88   S    
C23   N2    A    
C20   C110  S    
C76   H22   S    
C72   C74   A    
C83   C85   A    
Cr5   O16   S    
C134  H99   S    
C26   C30   A    
C70   C76   A    
C121  H69   S    
C129  H87   S    
C132  H95   S    
Cr4   O7    S    
Cr3   O23   S    
C42   C43   A    
C90   C91   A    
C3    C4    A    
C46   H9    S    
C73   O4    A    
C52   C53   A    
C110  C115  A    
C2    C23   S    
C71   H21   S    
C113  C114  A    
C74   C82   S    
C95   H1    S    
C25   C30   A    
C65   C69   A    
C105  C109  A    
C54   C55   A    
C75   C76   A    
C24   H46   S    
C119  H65   S    
C117  H59   S    
C10   H55   S    
C73   O24   A    
C31   C32   A    
Cr2   O20   S    
C34   C43   S    
C24   C28   A    
C80   C81   A    
C129  H88   S    
C86   C89   A    
C93   C102  S    
C106  H26   S    
O30   C126  S    
C87   O30   S    
C6    C7    A    
C66   H20   S    
C6    H51   S    
C17   O6    A    
C118  H62   S    
C72   H25   S    
C93   C94   A    
C22   N4    A    
C123  C124  S    
Cr2   O26   S    
C32   C33   A    
C7    C113  S    
Cr1   O25   S    
O31   C129  S    
C58   C59   A    
C20   O18   A    
C71   C72   A    
Cr1   O12   S    
Cr1   O1    S    
C99   C100  A    
C64   C65   A    
C78   C79   A    
C100  H37   S    
Cr6   O18   S    
C57   C58   A    
C104  C109  A    
C77   C82   A    
C81   H27   S    
C125  H77   S    
C92   C93   A    
C133  H97   S    
C5    H50   S    
C123  H74   S    
C9    H53   S    
C122  H72   S    
C8    H52   S    
C73   C109  S    
C117  C118  S    
N3    N4    A    
Cr3   O3    S    
C20   O13   A    
C17   O11   A    
C10   C11   A    
C15   O8    A    
C36   Br1   S    
C121  H68   S    
C79   C80   A    
Cr4   O13   S    
C124  C125  S    
C4    C5    A    
C80   O31   S    
C134  H98   S    
Cr1   O5    S    
C81   C82   A    
C98   C99   A    
C18   O15   A    
Cr4   O19   S    
C31   C36   A    
C32   H58   S    
C19   C70   S    
C100  C101  A    
C1    O20   A    
C94   H41   S    
C84   C95   A    
C121  C122  S    
C107  H33   S    
C44   C48   A    
C13   Br4   S    
C97   H35   S    
C62   O3    A    
C120  H66   S    
C64   H17   S    
C133  H96   S    
