data_mof_unit_41924.cif
_audit_creation_date              2012-12-11T15:59:40-0500
_audit_creation_method            fapswitch 2.2
_symmetry_space_group_name_H-M    P1
_symmetry_Int_Tables_number       1
_space_group_crystal_system       triclinic
_cell_length_a                    10.717547
_cell_length_b                    10.745991
_cell_length_c                    17.03046
_cell_angle_alpha                 100.044025
_cell_angle_beta                  99.780071
_cell_angle_gamma                 60.320847
_cell_volume                      1669.96453938

loop_
_atom_site_label
_atom_site_type_symbol
_atom_type_description
_atom_site_fract_x
_atom_site_fract_y
_atom_site_fract_z
_atom_type_partial_charge
C1    C     C_R   0.354275 0.778356 0.402122 0.557611
C2    C     C_R   0.797867 0.248119 0.189519 -0.003315
C3    C     C_R   0.813845 0.227399 0.270866 -0.013016
C4    C     C_R   0.911684 0.393098 0.309118 -0.146058
C5    C     C_R   0.921860 0.391830 0.229679 -0.156246
C6    C     C_R   0.730061 0.181579 0.131368 0.284417
C7    C     C_R   0.714451 0.070677 0.152455 -0.056846
C8    C     C_R   0.747931 0.037748 0.231056 -0.181741
C9    C     C_R   0.795730 0.115311 0.289968 -0.107351
C10   C     C_R   0.848982 0.319103 0.330194 0.003184
C11   C     C_R   0.317204 0.863437 0.169256 0.001476
C12   C     C_R   0.365909 0.342682 0.358707 0.569654
C13   C     C_R   0.453433 0.814680 0.212750 0.014976
C14   C     C_R   0.461670 0.822837 0.296864 0.032313
C15   C     C_R   0.203812 0.901988 0.288845 -0.159308
C16   C     C_R   0.193111 0.911437 0.208737 -0.141233
C17   C     C_R   0.580974 0.757827 0.174891 -0.103801
C18   C     C_R   0.712224 0.724208 0.220153 -0.135271
C19   C     C_R   0.718009 0.749990 0.303276 -0.130389
C20   C     C_R   0.593876 0.801037 0.341459 -0.058103
C21   C     C_R   0.338010 0.848598 0.332452 -0.003475
C22   C     C_R   0.299258 0.277746 0.799389 -0.013602
C23   C     C_R   0.779833 0.372603 0.404526 0.554517
C24   C     C_R   0.426266 0.177164 0.762422 0.030900
C25   C     C_R   0.479480 0.226942 0.712978 0.031541
C26   C     C_R   0.248812 0.448842 0.707969 -0.153407
C27   C     C_R   0.210336 0.412562 0.770805 -0.153572
C28   C     C_R   0.506048 0.030401 0.776698 -0.075925
C29   C     C_R   0.646016 0.943944 0.755016 -0.103831
C30   C     C_R   0.708697 0.002512 0.718801 -0.112123
C31   C     C_R   0.626345 0.142714 0.697883 -0.087655
C32   C     C_R   0.382034 0.355699 0.677485 -0.009177
C33   C     C_1   0.846279 0.329091 0.705510 -0.058336
C34   C     C_R   0.381914 0.713758 0.631170 0.539614
C35   C     C_1   0.893006 0.293408 0.772007 -0.055417
C36   C     C_1   0.359474 0.762680 0.713641 -0.056921
C37   C     C_1   0.326774 0.809739 0.780789 -0.070219
C38   C     C_R   0.898000 0.308772 0.089810 0.564359
C39   C     C_R   0.290649 0.260909 0.122113 0.564642
C40   C     C_R   0.291524 0.895979 0.087233 0.514116
C41   C     C_R   0.943135 0.273007 0.854436 0.536995
C42   C     C_R   0.279033 0.252747 0.876808 0.523720
C43   C     C_R   0.281495 0.880186 0.857912 0.523507
C44   C     C_R   0.408049 0.376223 0.600368 0.530791
C45   C     C_R   0.777669 0.378614 0.629070 0.531712
C46   C     C_1   0.324832 0.316230 0.276909 -0.046033
C47   C     C_1   0.304547 0.292121 0.206213 -0.050494
C48   C     C_R   0.858992 0.326629 0.169485 -0.000626
Cr1   Cr    Cr6+3 0.608100 0.610860 0.522250 1.013721
Cr2   Cr    Cr6+3 0.288890 0.599990 0.488420 1.010097
Cr3   Cr    Cr6+3 0.603040 0.289190 0.489390 0.996981
Cr4   Cr    Cr6+3 0.053960 0.052250 0.967380 1.037249
Cr5   Cr    Cr6+3 0.059890 0.373160 0.992710 0.991281
Cr6   Cr    Cr6+3 0.373370 0.061690 0.991710 0.988957
H1    H     H_    0.947321 0.456862 0.353875 0.134436
H2    H     H_    0.808511 0.684854 0.190441 0.121749
H3    H     H_    0.818816 0.731698 0.338198 0.103120
H4    H     H_    0.602560 0.826920 0.405670 0.140360
H5    H     H_    0.174449 0.549475 0.683231 0.143254
H6    H     H_    0.461584 0.982326 0.805460 0.152034
H7    H     H_    0.111546 0.490024 0.797134 0.145083
H8    H     H_    0.706926 0.833048 0.768409 0.122432
H9    H     H_    0.819623 0.938316 0.704873 0.119508
H10   H     H_    0.678113 0.183688 0.669318 0.152738
H11   H     H_    0.978856 0.443489 0.215466 0.136687
H12   H     H_    0.677105 0.008786 0.107469 0.154656
H13   H     H_    0.735513 0.952933 0.247055 0.136856
H14   H     H_    0.825655 0.080859 0.349438 0.143331
H15   H     H_    0.107930 0.927722 0.315623 0.134468
H16   H     H_    0.580891 0.737610 0.110422 0.125026
H17   H     H_    0.085495 0.955805 0.177612 0.159212
O1    O     O_R   0.749810 0.499790 0.438040 -0.511945
O2    O     O_R   0.298970 0.468800 0.557390 -0.507140
O3    O     O_R   0.489400 0.255930 0.561910 -0.511368
O4    O     O_R   0.723890 0.306050 0.584610 -0.538343
O5    O     O_3   0.500010 0.500010 0.500020 -0.276960
O6    O     O_R   0.171100 0.914680 0.053100 -0.518897
O7    O     O_R   0.941680 0.184840 0.050710 -0.447908
O8    O     O_R   0.922080 0.403420 0.072610 -0.545933
O9    O     O_R   0.196880 0.369150 0.083850 -0.501420
O10   O     O_R   0.411730 0.181020 0.091530 -0.517215
O11   O     O_R   0.365010 0.944360 0.063320 -0.522499
O12   O     O_R   0.477660 0.726260 0.439290 -0.504139
O13   O     O_R   0.159380 0.906670 0.876210 -0.504194
O14   O     O_R   0.930820 0.177420 0.886730 -0.480325
O15   O     O_R   0.910360 0.395420 0.895720 -0.520400
O16   O     O_R   0.186010 0.361730 0.919870 -0.509357
O17   O     O_R   0.400000 0.173010 0.914630 -0.509174
O18   O     O_R   0.354140 0.936940 0.899340 -0.531239
O19   O     O_3   0.162410 0.162370 0.983930 -0.300515
O20   O     O_R   0.260150 0.743000 0.412270 -0.512201
O21   O     O_R   0.297740 0.466550 0.394720 -0.492986
O22   O     O_R   0.488080 0.253500 0.386430 -0.502262
O23   O     O_R   0.722670 0.303800 0.421940 -0.506599
O24   O     O_R   0.751130 0.502220 0.613520 -0.508729
O25   O     O_R   0.478890 0.728510 0.601960 -0.484112
O26   O     O_R   0.261470 0.745430 0.587750 -0.514111
O27   O     O_3   0.691275 0.211499 0.052181 -0.550816
C49   C     C_3   0.575906 0.353229 0.046715 0.023680
H18   H     H_    0.593494 0.434577 0.090277 0.103892
H19   H     H_    0.474264 0.358518 0.057766 0.193613
C50   C     C_3   0.559811 0.392788 0.962151 -0.245831
H20   H     H_    0.658088 0.395963 0.952442 0.193390
H21   H     H_    0.549321 0.309344 0.917247 0.209498
C51   C     C_3   0.428329 0.538865 0.948945 -0.456667
H22   H     H_    0.328455 0.539028 0.958842 0.180352
H23   H     H_    0.418370 0.561640 0.886390 0.150461
H24   H     H_    0.440408 0.624935 0.990481 0.148605

loop_
_geom_bond_atom_site_label_1
_geom_bond_atom_site_label_2
_ccdc_geom_bond_type
C25   C31   A    
C24   C25   A    
C1    C21   S    
C33   C45   S    
Cr4   O19   S    
C19   C20   A    
Cr3   O3    S    
C7    C8    A    
C19   H3    S    
C26   C32   A    
C41   O15   A    
C51   H23   S    
C26   C27   A    
C43   O18   A    
C50   C51   S    
C6    O27   S    
C14   C21   A    
C28   C29   A    
Cr5   O8    S    
C34   O25   A    
Cr6   O19   S    
C30   C31   A    
C38   O8    A    
C15   C16   A    
C34   O26   A    
C14   C20   A    
C18   C19   A    
Cr4   O13   S    
C27   H7    S    
C29   H8    S    
C8    C9    A    
Cr1   O1    S    
Cr5   O15   S    
C26   H5    S    
C38   C48   S    
C18   H2    S    
C25   C32   A    
C17   H16   S    
C1    O20   A    
C30   H9    S    
C43   O13   A    
C2    C6    A    
C16   H17   S    
Cr4   O7    S    
C23   O1    A    
C51   H24   S    
C28   H6    S    
C15   H15   S    
C5    C48   A    
C50   H20   S    
C40   O11   A    
Cr5   O9    S    
Cr3   O5    S    
C39   O10   A    
Cr6   O18   S    
C12   C46   S    
Cr2   O2    S    
C38   O7    A    
C2    C48   A    
C37   C43   S    
C44   O3    A    
C29   C30   A    
C3    C9    A    
Cr2   O5    S    
C11   C16   A    
C49   H18   S    
C17   C18   A    
C32   C44   S    
Cr1   O5    S    
Cr5   O16   S    
Cr1   O24   S    
C50   H21   S    
Cr3   O22   S    
C5    H11   S    
C49   H19   S    
C22   C27   A    
C4    H1    S    
C22   C24   A    
C12   O22   A    
C42   O17   A    
C4    C10   A    
Cr4   O6    S    
C45   O24   A    
Cr6   O11   S    
C39   C47   S    
Cr2   O21   S    
C44   O2    A    
C46   C47   T    
Cr4   O14   S    
Cr2   O26   S    
C31   H10   S    
C12   O21   A    
C24   C28   A    
Cr3   O4    S    
C4    C5    A    
C6    C7    A    
C10   C23   S    
C1    O12   A    
C41   O14   A    
C51   H22   S    
C23   O23   A    
C13   C17   A    
C45   O4    A    
C39   O9    A    
Cr1   O12   S    
C2    C3    A    
C9    H14   S    
C3    C10   A    
C7    H12   S    
Cr6   O17   S    
C11   C13   A    
C22   C42   S    
C33   C35   T    
C34   C36   S    
Cr1   O25   S    
C11   C40   S    
C35   C41   S    
Cr3   O23   S    
Cr2   O20   S    
C15   C21   A    
C49   C50   S    
C8    H13   S    
C36   C37   T    
O27   C49   S    
Cr5   O19   S    
C40   O6    A    
C42   O16   A    
C13   C14   A    
C20   H4    S    
Cr6   O10   S    
