data_mof_unit_45692.cif
_audit_creation_date              2012-10-26T18:40:35-0400
_audit_creation_method            fapswitch 2.2
_symmetry_space_group_name_H-M    P1
_symmetry_Int_Tables_number       1
_space_group_crystal_system       triclinic
_cell_length_a                    15.099847
_cell_length_b                    13.927566
_cell_length_c                    11.701142
_cell_angle_alpha                 90.106147
_cell_angle_beta                  90.770786
_cell_angle_gamma                 90.016555
_cell_volume                      2460.57130693

loop_
_atom_site_label
_atom_site_type_symbol
_atom_type_description
_atom_site_fract_x
_atom_site_fract_y
_atom_site_fract_z
_atom_type_partial_charge
C1    C     C_R   0.329975 0.499958 0.499642 0.542321
C2    C     C_R   0.500195 0.500078 0.716005 0.540613
C3    C     C_R   0.530215 0.107888 0.596317 0.205941
C4    C     C_R   0.426195 0.892301 0.459166 0.208381
C5    C     C_R   0.469772 0.107099 0.404900 0.218737
C6    C     C_R   0.573082 0.892531 0.542092 0.208528
C7    C     C_1   0.499813 0.499876 0.162343 -0.026043
C8    C     C_1   0.500200 0.500213 0.837659 -0.026351
C9    C     C_1   0.499917 0.499996 0.059880 -0.051446
C10   C     C_1   0.500100 0.500166 0.940122 -0.051502
C11   C     C_R   0.538647 0.209185 0.588828 0.348153
C12   C     C_R   0.669999 0.499976 0.500379 0.542105
C13   C     C_R   0.432141 0.790922 0.448176 0.349698
C14   C     C_R   0.461814 0.208488 0.411131 0.349843
C15   C     C_R   0.567674 0.791179 0.552165 0.352902
C16   C     C_R   0.093826 0.575008 0.444232 0.262180
C17   C     C_R   0.904339 0.426461 0.444252 0.265284
C18   C     C_R   0.906102 0.573673 0.558679 0.263010
C19   C     C_R   0.095496 0.425235 0.553215 0.265206
C20   C     C_R   0.186747 0.575796 0.448479 -0.146914
C21   C     C_R   0.812161 0.424945 0.448222 -0.145991
C22   C     C_R   0.813204 0.574624 0.554372 -0.144692
C23   C     C_R   0.233422 0.499795 0.498994 -0.086099
C24   C     C_R   0.187675 0.423808 0.549180 -0.145741
C25   C     C_3   0.482373 0.060891 0.770125 0.004406
C26   C     C_3   0.508531 0.009255 0.879776 -0.373007
C27   C     C_3   0.287406 0.934523 0.511684 -0.004889
C28   C     C_3   0.206049 0.992225 0.476645 -0.355933
C29   C     C_3   0.520798 0.059309 0.230601 0.011956
C30   C     C_3   0.533202 0.958315 0.183651 -0.390295
C31   C     C_3   0.707583 0.941242 0.481263 -0.005330
C32   C     C_3   0.790126 0.998023 0.513986 -0.354173
C33   C     C_3   0.673502 0.243754 0.667336 -0.077872
C34   C     C_R   0.766501 0.499811 0.501073 -0.086280
C35   C     C_3   0.373385 0.756775 0.272711 -0.102250
C36   C     C_3   0.328076 0.242570 0.329508 -0.081792
C37   C     C_3   0.628212 0.757366 0.726568 -0.099431
C38   C     C_3   0.075922 0.668848 0.282714 -0.135840
C39   C     C_3   0.953767 0.376396 0.272385 -0.132907
C40   C     C_3   0.924967 0.662025 0.724520 -0.135377
C41   C     C_3   0.046545 0.370763 0.723220 -0.133249
C42   C     C_R   0.048519 0.500391 0.499647 0.100002
C43   C     C_R   0.951379 0.500361 0.500582 0.099765
C44   C     C_R   0.499613 0.054523 0.500928 -0.010641
C45   C     C_R   0.499516 0.945378 0.501019 -0.011852
C46   C     C_R   0.499811 0.499941 0.283995 0.540772
Cu1   Cu    Cu3+1 0.500000 0.596430 0.500000 1.017548
Cu2   Cu    Cu3+1 0.500000 0.403570 0.500000 1.022050
H1    H     H_    0.222653 0.634842 0.411262 0.174709
H2    H     H_    0.314574 0.965810 0.592524 0.097989
H3    H     H_    0.266537 0.858973 0.527028 0.162714
H4    H     H_    0.176767 0.962428 0.396530 0.164021
H5    H     H_    0.155911 0.988838 0.545082 0.108331
H6    H     H_    0.224619 0.068431 0.462581 0.147566
H7    H     H_    0.584878 0.082228 0.271206 0.093468
H8    H     H_    0.506722 0.108755 0.158206 0.160762
H9    H     H_    0.549405 0.908031 0.254425 0.133041
H10   H     H_    0.588328 0.957607 0.121828 0.089186
H11   H     H_    0.471609 0.933802 0.139666 0.150756
H12   H     H_    0.776392 0.366765 0.406798 0.136701
H13   H     H_    0.675741 0.976937 0.406104 0.104814
H14   H     H_    0.728095 0.867179 0.457084 0.155769
H15   H     H_    0.823866 0.964115 0.588561 0.167598
H16   H     H_    0.836404 0.999424 0.441054 0.105954
H17   H     H_    0.771820 0.072911 0.536267 0.146324
H18   H     H_    0.708085 0.297341 0.722181 0.125039
H19   H     H_    0.697769 0.253632 0.578586 0.109214
H20   H     H_    0.692051 0.171363 0.699313 0.157446
H21   H     H_    0.330701 0.703933 0.227119 0.109171
H22   H     H_    0.442343 0.746101 0.242409 0.112782
H23   H     H_    0.777350 0.632796 0.593769 0.174661
H24   H     H_    0.349450 0.829524 0.248918 0.159583
H25   H     H_    0.294321 0.294957 0.272465 0.125789
H26   H     H_    0.302629 0.254414 0.417379 0.110386
H27   H     H_    0.309859 0.169485 0.299114 0.156158
H28   H     H_    0.671329 0.704597 0.771316 0.107432
H29   H     H_    0.559551 0.746642 0.757919 0.110943
H30   H     H_    0.652326 0.830168 0.750258 0.159520
H31   H     H_    0.092239 0.602476 0.233965 0.086543
H32   H     H_    0.133720 0.718144 0.286673 0.125367
H33   H     H_    0.022447 0.706324 0.234613 0.137699
H34   H     H_    0.223357 0.364695 0.588465 0.136399
H35   H     H_    0.989997 0.445068 0.259302 0.110730
H36   H     H_    0.886743 0.379965 0.231834 0.106960
H37   H     H_    0.991254 0.318958 0.228524 0.136312
H38   H     H_    0.910210 0.593777 0.770100 0.085705
H39   H     H_    0.866398 0.710251 0.724233 0.124246
H40   H     H_    0.978434 0.698891 0.773511 0.137722
H41   H     H_    0.010823 0.439272 0.739453 0.109971
H42   H     H_    0.113727 0.372796 0.763490 0.106859
H43   H     H_    0.008832 0.312416 0.764830 0.136500
H44   H     H_    0.425250 0.021944 0.730618 0.100532
H45   H     H_    0.461776 0.135333 0.792581 0.151768
H46   H     H_    0.451599 0.008392 0.938828 0.092013
H47   H     H_    0.565014 0.046866 0.922021 0.158927
H48   H     H_    0.528043 0.934122 0.860541 0.141034
N1    N     N_R   0.500000 0.258690 0.500000 -0.268175
N2    N     N_R   0.500000 0.741310 0.500000 -0.262697
O1    O     O_R   0.371460 0.581430 0.500010 -0.449204
O2    O     O_3   0.350037 0.939144 0.423531 -0.517090
O3    O     O_3   0.447373 0.059980 0.304553 -0.514336
O4    O     O_3   0.650054 0.939147 0.575222 -0.514789
O5    O     O_3   0.581381 0.258950 0.675519 -0.518364
O6    O     O_3   0.365951 0.741069 0.391300 -0.537258
O7    O     O_3   0.420336 0.257560 0.323150 -0.519036
O8    O     O_3   0.634533 0.741606 0.607776 -0.532648
O9    O     O_3   0.045294 0.648791 0.393639 -0.530230
O10   O     O_3   0.948658 0.353247 0.389324 -0.534173
O11   O     O_3   0.954564 0.646271 0.612073 -0.529573
O12   O     O_R   0.628540 0.418570 0.499990 -0.502210
O13   O     O_3   0.051085 0.350758 0.605324 -0.534307
O14   O     O_R   0.628540 0.581430 0.499990 -0.448482
O15   O     O_R   0.371460 0.418570 0.500010 -0.503546
O16   O     O_R   0.500010 0.581440 0.337200 -0.498223
O17   O     O_R   0.499990 0.418560 0.662800 -0.440911
O18   O     O_R   0.499990 0.581440 0.662800 -0.498656
O19   O     O_R   0.500010 0.418560 0.337200 -0.439853
O20   O     O_3   0.555301 0.061815 0.696092 -0.512858

loop_
_geom_bond_atom_site_label_1
_geom_bond_atom_site_label_2
_ccdc_geom_bond_type
C26   H46   S    
Cu1   O16   S    
C41   H41   S    
C25   H45   S    
C6    C45   A    
C31   H13   S    
Cu2   O12   S    
C18   O11   S    
C25   O20   S    
C1    O1    A    
C12   O12   A    
Cu2   N1    S    
C33   H19   S    
C29   C30   S    
Cu1   N2    S    
C15   O8    S    
C3    O20   S    
C39   H36   S    
C38   H31   S    
Cu1   O14   S    
C30   H9    S    
C4    C13   A    
Cu1   O1    S    
C40   H38   S    
C38   O9    S    
C24   H34   S    
C16   O9    S    
C6    C15   A    
C2    O18   A    
C14   O7    S    
Cu1   Cu2   S    
C35   H22   S    
C23   C24   A    
C9    C10   S    
C19   C42   A    
C41   H42   S    
C31   O4    S    
C18   C22   A    
C31   H14   S    
C39   O10   S    
C1    O15   A    
C27   H3    S    
C33   H18   S    
C4    C45   A    
C26   H48   S    
Cu1   O18   S    
C22   C34   A    
C5    O3    S    
C27   O2    S    
C46   O16   A    
C7    C46   S    
C32   H16   S    
C21   H12   S    
C35   O6    S    
C17   O10   S    
C28   H6    S    
C21   C34   A    
C29   H7    S    
C25   C26   S    
C37   H29   S    
C17   C21   A    
C46   O19   A    
C17   C43   A    
C20   H1    S    
C36   H27   S    
C2    O17   A    
C31   C32   S    
C20   C23   A    
C16   C20   A    
C30   H11   S    
C29   O3    S    
C13   O6    S    
C5    C14   A    
C40   O11   S    
C36   H26   S    
Cu2   O17   S    
C41   H43   S    
C37   H28   S    
C35   H24   S    
C1    C23   S    
C3    C44   A    
C4    O2    S    
C38   H33   S    
C42   C43   S    
C39   H37   S    
C15   N2    A    
C12   C34   S    
C16   C42   A    
C22   H23   S    
C12   O14   A    
C44   C45   S    
C40   H39   S    
C14   N1    A    
C26   H47   S    
C7    C9    T    
C25   H44   S    
C36   O7    S    
C33   O5    S    
C5    C44   A    
C2    C8    S    
C32   H15   S    
C28   H5    S    
C27   H2    S    
Cu2   O19   S    
C29   H8    S    
C19   O13   S    
C37   H30   S    
C11   N1    A    
C40   H40   S    
C19   C24   A    
C39   H35   S    
C37   O8    S    
C18   C43   A    
C28   H4    S    
C13   N2    A    
C38   H32   S    
C30   H10   S    
C6    O4    S    
C3    C11   A    
C36   H25   S    
C35   H21   S    
C8    C10   T    
C41   O13   S    
C27   C28   S    
C32   H17   S    
C11   O5    S    
C33   H20   S    
Cu2   O15   S    
