data_mof_unit_53560.cif
_audit_creation_date              2012-10-26T18:43:50-0400
_audit_creation_method            fapswitch 2.2
_symmetry_space_group_name_H-M    P1
_symmetry_Int_Tables_number       1
_space_group_crystal_system       triclinic
_cell_length_a                    9.553486
_cell_length_b                    10.864546
_cell_length_c                    17.317587
_cell_angle_alpha                 91.092992
_cell_angle_beta                  85.551394
_cell_angle_gamma                 89.480676
_cell_volume                      1791.62511779

loop_
_atom_site_label
_atom_site_type_symbol
_atom_type_description
_atom_site_fract_x
_atom_site_fract_y
_atom_site_fract_z
_atom_type_partial_charge
C1    C     C_R   0.500487 0.737816 0.497837 0.560407
C2    C     C_R   0.528969 0.528444 0.265806 0.056265
C3    C     C_R   0.378771 0.937893 0.487113 -0.059888
C4    C     C_R   0.481192 0.499637 0.650038 0.545944
C5    C     C_R   0.504117 0.871106 0.489071 0.044982
C6    C     C_R   0.632766 0.936066 0.479854 0.073573
C7    C     C_R   0.630465 0.064812 0.481162 -0.158024
C8    C     C_R   0.502795 0.129757 0.490453 0.020249
C9    C     C_R   0.378213 0.064658 0.488204 0.024926
C10   C     C_3   0.245576 0.073632 0.539707 0.137838
C11   C     C_3   0.246322 0.933811 0.538731 -0.201743
C12   C     C_R   0.338586 0.496575 0.776583 -0.129392
C13   C     C_R   0.930384 0.396744 0.477690 0.099496
C14   C     C_R   0.918980 0.592873 0.534310 0.009514
C15   C     C_R   0.067634 0.590690 0.537681 0.362994
C16   C     C_R   0.500687 0.262548 0.498494 0.573773
C17   C     C_R   0.077550 0.398532 0.475114 0.125314
C18   C     C_3   0.090360 0.333217 0.397872 -0.043143
C19   C     C_3   0.930552 0.326398 0.403084 -0.256800
C20   C     C_R   0.518950 0.506453 0.349952 0.558580
C21   C     C_R   0.470186 0.500729 0.734853 -0.006067
C22   C     C_R   0.592029 0.506398 0.774665 -0.142964
C23   C     C_R   0.407808 0.576920 0.151829 -0.128639
C24   C     C_R   0.582617 0.510711 0.854904 -0.139873
C25   C     C_R   0.450879 0.511594 0.897150 0.076928
C26   C     C_R   0.327701 0.501745 0.857684 0.115987
C27   C     C_3   0.142788 0.167819 0.650787 -0.004984
C28   C     C_3   0.162896 0.192345 0.735905 -0.368062
C29   C     C_3   0.101667 0.673682 0.657822 -0.020181
C30   C     C_3   0.004396 0.777709 0.690083 -0.418075
C31   C     C_R   0.405310 0.557859 0.230829 -0.158125
C32   C     C_R   0.658552 0.527981 0.220099 0.097797
C33   C     C_R   0.660036 0.548836 0.140573 -0.104196
C34   C     C_R   0.534799 0.569049 0.106093 0.018479
C35   C     C_2   0.441548 0.518976 0.982360 -0.109463
C36   C     C_2   0.538414 0.576107 0.021713 -0.144780
Cu1   Cu    Cu3+1 0.359330 0.500020 0.500000 1.012321
Cu2   Cu    Cu3+1 0.640670 0.499980 0.500000 0.958684
H1    H     H_    0.695173 0.507555 0.743920 0.127663
H2    H     H_    0.879373 0.377337 0.358239 0.190810
H3    H     H_    0.892502 0.231100 0.411219 0.088620
H4    H     H_    0.627731 0.620546 0.991823 0.117229
H5    H     H_    0.310376 0.597765 0.126509 0.117339
H6    H     H_    0.244207 0.488322 0.746284 0.099926
H7    H     H_    0.353948 0.474206 0.013749 0.139773
H8    H     H_    0.679326 0.511793 0.883513 0.102227
H9    H     H_    0.819677 0.899809 0.420568 0.222204
H10   H     H_    0.824116 0.902914 0.518005 0.214104
H11   H     H_    0.056360 0.100125 0.647159 0.108088
H12   H     H_    0.758898 0.545102 0.105300 0.101372
H13   H     H_    0.112377 0.255658 0.624239 0.137343
H14   H     H_    0.253096 0.254517 0.741669 0.171266
H15   H     H_    0.066733 0.236107 0.764874 0.086513
H16   H     H_    0.183909 0.104375 0.764751 0.152193
H17   H     H_    0.202347 0.683763 0.685131 0.166107
H18   H     H_    0.057039 0.583245 0.676402 0.096602
H19   H     H_    0.896842 0.765743 0.671655 0.131788
H20   H     H_    0.998417 0.777325 0.754373 0.113666
H21   H     H_    0.044738 0.868144 0.670433 0.151344
H22   H     H_    0.089047 0.494046 0.335599 0.234946
H23   H     H_    0.729123 0.112988 0.478815 0.120160
H24   H     H_    0.130834 0.365454 0.282606 0.215039
H25   H     H_    0.838684 0.430895 0.224233 0.209457
H26   H     H_    0.852211 0.583232 0.243333 0.224462
H27   H     H_    0.180903 0.411858 0.923908 0.216089
H28   H     H_    0.112429 0.508723 0.862441 0.215642
H29   H     H_    0.158312 0.116351 0.509963 0.070954
H30   H     H_    0.263796 0.893384 0.595721 0.187983
H31   H     H_    0.157941 0.894671 0.508470 0.136866
H32   H     H_    0.857864 0.669557 0.559344 0.144300
H33   H     H_    0.305851 0.567748 0.264497 0.150959
H34   H     H_    0.144531 0.242362 0.398483 0.131854
N1    N     N_R   0.852130 0.499070 0.499500 -0.261719
N2    N     N_R   0.148040 0.499110 0.499500 -0.214203
N3    N     N_3   0.766016 0.873460 0.472458 -0.605942
N4    N     N_3   0.145803 0.411062 0.334990 -0.600781
N5    N     N_3   0.788750 0.506370 0.253338 -0.630532
N6    N     N_3   0.192267 0.499175 0.900011 -0.648676
O1    O     O_R   0.381190 0.680360 0.500000 -0.464679
O2    O     O_3   0.131322 0.683958 0.576699 -0.558702
O3    O     O_R   0.618770 0.680320 0.499990 -0.477471
O4    O     O_R   0.367430 0.500040 0.613600 -0.497869
O5    O     O_R   0.605020 0.500000 0.613590 -0.515401
O6    O     O_R   0.381230 0.319680 0.500010 -0.485876
O7    O     O_R   0.618810 0.319640 0.500000 -0.517599
O8    O     O_R   0.394980 0.500000 0.386410 -0.486389
O9    O     O_R   0.632570 0.499960 0.386400 -0.469378
O10   O     O_3   0.270117 0.123005 0.613498 -0.539324

loop_
_geom_bond_atom_site_label_1
_geom_bond_atom_site_label_2
_ccdc_geom_bond_type
Cu1   N2    S    
C30   H19   S    
Cu2   O5    S    
H26   N5    S    
C36   H4    S    
C35   C36   D    
C6    N3    S    
C10   H29   S    
Cu1   O1    S    
C10   O10   S    
C29   C30   S    
C1    C5    S    
C5    C6    A    
C1    O3    A    
C20   O9    A    
C16   O6    A    
C23   H5    S    
C2    C32   A    
C18   C19   S    
C7    H23   S    
C32   N5    S    
C8    C9    A    
C20   O8    A    
Cu1   O6    S    
C9    C10   S    
C31   H33   S    
C8    C16   S    
C21   C22   A    
C14   H32   S    
H10   N3    S    
H24   N4    S    
C27   H13   S    
C33   C34   A    
C18   H34   S    
H28   N6    S    
C13   C19   S    
Cu2   O7    S    
C2    C20   S    
C14   N1    A    
Cu1   O8    S    
C7    C8    A    
C24   C25   A    
C10   C11   S    
C28   H16   S    
C29   H17   S    
C25   C26   A    
C12   C21   A    
H22   N4    S    
C12   C26   A    
C2    C31   A    
C23   C31   A    
Cu1   Cu2   S    
C3    C9    A    
C15   O2    S    
C23   C34   A    
C30   H21   S    
C17   C18   S    
C26   N6    S    
C25   C35   S    
C13   N1    A    
Cu2   O3    S    
C16   O7    A    
C1    O1    A    
C22   C24   A    
Cu1   O4    S    
C35   H7    S    
C11   H30   S    
H25   N5    S    
C18   N4    S    
H27   N6    S    
C3    C5    A    
C28   H15   S    
C11   H31   S    
C6    C7    A    
C29   H18   S    
C13   C17   A    
Cu2   O9    S    
C24   H8    S    
C32   C33   A    
C33   H12   S    
H9    N3    S    
C12   H6    S    
C4    C21   S    
C28   H14   S    
C29   O2    S    
C17   N2    A    
C4    O5    A    
C22   H1    S    
C30   H20   S    
C34   C36   S    
C27   O10   S    
C3    C11   S    
C19   H2    S    
C27   H11   S    
C15   N2    A    
C4    O4    A    
C27   C28   S    
C14   C15   A    
C19   H3    S    
Cu2   N1    S    
