data_mof_unit_50544.cif
_audit_creation_date              2012-12-10T17:21:08-0500
_audit_creation_method            fapswitch 2.2
_symmetry_space_group_name_H-M    P1
_symmetry_Int_Tables_number       1
_space_group_crystal_system       triclinic
_cell_length_a                    10.159927
_cell_length_b                    10.671486
_cell_length_c                    10.697632
_cell_angle_alpha                 90.250023
_cell_angle_beta                  95.172081
_cell_angle_gamma                 80.661516
_cell_volume                      1139.75991532

loop_
_atom_site_label
_atom_site_type_symbol
_atom_type_description
_atom_site_fract_x
_atom_site_fract_y
_atom_site_fract_z
_atom_type_partial_charge
C1    C     C_R   0.444187 0.502779 0.266742 0.919644
C2    C     C_3   0.493835 0.879374 0.487702 -0.038617
C3    C     C_3   0.486249 0.927394 0.623916 -0.392388
C4    C     C_3   0.375031 0.952572 0.396865 0.295624
C5    C     C_2   0.413286 0.485583 0.133970 -0.391081
C6    C     C_2   0.512461 0.433800 0.067016 -0.153982
C7    C     C_2   0.587933 0.461391 0.865766 -0.370102
C8    C     C_2   0.491475 0.434775 0.932877 -0.164416
C9    C     C_2   0.071760 0.497565 0.480168 -0.034173
C10   C     C_2   0.921002 0.527479 0.484796 -0.164139
C11   C     C_R   0.500042 0.257869 0.498052 0.829288
C12   C     C_R   0.555960 0.486279 0.733155 0.919964
C13   C     C_R   0.496787 0.742332 0.490607 0.870032
C14   C     C_3   0.624464 0.051759 0.429424 -0.013688
C15   C     C_3   0.627355 0.907640 0.440880 -0.482258
C16   C     C_3   0.507143 0.067111 0.631726 -0.047389
C17   C     C_3   0.370383 0.095969 0.416744 -0.402120
C18   C     C_3   0.499821 0.121533 0.494024 -0.030574
H1    H     H_    0.717008 0.073821 0.483256 0.189872
H2    H     H_    0.388335 0.915481 0.656238 0.229896
H3    H     H_    0.391879 0.427409 0.890132 0.179397
H4    H     H_    0.613981 0.403578 0.109657 0.191154
H5    H     H_    0.687609 0.467934 0.908999 0.155234
H6    H     H_    0.312248 0.516550 0.090727 0.155337
H7    H     H_    0.875173 0.616741 0.522454 0.167124
H8    H     H_    0.110745 0.425782 0.414922 0.139094
H9    H     H_    0.887951 0.362310 0.415859 0.175084
H10   H     H_    0.644372 0.859679 0.349703 0.196341
H11   H     H_    0.713740 0.867383 0.508420 0.191788
H12   H     H_    0.610801 0.068844 0.675150 0.153897
H13   H     H_    0.564631 0.869112 0.688502 0.146048
H14   H     H_    0.282414 0.136385 0.467215 0.226502
H15   H     H_    0.356998 0.145377 0.323925 0.141382
H16   H     H_    0.399090 0.930452 0.298972 0.047421
N1    N     N_2   0.157300 0.551950 0.551120 -0.034522
N2    N     N_2   0.842730 0.448000 0.448950 -0.195050
O1    O     O_R   0.568940 0.489540 0.307530 -0.610715
O2    O     O_R   0.348880 0.522880 0.340350 -0.584449
O3    O     O_R   0.610030 0.298130 0.483570 -0.624954
O4    O     O_R   0.389960 0.331470 0.516390 -0.637714
O5    O     O_R   0.651120 0.477120 0.659650 -0.602045
O6    O     O_R   0.431060 0.510460 0.692470 -0.622359
O7    O     O_R   0.610040 0.668530 0.483610 -0.633252
O8    O     O_R   0.389970 0.701870 0.516430 -0.534781
Zn1   Zn    Zn3+2 0.646940 0.477740 0.478080 0.931186
Zn2   Zn    Zn3+2 0.353060 0.522260 0.521920 0.986119
S1    S     S_3+6 0.207202 0.917218 0.402813 -0.017125
O9    O     O_2   0.169969 0.921258 0.535562 -0.324714
O10   O     O_2   0.110252 0.015890 0.327216 -0.342388
O11   O     O_3   0.192692 0.774632 0.340668 -0.510052
H17   H     H_    0.219316 0.779257 0.254199 0.331222
C19   C     C_3   0.411612 0.143107 0.721357 -0.361370
C20   C     C_3   0.435974 0.091353 0.856232 -0.900180
H18   H     H_    0.410596 0.994385 0.861912 0.262282
H19   H     H_    0.542297 0.089252 0.892423 0.260453
H20   H     H_    0.371811 0.154130 0.917425 0.257010
H21   H     H_    0.429032 0.242826 0.727199 0.221655
H22   H     H_    0.305252 0.143118 0.686595 0.237201
C21   C     C_3   0.627608 0.092732 0.289887 -0.422061
C22   C     C_3   0.768863 0.064788 0.247239 -0.769935
H23   H     H_    0.835775 0.120628 0.303455 0.279621
H24   H     H_    0.810213 0.962132 0.257747 0.277556
H25   H     H_    0.766040 0.092311 0.146917 0.235026
H26   H     H_    0.560459 0.043440 0.226379 0.205668
H27   H     H_    0.591356 0.195884 0.275757 0.220810
C23   C     C_3   0.100655 0.648687 0.638292 -0.166994
C24   C     C_3   0.200270 0.683426 0.742300 -0.732633
H28   H     H_    0.237826 0.600352 0.804630 0.229787
H29   H     H_    0.283213 0.722418 0.705457 0.289708
H30   H     H_    0.147853 0.758547 0.800705 0.204003
H31   H     H_    0.053614 0.735901 0.584846 0.229668
H32   H     H_    0.022956 0.613259 0.689244 0.133122

loop_
_geom_bond_atom_site_label_1
_geom_bond_atom_site_label_2
_ccdc_geom_bond_type
N2    Zn1   S    
C2    C4    S    
C11   C18   S    
C12   O5    A    
C14   C21   S    
H9    N2    S    
C9    C10   S    
C14   C18   S    
C23   H31   S    
C7    H5    S    
C1    O1    A    
O3    Zn1   S    
C24   H30   S    
C13   O7    A    
C17   C18   S    
C15   H10   S    
C21   C22   S    
S1    O10   D    
C20   H18   S    
C21   H27   S    
C3    H13   S    
C2    C15   S    
O7    Zn1   S    
C21   H26   S    
C7    C12   S    
C5    H6    S    
C19   H22   S    
C1    O2    A    
C22   H25   S    
C1    C5    S    
C4    C17   S    
C6    C8    S    
C10   H7    S    
C16   C18   S    
O8    Zn2   S    
C9    H8    S    
C15   H11   S    
S1    O11   S    
C2    C3    S    
C20   H19   S    
C11   O4    A    
C11   O3    A    
C4    H16   S    
O2    Zn2   S    
C7    C8    D    
C19   H21   S    
O4    Zn2   S    
O1    Zn1   S    
C24   H28   S    
C6    H4    S    
C16   C19   S    
C3    H2    S    
C2    C13   S    
C23   C24   S    
C19   C20   S    
C22   H24   S    
O6    Zn2   S    
C20   H20   S    
C24   H29   S    
C5    C6    D    
C17   H14   S    
O5    Zn1   S    
C14   C15   S    
C22   H23   S    
C9    N1    D    
C12   O6    A    
N1    C23   S    
O11   H17   S    
N1    Zn2   S    
C16   H12   S    
C14   H1    S    
C13   O8    A    
C23   H32   S    
C3    C16   S    
S1    O9    D    
C17   H15   S    
C10   N2    D    
C4    S1    S    
C8    H3    S    
