data_mof_unit_14613.cif
_audit_creation_date              2012-12-10T18:53:00-0500
_audit_creation_method            fapswitch 2.2
_symmetry_space_group_name_H-M    P1
_symmetry_Int_Tables_number       1
_space_group_crystal_system       triclinic
_cell_length_a                    9.896012
_cell_length_b                    10.713161
_cell_length_c                    16.692005
_cell_angle_alpha                 91.130596
_cell_angle_beta                  84.221601
_cell_angle_gamma                 89.994301
_cell_volume                      1760.30713187

loop_
_atom_site_label
_atom_site_type_symbol
_atom_type_description
_atom_site_fract_x
_atom_site_fract_y
_atom_site_fract_z
_atom_type_partial_charge
C1    C     C_R   0.499489 0.739947 0.503297 0.919039
C2    C     C_R   0.498548 0.260170 0.503509 0.909971
C3    C     C_R   0.610276 0.938213 0.534501 0.516153
C4    C     C_R   0.370771 0.062047 0.507708 0.511097
C5    C     C_R   0.611009 0.066210 0.529949 -0.333831
C6    C     C_R   0.376932 0.934653 0.499871 -0.345336
C7    C     C_R   0.493319 0.128093 0.513068 -0.238389
C8    C     C_R   0.497037 0.872582 0.511366 -0.242697
C9    C     C_R   0.939877 0.433271 0.442490 0.231749
C10   C     C_R   0.060106 0.565351 0.558229 0.232692
C11   C     C_R   0.083143 0.434005 0.443105 -0.102723
C12   C     C_R   0.916919 0.564974 0.557372 -0.085761
C13   C     C_R   0.480241 0.499550 0.653207 0.853484
C14   C     C_R   0.519741 0.492844 0.346892 0.898006
C15   C     C_R   0.467759 0.486672 0.739745 -0.072544
C16   C     C_R   0.532628 0.451389 0.263121 -0.089567
C17   C     C_R   0.571375 0.532344 0.783320 -0.324089
C18   C     C_R   0.432623 0.371965 0.236772 -0.304780
C19   C     C_R   0.571681 0.505978 0.865203 0.541995
C20   C     C_R   0.443067 0.327454 0.157384 0.512883
C21   C     C_R   0.462080 0.437122 0.902156 0.077044
C22   C     C_R   0.556882 0.360842 0.105129 0.077010
C23   C     C_R   0.356159 0.395807 0.859231 -0.253900
C24   C     C_R   0.661184 0.432964 0.132858 -0.206537
C25   C     C_R   0.359320 0.419672 0.777837 -0.221634
C26   C     C_R   0.649098 0.478376 0.211816 -0.214916
C27   C     C_2   0.453684 0.412760 0.987410 -0.153605
C28   C     C_2   0.551587 0.349970 0.018714 -0.121706
H1    H     H_    0.649121 0.589534 0.752733 0.129914
H2    H     H_    0.346784 0.343471 0.277779 0.162930
H3    H     H_    0.728404 0.537225 0.232062 0.155101
H4    H     H_    0.279536 0.382869 0.744247 0.161625
H5    H     H_    0.637492 0.311608 0.980677 0.137227
H6    H     H_    0.371442 0.457215 0.025624 0.130156
H7    H     H_    0.272678 0.342961 0.888676 0.161061
H8    H     H_    0.747496 0.460742 0.091953 0.165272
H9    H     H_    0.701580 0.116700 0.542703 0.194931
H10   H     H_    0.285564 0.884792 0.487877 0.206848
H11   H     H_    0.147259 0.382138 0.397718 0.152362
H12   H     H_    0.853008 0.615417 0.603367 0.143833
N1    N     N_R   0.142790 0.500030 0.500020 -0.103301
N2    N     N_R   0.857210 0.499970 0.499980 -0.098078
O1    O     O_R   0.385380 0.683250 0.500010 -0.631471
O2    O     O_R   0.614620 0.316750 0.499990 -0.631938
O3    O     O_R   0.614710 0.683220 0.500000 -0.569295
O4    O     O_R   0.385290 0.316780 0.500000 -0.591132
O5    O     O_R   0.371780 0.500040 0.615800 -0.630811
O6    O     O_R   0.628220 0.499960 0.384200 -0.615222
O7    O     O_R   0.601110 0.500010 0.615800 -0.628926
O8    O     O_R   0.398890 0.499990 0.384200 -0.616713
Zn1   Zn    Zn3+2 0.346870 0.500020 0.500000 0.939987
Zn2   Zn    Zn3+2 0.653130 0.499980 0.500000 0.953058
O9    O     O_3   0.348264 0.244483 0.131405 -0.639356
C29   C     C_3   0.219004 0.301661 0.131587 0.050155
H13   H     H_    0.197261 0.311348 0.067970 0.160123
H14   H     H_    0.210710 0.396790 0.160338 0.117057
C30   C     C_3   0.110718 0.217471 0.173870 -0.308657
H15   H     H_    0.119741 0.121910 0.146659 0.240603
H16   H     H_    0.127185 0.211661 0.238552 0.213664
C31   C     C_3   0.968118 0.267444 0.166249 -0.975145
H17   H     H_    0.957445 0.364218 0.191161 0.263161
H18   H     H_    0.891758 0.207392 0.200114 0.279955
H19   H     H_    0.947492 0.267205 0.102037 0.262742
O10   O     O_3   0.666045 0.556881 0.913334 -0.655270
C32   C     C_3   0.802244 0.548341 0.877886 0.072848
H20   H     H_    0.865511 0.602625 0.917436 0.169988
H21   H     H_    0.819063 0.593844 0.818760 0.130042
C33   C     C_3   0.855204 0.413467 0.873269 -0.376100
H22   H     H_    0.857826 0.378319 0.935266 0.211573
H23   H     H_    0.787701 0.352236 0.840545 0.219144
C34   C     C_3   0.998087 0.406589 0.829849 -0.983438
H24   H     H_    0.996379 0.430738 0.765544 0.267236
H25   H     H_    0.038340 0.310391 0.833115 0.267487
H26   H     H_    0.066487 0.472035 0.858648 0.270626
O11   O     O_3   0.716190 0.879426 0.566646 -0.624936
C35   C     C_3   0.676555 0.854555 0.648943 0.076695
H27   H     H_    0.677586 0.752136 0.656865 0.150640
H28   H     H_    0.571960 0.887360 0.671723 0.116127
C36   C     C_3   0.777838 0.914775 0.700933 -0.367406
H29   H     H_    0.878796 0.870259 0.686167 0.224122
H30   H     H_    0.786567 0.015814 0.687481 0.237745
C37   C     C_3   0.733449 0.900494 0.790535 -0.950342
H31   H     H_    0.721722 0.800430 0.805467 0.266352
H32   H     H_    0.635324 0.949374 0.807141 0.271801
H33   H     H_    0.811052 0.942087 0.826544 0.265685
O12   O     O_3   0.245254 0.119165 0.506731 -0.629500
C38   C     C_3   0.195103 0.156104 0.586391 0.151121
H34   H     H_    0.117035 0.229578 0.582035 0.166554
H35   H     H_    0.274931 0.199237 0.620650 0.122207
C39   C     C_3   0.128612 0.047050 0.633644 -0.409585
H36   H     H_    0.043520 0.009342 0.601895 0.244486
H37   H     H_    0.203853 0.971254 0.638109 0.219714
C40   C     C_3   0.075551 0.089376 0.718861 -0.990051
H38   H     H_    0.158714 0.131793 0.750182 0.265207
H39   H     H_    0.036100 0.007862 0.753809 0.275641
H40   H     H_    0.992448 0.158632 0.716959 0.272808
C41   C     C_3   0.882767 0.360576 0.376040 -0.829788
H41   H     H_    0.960421 0.297635 0.344262 0.206013
H42   H     H_    0.798343 0.300138 0.399322 0.272950
H43   H     H_    0.850421 0.425563 0.330971 0.243758
C42   C     C_3   0.117081 0.635233 0.626067 -0.857359
H44   H     H_    0.039069 0.695758 0.659859 0.191545
H45   H     H_    0.150503 0.568342 0.669803 0.246124
H46   H     H_    0.200885 0.697196 0.603554 0.266707

loop_
_geom_bond_atom_site_label_1
_geom_bond_atom_site_label_2
_ccdc_geom_bond_type
C38   H34   S    
C40   H38   S    
C5    H9    S    
C1    C8    S    
C17   H1    S    
C2    C7    S    
C35   C36   S    
O1    Zn1   S    
C41   H41   S    
C30   H15   S    
O9    C29   S    
C2    O4    A    
C9    N2    A    
C24   H8    S    
C31   H19   S    
C22   C24   A    
C19   C21   A    
C35   H28   S    
C15   C25   A    
C4    O12   S    
C31   H18   S    
C12   N2    A    
C13   O5    A    
C1    O1    A    
O5    Zn1   S    
C2    O2    A    
C33   H22   S    
C32   H21   S    
C6    H10   S    
C18   H2    S    
C3    O11   S    
O2    Zn2   S    
C25   H4    S    
C21   C27   S    
C26   H3    S    
C40   H39   S    
C22   C28   S    
C10   N1    A    
C4    C7    A    
C41   H42   S    
C27   H6    S    
C16   C26   A    
C29   H14   S    
C42   H44   S    
C35   H27   S    
C4    C6    A    
C3    C8    A    
C36   H30   S    
O12   C38   S    
C30   C31   S    
C14   O6    A    
O3    Zn2   S    
O4    Zn1   S    
C31   H17   S    
C12   H12   S    
O11   C35   S    
C34   H26   S    
C39   H37   S    
C13   C15   S    
C19   O10   S    
C32   C33   S    
O8    Zn1   S    
C16   C18   A    
C11   H11   S    
C9    C11   A    
C10   C12   A    
C13   O7    A    
C33   H23   S    
C20   C22   A    
C28   H5    S    
C32   H20   S    
C40   H40   S    
C37   H32   S    
C38   H35   S    
C14   C16   S    
C41   H43   S    
C39   C40   S    
C5    C7    A    
C15   C17   A    
C29   H13   S    
C9    C41   S    
C10   C42   S    
O7    Zn2   S    
C24   C26   A    
C20   O9    S    
C3    C5    A    
C36   C37   S    
C6    C8    A    
C42   H46   S    
C37   H33   S    
C23   H7    S    
O10   C32   S    
C21   C23   A    
C34   H24   S    
C1    O3    A    
C39   H36   S    
C14   O8    A    
C33   C34   S    
C17   C19   A    
C11   N1    A    
C18   C20   A    
C23   C25   A    
C30   H16   S    
C36   H29   S    
O6    Zn2   S    
C42   H45   S    
C37   H31   S    
C38   C39   S    
C34   H25   S    
C27   C28   D    
N1    Zn1   S    
N2    Zn2   S    
C29   C30   S    
