data_mof_unit_51875.cif
_audit_creation_date              2012-12-10T17:56:44-0500
_audit_creation_method            fapswitch 2.2
_symmetry_space_group_name_H-M    P1
_symmetry_Int_Tables_number       1
_space_group_crystal_system       triclinic
_cell_length_a                    10.824812
_cell_length_b                    9.568122
_cell_length_c                    10.897747
_cell_angle_alpha                 91.020778
_cell_angle_beta                  92.332023
_cell_angle_gamma                 89.645778
_cell_volume                      1127.58308429

loop_
_atom_site_label
_atom_site_type_symbol
_atom_type_description
_atom_site_fract_x
_atom_site_fract_y
_atom_site_fract_z
_atom_type_partial_charge
C1    C     C_R   0.262274 0.500271 0.501098 0.849645
C2    C     C_R   0.737755 0.499833 0.499526 0.826541
C3    C     C_R   0.936068 0.625857 0.519254 -0.134826
C4    C     C_R   0.063978 0.626119 0.519676 -0.111958
C5    C     C_R   0.410656 0.072397 0.434714 0.432402
C6    C     C_R   0.595036 0.071295 0.556010 0.498701
C7    C     C_R   0.409240 0.924377 0.437750 -0.057360
C8    C     C_R   0.594306 0.924302 0.555098 0.027187
C9    C     C_R   0.495629 0.498189 0.262429 0.932085
C10   C     C_R   0.509113 0.502132 0.738587 0.855720
C11   C     C_R   0.335149 0.685499 0.105105 0.415527
C12   C     C_R   0.465846 0.761872 0.901064 0.468996
C13   C     C_R   0.305901 0.813606 0.046752 -0.202859
C14   C     C_R   0.379568 0.856838 0.949908 -0.190448
C15   C     C_R   0.471022 0.623122 0.942097 -0.119961
C16   C     C_R   0.431163 0.599625 0.060355 -0.095430
C17   C     C_R   0.490756 0.492344 0.128415 -0.189375
C18   C     C_R   0.520766 0.508500 0.874821 -0.206250
C19   C     C_R   0.562111 0.390448 0.067873 0.304319
C20   C     C_R   0.568348 0.393027 0.940557 0.344499
C21   C     C_R   0.063764 0.375411 0.480435 -0.111610
C22   C     C_R   0.936056 0.375552 0.477916 -0.088119
C23   C     C_R   0.871645 0.500310 0.498865 -0.033747
C24   C     C_R   0.128325 0.500661 0.500810 -0.020532
Cu1   Cu    Cu3+1 0.500000 0.640660 0.500000 1.026332
Cu2   Cu    Cu3+1 0.500000 0.359340 0.500000 1.118393
H1    H     H_    0.111411 0.277328 0.465572 0.208490
H2    H     H_    0.888180 0.278213 0.458779 0.208232
H3    H     H_    0.887939 0.723639 0.535455 0.170624
H4    H     H_    0.112236 0.724025 0.535675 0.171956
H5    H     H_    0.337710 0.867263 0.386461 0.213844
H6    H     H_    0.671308 0.867501 0.596757 0.191752
N1    N     N_R   0.500000 0.852070 0.500000 -0.227345
N2    N     N_R   0.500000 0.147940 0.500000 -0.229569
O1    O     O_R   0.319640 0.618740 0.499990 -0.581383
O2    O     O_R   0.680360 0.618740 0.500010 -0.607236
O3    O     O_R   0.319620 0.381170 0.499990 -0.555209
O4    O     O_R   0.680380 0.381170 0.500010 -0.533356
O5    O     O_R   0.500000 0.618810 0.319650 -0.575350
O6    O     O_R   0.500000 0.618810 0.680350 -0.560752
O7    O     O_R   0.499970 0.381240 0.319640 -0.507275
O8    O     O_R   0.500030 0.381240 0.680360 -0.519332
Cl1   Cl    Cl    0.649042 0.260568 0.148939 -0.484358
Cl2   Cl    Cl    0.649095 0.256740 0.869102 -0.393674
Cl3   Cl    Cl    0.234656 0.615702 0.212249 -0.565282
Cl4   Cl    Cl    0.599864 0.828926 0.836549 -0.502374
C25   C     C_2   0.200317 0.902905 0.084988 0.527143
H7    H     H_    0.157359 0.975718 0.020884 0.059506
O9    O     O_2   0.160878 0.898444 0.188142 -0.450734
C26   C     C_2   0.369107 0.001678 0.902705 0.503199
H8    H     H_    0.336953 0.086218 0.961139 0.071587
O10   O     O_2   0.394343 0.027844 0.797385 -0.493375
Cl5   Cl    Cl    0.304623 0.152989 0.332242 -0.559390
Cl6   Cl    Cl    0.731111 0.143628 0.620313 -0.518210

loop_
_geom_bond_atom_site_label_1
_geom_bond_atom_site_label_2
_ccdc_geom_bond_type
C15   C18   A    
C26   O10   D    
Cu2   O3    S    
C9    O7    A    
C10   O8    A    
C11   C13   A    
C11   C16   A    
C2    O4    A    
C3    C23   A    
C19   C20   A    
C12   C15   A    
C1    O3    A    
C5    N2    A    
Cu1   N1    S    
C26   H8    S    
C21   H1    S    
C25   O9    D    
C22   H2    S    
C21   C22   A    
Cu1   O5    S    
C7    N1    A    
C3    H3    S    
C14   C26   S    
C6    Cl6   S    
C4    C24   A    
C9    C17   S    
C20   Cl2   S    
C19   Cl1   S    
C18   C20   A    
C8    N1    A    
Cu1   O6    S    
C10   C18   S    
C11   Cl3   S    
Cu1   O1    S    
Cu1   O2    S    
C2    O2    A    
C15   C16   A    
C8    H6    S    
C25   H7    S    
C6    N2    A    
C9    O5    A    
C7    H5    S    
Cu2   O8    S    
C1    C24   S    
C10   O6    A    
C21   C24   A    
C5    Cl5   S    
C2    C23   S    
C5    C7    A    
C1    O1    A    
C22   C23   A    
Cu2   O4    S    
C6    C8    A    
C17   C19   A    
Cu1   Cu2   S    
C13   C14   A    
C13   C25   S    
Cu2   N2    S    
C4    H4    S    
C3    C4    A    
Cu2   O7    S    
C12   C14   A    
C16   C17   A    
C12   Cl4   S    
