data_mof_unit_57207.cif
_audit_creation_date              2012-12-10T16:51:14-0500
_audit_creation_method            fapswitch 2.2
_symmetry_space_group_name_H-M    P1
_symmetry_Int_Tables_number       1
_space_group_crystal_system       triclinic
_cell_length_a                    27.788659
_cell_length_b                    8.712963
_cell_length_c                    7.451479
_cell_angle_alpha                 103.094678
_cell_angle_beta                  94.528904
_cell_angle_gamma                 92.865689
_cell_volume                      1747.47660102

loop_
_atom_site_label
_atom_site_type_symbol
_atom_type_description
_atom_site_fract_x
_atom_site_fract_y
_atom_site_fract_z
_atom_type_partial_charge
C1    C     C_R   0.498506 0.200004 0.453423 0.780560
C2    C     C_R   0.501494 0.799995 0.546577 0.780560
C3    C     C_R   0.102011 0.496721 0.499344 -0.134555
C4    C     C_R   0.897989 0.503277 0.500655 -0.134555
C5    C     C_R   0.124276 0.352862 0.452820 -0.247701
C6    C     C_R   0.875724 0.647136 0.547179 -0.247702
C7    C     C_R   0.095278 0.211768 0.390541 0.591430
C8    C     C_R   0.904721 0.788230 0.609458 0.591429
C9    C     C_R   0.131073 0.639816 0.543778 -0.000051
C10   C     C_R   0.868927 0.360181 0.456221 -0.000049
C11   C     C_R   0.354616 0.498514 0.505384 -0.130148
C12   C     C_R   0.645384 0.501485 0.494615 -0.130149
C13   C     C_R   0.970870 0.355019 0.457181 0.133526
C14   C     C_R   0.029129 0.644979 0.542817 0.133526
C15   C     C_R   0.978175 0.647051 0.552447 -0.152892
C16   C     C_R   0.021825 0.352947 0.447551 -0.152892
C17   C     C_R   0.949217 0.501980 0.501748 0.006815
C18   C     C_R   0.050783 0.498018 0.498251 0.006815
C19   C     C_R   0.940691 0.214792 0.433273 -0.053687
C20   C     C_R   0.059308 0.785206 0.566726 -0.053687
C21   C     C_R   0.890770 0.217197 0.426695 -0.082751
C22   C     C_R   0.109230 0.782801 0.573303 -0.082751
C23   C     C_R   0.407502 0.499516 0.501828 0.803778
C24   C     C_R   0.592498 0.500484 0.498172 0.803778
C25   C     C_R   0.045135 0.212079 0.380965 0.500599
C26   C     C_R   0.954865 0.787918 0.619034 0.500600
C27   C     C_2   0.497658 0.032723 0.426989 0.310426
C28   C     C_2   0.502342 0.967277 0.573011 0.310426
C29   C     C_R   0.175128 0.355353 0.461538 0.660894
C30   C     C_R   0.824872 0.644644 0.538462 0.660904
C31   C     C_R   0.181538 0.636717 0.549450 0.636123
C32   C     C_R   0.818462 0.363281 0.450549 0.636114
C33   C     C_R   0.274651 0.477623 0.341849 -0.148290
C34   C     C_R   0.725348 0.522361 0.658150 -0.148293
C35   C     C_R   0.324698 0.479070 0.339474 -0.155302
C36   C     C_R   0.675302 0.520914 0.660524 -0.155300
C37   C     C_R   0.333493 0.516455 0.673675 -0.242811
C38   C     C_R   0.666507 0.483557 0.326326 -0.242810
C39   C     C_R   0.283306 0.515376 0.675756 0.678758
C40   C     C_R   0.716694 0.484636 0.324244 0.678757
C41   C     C_R   0.253854 0.495874 0.509598 0.199798
C42   C     C_R   0.746145 0.504123 0.490401 0.199799
Cu1   Cu    Cu3+1 0.505380 0.517380 0.684380 1.194727
Cu2   Cu    Cu3+1 0.494620 0.482620 0.315620 1.194727
H1    H     H_    0.355702 0.531427 0.803421 0.205423
H2    H     H_    0.644298 0.468597 0.196581 0.205424
N1    N     N_R   0.202377 0.495860 0.510105 -0.461357
N2    N     N_R   0.797623 0.504137 0.489894 -0.461357
N3    N     N_2   0.486510 0.456430 0.038510 0.254910
N4    N     N_2   0.513490 0.543570 0.961490 0.254910
O1    O     O_R   0.503500 0.286120 0.619780 -0.526558
O2    O     O_R   0.496500 0.713880 0.380220 -0.526558
O3    O     O_R   0.494410 0.256780 0.308360 -0.517270
O4    O     O_R   0.505590 0.743220 0.691640 -0.517270
O5    O     O_R   0.434810 0.514700 0.655690 -0.557014
O6    O     O_R   0.565190 0.485300 0.344310 -0.557014
O7    O     O_R   0.425720 0.485350 0.344280 -0.582619
O8    O     O_R   0.574280 0.514650 0.655720 -0.582619
O9    O     O_2   0.197352 0.219119 0.421872 -0.420224
O10   O     O_2   0.802648 0.780879 0.578128 -0.420222
O11   O     O_2   0.790374 0.226721 0.407650 -0.470353
O12   O     O_2   0.209626 0.773277 0.592348 -0.470350
F1    F     F_    0.452843 0.358584 0.925424 -0.513128
F2    F     F_    0.547157 0.641416 0.074576 -0.513128
F3    F     F_    0.263288 0.532853 0.838859 -0.650262
F4    F     F_    0.736712 0.467172 0.161143 -0.650269
F5    F     F_    0.115035 0.072239 0.328193 -0.581804
F6    F     F_    0.884965 0.927758 0.671806 -0.581804
H3    H     H_    0.660123 0.535047 0.792303 0.209088
H4    H     H_    0.339876 0.464927 0.207694 0.209088
H5    H     H_    0.748080 0.537113 0.786644 0.216784
H6    H     H_    0.251920 0.462860 0.213353 0.216778
H7    H     H_    0.869363 0.105843 0.402895 0.225817
H8    H     H_    0.130636 0.894155 0.597103 0.225816
H9    H     H_    0.954375 0.100719 0.427131 0.233499
H10   H     H_    0.045625 0.899279 0.572867 0.233499
F7    F     F_    0.020600 0.074793 0.289262 -0.628079
F8    F     F_    0.979400 0.925204 0.710736 -0.628079
F9    F     F_    0.491912 0.945443 0.249005 -0.586095
F10   F     F_    0.508088 0.054557 0.750995 -0.586095

loop_
_geom_bond_atom_site_label_1
_geom_bond_atom_site_label_2
_ccdc_geom_bond_type
Cu2   N3    S    
N3    F1    S    
C8    C26   A    
C14   C18   A    
C34   C42   A    
C19   H9    S    
C39   C41   A    
C26   F8    S    
C29   N1    A    
C25   F7    S    
C30   N2    A    
C19   C21   A    
C32   O11   S    
C27   F9    S    
C9    C22   A    
C21   H7    S    
N4    F2    S    
C20   H10   S    
C3    C18   A    
C23   O7    A    
C11   C37   A    
C1    O3    A    
C33   H6    S    
Cu2   O3    S    
C29   O9    S    
C35   H4    S    
C30   O10   S    
C12   C36   A    
Cu1   O8    S    
Cu2   O2    S    
C40   C42   A    
C31   N1    A    
C32   N2    A    
C31   O12   S    
C5    C29   A    
C10   C21   A    
C13   C19   A    
C24   O8    A    
C14   C20   A    
C4    C6    A    
C2    O4    A    
C5    C7    A    
C15   C26   A    
C6    C8    A    
Cu1   Cu2   S    
C3    C9    A    
Cu2   O6    S    
Cu1   O4    S    
Cu2   O7    S    
C41   N1    S    
C42   N2    S    
C1    O1    A    
C2    O2    A    
C4    C17   A    
Cu1   O5    S    
C6    C30   A    
C20   C22   A    
C8    F6    S    
C22   H8    S    
C4    C10   A    
C36   H3    S    
C16   C25   A    
C15   C17   A    
C12   C24   S    
C3    C5    A    
C2    C28   S    
Cu1   N4    S    
C23   O5    A    
C24   O6    A    
C39   F3    S    
C7    C25   A    
C13   C17   A    
C33   C41   A    
C11   C35   A    
C37   C39   A    
C38   C40   A    
Cu1   O1    S    
C11   C23   S    
C33   C35   A    
C34   C36   A    
C12   C38   A    
C28   F10   S    
C38   H2    S    
C9    C31   A    
C7    F5    S    
C10   C32   A    
C16   C18   A    
N3    N4    D    
C13   C16   A    
C27   C28   D    
C1    C27   S    
C14   C15   A    
C40   F4    S    
C37   H1    S    
C34   H5    S    
