data_mof_unit_24777.cif
_audit_creation_date              2013-03-05T15:55:02-0500
_audit_creation_method            fapswitch 2.2
_symmetry_space_group_name_H-M    P1
_symmetry_Int_Tables_number       1
_space_group_crystal_system       triclinic
_cell_length_a                    11.689817
_cell_length_b                    12.329579
_cell_length_c                    13.20447
_cell_angle_alpha                 116.474124
_cell_angle_beta                  77.956235
_cell_angle_gamma                 101.096621
_cell_volume                      1655.30986451

loop_
_atom_site_label
_atom_site_type_symbol
_atom_site_description
_atom_site_fract_x
_atom_site_fract_y
_atom_site_fract_z
_atom_type_partial_charge
O1    O     O_R   0.533340 0.972510 0.318140 -0.582837
O2    O     O_R   0.488570 0.806530 0.359650 -0.608175
C1    C     C_R   0.511645 0.854593 0.286578 0.783022
O3    O     O_R   0.685190 0.083000 0.479260 -0.561008
O4    O     O_R   0.640410 0.917020 0.520770 -0.590671
C2    C     C_R   0.715724 0.999581 0.499813 0.828025
Cu1   Cu    Cu3+1 0.526510 0.098270 0.475420 0.962583
Cu2   Cu    Cu3+1 0.473490 0.901730 0.524580 0.937593
O5    O     O_R   0.511430 0.193470 0.640350 -0.580834
O6    O     O_R   0.466660 0.027490 0.681860 -0.585946
O7    O     O_R   0.359590 0.082980 0.479230 -0.576369
O8    O     O_R   0.314810 0.917000 0.520740 -0.582418
C3    C     C_R   0.483997 0.144964 0.713224 0.811201
C4    C     C_R   0.284276 0.000349 0.500099 0.813376
C5    C     C_1   0.837374 0.999133 0.499850 -0.154569
C6    C     C_1   0.939995 0.999439 0.499816 0.024196
C7    C     C_1   0.059999 0.000167 0.499794 0.017640
C8    C     C_1   0.162624 0.000598 0.499861 -0.169341
C9    C     C_R   0.375344 0.270114 0.027765 -0.179717
H1    H     H_    0.372823 0.090712 0.891578 0.156763
H2    H     H_    0.298880 0.450815 0.221103 0.151182
H3    H     H_    0.318690 0.238504 0.087748 0.143414
C10   C     C_R   0.468516 0.227067 0.834729 -0.065167
C11   C     C_R   0.607688 0.812199 0.090164 -0.257594
C12   C     C_R   0.658653 0.729657 0.986265 -0.180106
C13   C     C_R   0.632143 0.604149 0.954012 0.320476
C14   C     C_R   0.536780 0.560106 0.018676 -0.039841
C15   C     C_R   0.485732 0.645336 0.125606 0.047324
C16   C     C_R   0.490465 0.434905 0.982211 0.093348
C17   C     C_R   0.412574 0.394648 0.059727 0.158425
C18   C     C_R   0.364863 0.479617 0.164239 -0.219626
C19   C     C_R   0.394012 0.602955 0.192397 -0.161407
C20   C     C_R   0.509667 0.350516 0.868120 -0.160031
C21   C     C_R   0.405599 0.186073 0.916013 -0.183348
C22   C     C_R   0.528949 0.770856 0.164414 -0.095258
H4    H     H_    0.550292 0.381124 0.802794 0.186755
H5    H     H_    0.639636 0.908081 0.117207 0.175419
H6    H     H_    0.728374 0.763979 0.936153 0.189123
H7    H     H_    0.342999 0.664285 0.267354 0.172642
C23   C     C_R   0.684630 0.342435 0.324437 -0.108823
H8    H     H_    0.702859 0.164728 0.308034 0.128683
H9    H     H_    0.721490 0.547875 0.292522 0.173853
N1    N     N_R   0.566700 0.246290 0.438210 -0.187823
C24   C     C_R   0.343351 0.760289 0.645960 0.034794
C25   C     C_R   0.308981 0.663871 0.677813 -0.071281
C26   C     C_R   0.368206 0.559918 0.622108 -0.222549
C27   C     C_R   0.462922 0.551381 0.533805 -0.008567
C28   C     C_R   0.494756 0.652806 0.504751 0.283261
C29   C     C_R   0.527222 0.446632 0.473668 -0.028170
C30   C     C_R   0.621005 0.444910 0.384982 0.116127
C31   C     C_R   0.650074 0.545692 0.358918 -0.252076
C32   C     C_R   0.589415 0.646942 0.417947 -0.165019
C33   C     C_R   0.502711 0.342798 0.497766 0.043169
C34   C     C_R   0.655295 0.244094 0.353347 0.045689
N2    N     N_R   0.434010 0.754320 0.561170 -0.212637
H10   H     H_    0.433478 0.336142 0.563390 0.124624
H11   H     H_    0.297650 0.840989 0.688975 0.133668
H12   H     H_    0.338389 0.487580 0.649477 0.142758
H13   H     H_    0.620909 0.719138 0.392445 0.205273
C35   C     C_1   0.779797 0.335183 0.232719 0.220228
N3    N     N_1   0.855933 0.329301 0.159295 -0.249672
C36   C     C_1   0.212553 0.671610 0.767877 0.242244
N4    N     N_1   0.135069 0.677805 0.840224 -0.231218
N5    N     N_R   0.713541 0.526181 0.866693 0.101575
O9    O     O_R   0.756081 0.447362 0.884930 -0.339739
O10   O     O_R   0.759576 0.546960 0.777493 -0.356617

loop_
_geom_bond_atom_site_label_1
_geom_bond_atom_site_label_2
_geom_bond_distance
_ccdc_geom_bond_type
O1    C1    1.309077 A    
C28   N2    1.384129 A    
C9    C21   1.391498 A    
C16   C17   1.418868 A    
C23   C35   1.446317 S    
C32   H13   1.063327 S    
Cu1   N1    2.041069 S    
C12   H6    1.083073 S    
O4    Cu2   1.916087 S    
C4    C8    1.423346 S    
N1    C34   1.352190 A    
C18   C19   1.384264 A    
C1    C22   1.472522 S    
C24   H11   1.082663 S    
Cu2   O8    1.913377 S    
C10   C21   1.399850 A    
H1    C21   1.083172 S    
N5    O9    1.301659 A    
C9    H3    1.083883 S    
O2    C1    1.301753 A    
C2    C5    1.423242 S    
Cu1   Cu2   2.708160 S    
C27   C29   1.440046 A    
C25   C26   1.397000 A    
C26   H12   1.078300 S    
Cu1   O7    1.916088 S    
H2    C18   1.084184 S    
C24   N2    1.357749 A    
C13   C14   1.431717 A    
C36   N4    1.157294 T    
O3    Cu1   1.913378 S    
C29   C33   1.416441 A    
O4    C2    1.300925 A    
Cu2   N2    2.028977 S    
O3    C2    1.299818 A    
O8    C4    1.299734 A    
H9    C31   1.083177 S    
C7    C8    1.198835 T    
C28   C32   1.403942 A    
C23   C34   1.389789 A    
C17   C18   1.388431 A    
O7    C4    1.301079 A    
C23   C30   1.414803 A    
H8    C34   1.083191 S    
C33   H10   1.075998 S    
C11   C22   1.398810 A    
C14   C16   1.425582 A    
C5    C6    1.198801 T    
C16   C20   1.397778 A    
C25   C36   1.440429 S    
C15   C19   1.414591 A    
C20   H4    1.078103 S    
C31   C32   1.382507 A    
C11   C12   1.385749 A    
C3    C10   1.460443 S    
C10   C20   1.396726 A    
Cu2   O6    1.957313 S    
C29   C30   1.422932 A    
C19   H7    1.080294 S    
C11   H5    1.083465 S    
Cu1   O5    1.947305 S    
C13   N5    1.436994 S    
C26   C27   1.411806 A    
C6    C7    1.401070 S    
O5    C3    1.302674 A    
C30   C31   1.395686 A    
C12   C13   1.398190 A    
O1    Cu1   1.957315 S    
C9    C17   1.402427 A    
N1    C33   1.362589 A    
O2    Cu2   1.947305 S    
C24   C25   1.393911 A    
C27   C28   1.427783 A    
C15   C22   1.418771 A    
C35   N3    1.157334 T    
C14   C15   1.421574 A    
O6    C3    1.302954 A    
N5    O10   1.301541 A    
