data_mof_unit_41566.cif
_audit_creation_date              2012-12-11T15:08:50-0500
_audit_creation_method            fapswitch 2.2
_symmetry_space_group_name_H-M    P1
_symmetry_Int_Tables_number       1
_space_group_crystal_system       triclinic
_cell_length_a                    19.396857
_cell_length_b                    11.331444
_cell_length_c                    18.715984
_cell_angle_alpha                 89.781954
_cell_angle_beta                  90.382582
_cell_angle_gamma                 90.069823
_cell_volume                      4113.54402927

loop_
_atom_site_label
_atom_site_type_symbol
_atom_type_description
_atom_site_fract_x
_atom_site_fract_y
_atom_site_fract_z
_atom_type_partial_charge
C1    C     C_R   0.273590 0.041184 0.854812 0.520935
C2    C     C_3   0.688433 0.530461 0.955544 -0.232580
C3    C     C_R   0.226956 0.542977 0.354322 0.537040
C4    C     C_R   0.468473 0.823221 0.645305 0.543993
C5    C     C_R   0.531487 0.822962 0.354625 0.544184
C6    C     C_R   0.968473 0.323221 0.645305 0.543993
C7    C     C_R   0.031487 0.322962 0.354625 0.544184
C8    C     C_R   0.260902 0.640445 0.643563 0.540793
C9    C     C_R   0.739152 0.640023 0.356380 0.544833
C10   C     C_R   0.760902 0.140445 0.643563 0.540793
C11   C     C_R   0.239152 0.140023 0.356380 0.544833
C12   C     C_3   0.475524 0.913109 0.035254 -0.094833
C13   C     C_3   0.810573 0.030027 0.044737 -0.244055
C14   C     C_3   0.518454 0.918742 0.965649 -0.104239
C15   C     C_3   0.975524 0.413109 0.035254 -0.094833
C16   C     C_3   0.018454 0.418742 0.965649 -0.104239
C17   C     C_3   0.431449 0.812728 0.002970 -0.144469
C18   C     C_3   0.567726 0.823951 0.995764 -0.157275
C19   C     C_3   0.931449 0.312729 0.002970 -0.144469
C20   C     C_3   0.067726 0.323951 0.995764 -0.157275
C21   C     C_3   0.474091 0.819972 0.934746 0.032700
C22   C     C_3   0.525212 0.819981 0.064523 0.035296
C23   C     C_3   0.974091 0.319972 0.934746 0.032700
C24   C     C_3   0.188433 0.030461 0.955544 -0.232580
C25   C     C_3   0.025212 0.319981 0.064523 0.035296
C26   C     C_3   0.320328 0.551941 0.964372 -0.256181
C27   C     C_3   0.675413 0.566329 0.033500 -0.251247
C28   C     C_3   0.820328 0.051941 0.964372 -0.256181
C29   C     C_3   0.175413 0.066329 0.033500 -0.251247
C30   C     C_3   0.176130 0.536164 0.026504 0.087663
C31   C     C_3   0.820842 0.537183 0.977556 0.079640
C32   C     C_3   0.676130 0.036164 0.026504 0.087664
C33   C     C_R   0.727493 0.044690 0.146443 0.516912
C34   C     C_3   0.320842 0.037183 0.977556 0.079640
C35   C     C_3   0.243191 0.713538 0.059334 0.111998
C36   C     C_3   0.755758 0.712833 0.934729 0.117933
C37   C     C_3   0.743191 0.213538 0.059334 0.111998
C38   C     C_3   0.255758 0.212833 0.934729 0.117933
C39   C     C_3   0.240276 0.580092 0.071400 0.113256
C40   C     C_3   0.758978 0.578814 0.928647 0.113155
C41   C     C_3   0.740276 0.080092 0.071400 0.113256
C42   C     C_3   0.258978 0.078814 0.928647 0.113155
C43   C     C_3   0.255972 0.614680 0.933592 -0.002548
C44   C     C_R   0.773590 0.541185 0.854812 0.520935
C45   C     C_3   0.739616 0.630400 0.063646 -0.005218
C46   C     C_3   0.755972 0.114680 0.933592 -0.002548
C47   C     C_3   0.239616 0.130400 0.063646 -0.005218
C48   C     C_3   0.193459 0.534598 0.946355 -0.210325
C49   C     C_3   0.801017 0.545353 0.056879 -0.185577
C50   C     C_3   0.693459 0.034598 0.946355 -0.210325
C51   C     C_3   0.301017 0.045352 0.056879 -0.185576
C52   C     C_3   0.243120 0.731026 0.976284 -0.141564
C53   C     C_3   0.756190 0.740058 0.016136 -0.158320
C54   C     C_3   0.743120 0.231026 0.976284 -0.141564
C55   C     C_R   0.227493 0.544690 0.146443 0.516912
C56   C     C_3   0.256191 0.240058 0.016136 -0.158320
C57   C     C_3   0.503712 0.701716 0.460555 -0.228352
C58   C     C_3   0.496197 0.701906 0.539846 -0.227263
C59   C     C_3   0.003712 0.201716 0.460555 -0.228352
C60   C     C_3   0.996197 0.201906 0.539846 -0.227263
C61   C     C_R   0.445490 0.817081 0.862005 0.533354
C62   C     C_R   0.553777 0.817445 0.137772 0.527754
C63   C     C_R   0.945490 0.317081 0.862005 0.533354
C64   C     C_R   0.053777 0.317445 0.137772 0.527754
C65   C     C_3   0.564669 0.904654 0.473663 -0.216868
C66   C     C_3   0.522891 0.725523 0.964051 -0.100089
C67   C     C_3   0.435356 0.904902 0.525772 -0.217700
C68   C     C_3   0.064668 0.404654 0.473662 -0.216867
C69   C     C_3   0.935356 0.404902 0.525772 -0.217700
C70   C     C_3   0.440929 0.887118 0.443890 -0.262388
C71   C     C_3   0.559041 0.887410 0.555654 -0.262598
C72   C     C_3   0.940929 0.387118 0.443890 -0.262388
C73   C     C_3   0.059041 0.387410 0.555654 -0.262598
C74   C     C_3   0.510664 0.829135 0.430830 0.061588
C75   C     C_3   0.489262 0.829511 0.569010 0.061773
C76   C     C_3   0.010664 0.329135 0.430830 0.061588
C77   C     C_3   0.481139 0.719876 0.033248 -0.103077
C78   C     C_3   0.989262 0.329511 0.569010 0.061773
C79   C     C_3   0.179758 0.646343 0.458999 -0.227288
C80   C     C_3   0.820428 0.646620 0.540798 -0.228087
C81   C     C_3   0.679758 0.146342 0.458999 -0.227288
C82   C     C_3   0.320428 0.146620 0.540798 -0.228086
C83   C     C_3   0.184571 0.659698 0.538189 -0.228241
C84   C     C_3   0.815551 0.659774 0.461582 -0.228202
C85   C     C_3   0.684571 0.159698 0.538189 -0.228241
C86   C     C_3   0.315551 0.159774 0.461582 -0.228202
C87   C     C_3   0.252645 0.454908 0.473565 -0.215675
C88   C     C_3   0.022890 0.225523 0.964051 -0.100090
C89   C     C_3   0.747362 0.455116 0.527291 -0.215044
C90   C     C_3   0.752645 0.954908 0.473565 -0.215675
C91   C     C_3   0.247362 0.955116 0.527291 -0.215045
C92   C     C_3   0.304766 0.647429 0.442611 -0.263973
C93   C     C_3   0.695308 0.647714 0.557037 -0.264489
C94   C     C_3   0.804766 0.147429 0.442611 -0.263973
C95   C     C_3   0.195308 0.147714 0.557037 -0.264489
C96   C     C_3   0.240724 0.572091 0.430095 0.065926
C97   C     C_3   0.759331 0.572536 0.570007 0.066162
C98   C     C_3   0.740724 0.072091 0.430095 0.065926
C99   C     C_3   0.981139 0.219876 0.033248 -0.103078
C100  C     C_3   0.259331 0.072536 0.570007 0.066162
C101  C     C_3   0.252720 0.606197 0.567654 0.063977
C102  C     C_3   0.747314 0.605932 0.432379 0.063249
C103  C     C_3   0.752720 0.106197 0.567654 0.063977
C104  C     C_3   0.247314 0.105932 0.432379 0.063249
C105  C     C_3   0.247229 0.473428 0.555203 -0.263764
C106  C     C_3   0.752770 0.473246 0.445567 -0.264540
C107  C     C_3   0.747229 0.973428 0.555203 -0.263764
C108  C     C_3   0.252770 0.973246 0.445567 -0.264541
C109  C     C_R   0.262986 0.644941 0.856039 0.527526
C110  C     C_3   0.310573 0.530027 0.044737 -0.244054
C111  C     C_R   0.730275 0.669254 0.139298 0.525137
C112  C     C_R   0.762986 0.144941 0.856039 0.527527
C113  C     C_R   0.230275 0.169254 0.139298 0.525137
C114  C     C_3   0.317280 0.648629 0.524401 -0.217262
C115  C     C_3   0.682726 0.648330 0.475274 -0.217512
C116  C     C_3   0.817280 0.148629 0.524401 -0.217261
C117  C     C_3   0.182726 0.148330 0.475274 -0.217512
C118  C     C_R   0.272975 0.043433 0.645797 0.537315
C119  C     C_R   0.726956 0.042977 0.354322 0.537040
C120  C     C_R   0.772975 0.543433 0.645797 0.537316
Cr1   Cr    Cr6+3 0.229620 0.836040 0.749110 0.998593
Cr2   Cr    Cr6+3 0.613980 0.676590 0.250790 1.000986
Cr3   Cr    Cr6+3 0.886020 0.176590 0.749210 1.000466
Cr4   Cr    Cr6+3 0.113980 0.176590 0.250790 1.000986
Cr5   Cr    Cr6+3 0.770380 0.836040 0.250890 0.997293
Cr6   Cr    Cr6+3 0.729620 0.336040 0.749110 0.998593
Cr7   Cr    Cr6+3 0.270380 0.336040 0.250890 0.997293
Cr8   Cr    Cr6+3 0.387630 0.990680 0.750730 1.000829
Cr9   Cr    Cr6+3 0.612370 0.990680 0.249270 1.001405
Cr10  Cr    Cr6+3 0.887630 0.490680 0.750730 1.000829
Cr11  Cr    Cr6+3 0.112370 0.490680 0.249270 1.001405
Cr12  Cr    Cr6+3 0.386020 0.676590 0.749210 1.000466
H1    H     H_    0.377088 0.794200 0.003744 0.174426
H2    H     H_    0.724073 0.813397 0.029487 0.072686
H3    H     H_    0.210486 0.925981 0.417379 0.109932
H4    H     H_    0.315932 0.437003 0.057435 0.111061
H5    H     H_    0.686776 0.435449 0.951133 0.100120
H6    H     H_    0.815932 0.937003 0.057435 0.111061
H7    H     H_    0.186777 0.935449 0.951133 0.100120
H8    H     H_    0.353973 0.570816 0.074664 0.173586
H9    H     H_    0.645574 0.561564 0.920832 0.173259
H10   H     H_    0.853973 0.070816 0.074664 0.173586
H11   H     H_    0.145574 0.061564 0.920832 0.173259
H12   H     H_    0.367151 0.606046 0.955381 0.144552
H13   H     H_    0.777349 0.299699 0.957779 0.082113
H14   H     H_    0.629688 0.623796 0.037060 0.139883
H15   H     H_    0.867151 0.106046 0.955381 0.144552
H16   H     H_    0.129688 0.123796 0.037059 0.139883
H17   H     H_    0.328696 0.466480 0.936757 0.124941
H18   H     H_    0.663899 0.485935 0.065662 0.133189
H19   H     H_    0.828696 0.966480 0.936757 0.124941
H20   H     H_    0.163899 0.985935 0.065662 0.133189
H21   H     H_    0.662057 0.949939 0.047351 0.088170
H22   H     H_    0.333721 0.947607 0.963789 0.093906
H23   H     H_    0.162057 0.449939 0.047351 0.088170
H24   H     H_    0.224073 0.313397 0.029487 0.072686
H25   H     H_    0.833722 0.447607 0.963789 0.093906
H26   H     H_    0.706244 0.945756 0.929191 0.156131
H27   H     H_    0.285837 0.958927 0.077961 0.156347
H28   H     H_    0.206243 0.445756 0.929191 0.156131
H29   H     H_    0.785837 0.458927 0.077961 0.156348
H30   H     H_    0.291504 0.764772 0.145015 0.324907
H31   H     H_    0.707601 0.759183 0.847594 0.325311
H32   H     H_    0.791504 0.264772 0.145015 0.324908
H33   H     H_    0.207601 0.259183 0.847594 0.325311
H34   H     H_    0.584415 0.071616 0.066412 0.354020
H35   H     H_    0.190111 0.757920 0.961380 0.151713
H36   H     H_    0.410914 0.067525 0.933332 0.353687
H37   H     H_    0.084415 0.571616 0.066412 0.354021
H38   H     H_    0.910914 0.567525 0.933332 0.353688
H39   H     H_    0.809800 0.764983 0.029731 0.149205
H40   H     H_    0.690111 0.257920 0.961380 0.151713
H41   H     H_    0.309800 0.264983 0.029731 0.149205
H42   H     H_    0.148251 0.563481 0.913898 0.171673
H43   H     H_    0.846231 0.574799 0.089014 0.179642
H44   H     H_    0.648251 0.063481 0.913898 0.171673
H45   H     H_    0.622420 0.815045 0.987667 0.173487
H46   H     H_    0.346231 0.074799 0.089014 0.179642
H47   H     H_    0.546884 0.645200 0.446821 0.135723
H48   H     H_    0.453067 0.645159 0.553880 0.136284
H49   H     H_    0.046884 0.145200 0.446821 0.135724
H50   H     H_    0.953067 0.145159 0.553880 0.136284
H51   H     H_    0.458719 0.657019 0.435742 0.115700
H52   H     H_    0.541187 0.657406 0.564894 0.115866
H53   H     H_    0.958719 0.157019 0.435742 0.115700
H54   H     H_    0.041187 0.157406 0.564894 0.115866
H55   H     H_    0.616709 0.895701 0.454060 0.112375
H56   H     H_    0.877088 0.294200 0.003744 0.174426
H57   H     H_    0.383319 0.896118 0.545479 0.112058
H58   H     H_    0.116709 0.395701 0.454060 0.112375
H59   H     H_    0.883319 0.396118 0.545479 0.112058
H60   H     H_    0.601083 0.831193 0.576506 0.110039
H61   H     H_    0.398819 0.830786 0.423443 0.110160
H62   H     H_    0.101083 0.331193 0.576506 0.110039
H63   H     H_    0.898819 0.330786 0.423443 0.110160
H64   H     H_    0.456635 0.989709 0.066084 0.156330
H65   H     H_    0.533413 0.000214 0.936648 0.154307
H66   H     H_    0.956635 0.489709 0.066084 0.156330
H67   H     H_    0.122420 0.315045 0.987667 0.173487
H68   H     H_    0.033413 0.500214 0.936648 0.154307
H69   H     H_    0.437800 0.972987 0.415297 0.111565
H70   H     H_    0.562180 0.973414 0.583684 0.110988
H71   H     H_    0.937800 0.472987 0.415297 0.111565
H72   H     H_    0.062180 0.473414 0.583684 0.110988
H73   H     H_    0.449515 0.997826 0.535693 0.117989
H74   H     H_    0.550562 0.997447 0.463079 0.118874
H75   H     H_    0.949515 0.497826 0.535693 0.117989
H76   H     H_    0.050562 0.497447 0.463079 0.118874
H77   H     H_    0.129491 0.609690 0.445541 0.135800
H78   H     H_    0.196889 0.758618 0.081458 0.174121
H79   H     H_    0.870636 0.609716 0.554421 0.136154
H80   H     H_    0.629491 0.109690 0.445541 0.135800
H81   H     H_    0.370636 0.109716 0.554421 0.136154
H82   H     H_    0.179213 0.734852 0.433292 0.115355
H83   H     H_    0.821121 0.735200 0.566038 0.114930
H84   H     H_    0.679213 0.234852 0.433292 0.115355
H85   H     H_    0.321121 0.235200 0.566038 0.114930
H86   H     H_    0.178771 0.752844 0.550999 0.134665
H87   H     H_    0.821374 0.753001 0.448302 0.135424
H88   H     H_    0.678771 0.252844 0.550999 0.134665
H89   H     H_    0.801947 0.755805 0.910527 0.167014
H90   H     H_    0.321374 0.253001 0.448302 0.135424
H91   H     H_    0.139595 0.616609 0.563756 0.116377
H92   H     H_    0.860519 0.616723 0.436244 0.116462
H93   H     H_    0.639595 0.116609 0.563756 0.116377
H94   H     H_    0.360519 0.116723 0.436244 0.116462
H95   H     H_    0.722110 0.881261 0.454488 0.112211
H96   H     H_    0.277853 0.881610 0.546937 0.112834
H97   H     H_    0.222110 0.381261 0.454489 0.112210
H98   H     H_    0.777853 0.381610 0.546937 0.112834
H99   H     H_    0.697947 0.939163 0.575933 0.109698
H100  H     H_    0.696889 0.258618 0.081458 0.174121
H101  H     H_    0.302046 0.939016 0.425082 0.110235
H102  H     H_    0.197947 0.439163 0.575933 0.109698
H103  H     H_    0.802046 0.439016 0.425082 0.110234
H104  H     H_    0.349490 0.608826 0.414397 0.111036
H105  H     H_    0.650567 0.609224 0.585544 0.110844
H106  H     H_    0.849490 0.108826 0.414397 0.111036
H107  H     H_    0.150567 0.109224 0.585544 0.110845
H108  H     H_    0.296839 0.737675 0.421479 0.108607
H109  H     H_    0.703306 0.738111 0.577489 0.108585
H110  H     H_    0.796839 0.237676 0.421479 0.108607
H111  H     H_    0.301947 0.255805 0.910527 0.167014
H112  H     H_    0.203306 0.238111 0.577489 0.108585
H113  H     H_    0.541057 0.647726 0.933952 0.141164
H114  H     H_    0.466600 0.637238 0.061261 0.134206
H115  H     H_    0.041057 0.147726 0.933952 0.141164
H116  H     H_    0.966600 0.137238 0.061261 0.134206
H117  H     H_    0.338285 0.731487 0.543158 0.112473
H118  H     H_    0.661635 0.730911 0.455818 0.112522
H119  H     H_    0.838285 0.231487 0.543158 0.112473
H120  H     H_    0.161635 0.230911 0.455818 0.112522
H121  H     H_    0.357530 0.581949 0.534996 0.119141
H122  H     H_    0.277349 0.799699 0.957779 0.082113
H123  H     H_    0.642467 0.581402 0.465123 0.118886
H124  H     H_    0.857530 0.081949 0.534996 0.119141
H125  H     H_    0.142467 0.081402 0.465123 0.118886
H126  H     H_    0.306640 0.429165 0.463318 0.118539
H127  H     H_    0.693340 0.429436 0.537774 0.119214
H128  H     H_    0.806640 0.929165 0.463318 0.118539
H129  H     H_    0.193340 0.929436 0.537774 0.119215
H130  H     H_    0.289473 0.426311 0.583685 0.109947
H131  H     H_    0.710486 0.425981 0.417379 0.109932
H132  H     H_    0.789473 0.926311 0.583685 0.109947
O1    O     O_R   0.214130 0.708570 0.829890 -0.525386
O2    O     O_R   0.542830 0.717300 0.331620 -0.529106
O3    O     O_R   0.957170 0.217300 0.668380 -0.529307
O4    O     O_R   0.042830 0.217300 0.331620 -0.529106
O5    O     O_R   0.320870 0.624890 0.673130 -0.510557
O6    O     O_R   0.679130 0.624890 0.326870 -0.508230
O7    O     O_R   0.820870 0.124890 0.673130 -0.510557
O8    O     O_R   0.179130 0.124890 0.326870 -0.508230
O9    O     O_3   0.334430 0.834430 0.749680 -0.288621
O10   O     O_3   0.665570 0.834430 0.250320 -0.294747
O11   O     O_3   0.834430 0.334430 0.749680 -0.288621
O12   O     O_R   0.785870 0.708570 0.170110 -0.522774
O13   O     O_3   0.165570 0.334430 0.250320 -0.294747
O14   O     O_R   0.236050 0.959150 0.825270 -0.519983
O15   O     O_R   0.763950 0.959150 0.174730 -0.526257
O16   O     O_R   0.736050 0.459150 0.825270 -0.519983
O17   O     O_R   0.263950 0.459150 0.174730 -0.526257
O18   O     O_R   0.332100 0.076650 0.832310 -0.526966
O19   O     O_R   0.667900 0.076650 0.167690 -0.519228
O20   O     O_R   0.832100 0.576650 0.832310 -0.526966
O21   O     O_R   0.167900 0.576650 0.167690 -0.519229
O22   O     O_R   0.446500 0.918620 0.826240 -0.512116
O23   O     O_R   0.714130 0.208570 0.829890 -0.525387
O24   O     O_R   0.553500 0.918620 0.173760 -0.510861
O25   O     O_R   0.946500 0.418620 0.826240 -0.512116
O26   O     O_R   0.053500 0.418620 0.173760 -0.510861
O27   O     O_R   0.457310 0.715830 0.831280 -0.514366
O28   O     O_R   0.542690 0.715830 0.168720 -0.515339
O29   O     O_R   0.957310 0.215830 0.831280 -0.514366
O30   O     O_R   0.042690 0.215830 0.168720 -0.515339
O31   O     O_R   0.321000 0.623520 0.824130 -0.513588
O32   O     O_R   0.679000 0.623520 0.175870 -0.510538
O33   O     O_R   0.821000 0.123520 0.824130 -0.513588
O34   O     O_R   0.285870 0.208570 0.170110 -0.522774
O35   O     O_R   0.179000 0.123520 0.175870 -0.510538
O36   O     O_R   0.213990 0.710040 0.667000 -0.531253
O37   O     O_R   0.786010 0.710040 0.333000 -0.529516
O38   O     O_R   0.713990 0.210040 0.667000 -0.531253
O39   O     O_R   0.286010 0.210040 0.333000 -0.529516
O40   O     O_R   0.235920 0.960520 0.674260 -0.510421
O41   O     O_R   0.764080 0.960520 0.325740 -0.510644
O42   O     O_R   0.735920 0.460520 0.674260 -0.510421
O43   O     O_R   0.264080 0.460520 0.325740 -0.510644
O44   O     O_R   0.331960 0.078120 0.669410 -0.534058
O45   O     O_R   0.446360 0.919990 0.675230 -0.505500
O46   O     O_R   0.668040 0.078120 0.330590 -0.533954
O47   O     O_R   0.831960 0.578120 0.669410 -0.534058
O48   O     O_R   0.168040 0.578120 0.330590 -0.533954
O49   O     O_3   0.301626 0.760803 0.093136 -0.787648
O50   O     O_3   0.696577 0.754478 0.899263 -0.783320
O51   O     O_3   0.801626 0.260803 0.093136 -0.787648
O52   O     O_3   0.196577 0.254478 0.899263 -0.783319
O53   O     O_3   0.618568 0.111391 0.035331 -0.736196
O54   O     O_3   0.379883 0.108302 0.966980 -0.739650
O55   O     O_3   0.118568 0.611391 0.035331 -0.736196
O56   O     O_R   0.553640 0.919990 0.324770 -0.505349
O57   O     O_3   0.879883 0.608302 0.966979 -0.739650
O58   O     O_R   0.946360 0.419990 0.675230 -0.505500
O59   O     O_R   0.053640 0.419990 0.324770 -0.505349
O60   O     O_R   0.457170 0.717300 0.668380 -0.529307

loop_
_geom_bond_atom_site_label_1
_geom_bond_atom_site_label_2
_ccdc_geom_bond_type
C37   H100  S    
C9    O6    A    
C65   H55   S    
C113  O34   A    
C107  H99   S    
C11   O8    A    
C34   C42   S    
C90   H128  S    
C69   H59   S    
C33   O19   A    
C115  H118  S    
C37   O51   S    
C38   O52   S    
C14   C21   S    
C90   C107  S    
C46   C112  S    
Cr2   O10   S    
C81   H84   S    
C79   H77   S    
C5    C74   S    
Cr9   O19   S    
C36   C53   S    
C18   H45   S    
C89   H127  S    
C89   C106  S    
C70   C74   S    
C71   H60   S    
C51   H46   S    
C67   H73   S    
C35   O49   S    
C83   H91   S    
C59   C60   S    
C73   H62   S    
C60   H50   S    
C12   H64   S    
Cr9   O10   S    
H31   O50   S    
C7    O59   A    
Cr2   O28   S    
Cr1   O1    S    
Cr11  O21   S    
C83   H86   S    
C19   C99   S    
C87   H97   S    
C92   H104  S    
C17   C21   S    
C19   C23   S    
C19   H56   S    
C16   C20   S    
C85   H93   S    
C95   H107  S    
C13   H10   S    
C31   H25   S    
Cr4   O35   S    
C72   H71   S    
C36   O50   S    
C10   O7    A    
C17   H1    S    
C120  O47   A    
C49   H43   S    
C104  C117  S    
C116  H124  S    
Cr12  O60   S    
C66   C77   S    
C18   C66   S    
C28   H15   S    
C35   H78   S    
C26   H17   S    
C10   O38   A    
C45   C111  S    
C103  C116  S    
C79   C96   S    
Cr7   O34   S    
C70   H61   S    
C62   O24   A    
Cr8   O9    S    
C88   C99   S    
H37   O55   S    
C2    C40   S    
C81   C98   S    
C55   O17   A    
C58   H48   S    
Cr8   O45   S    
Cr10  O58   S    
Cr8   O44   S    
C21   C66   S    
C84   C102  S    
C3    O48   A    
C110  H4    S    
Cr8   O18   S    
C56   H24   S    
C86   C104  S    
C29   H16   S    
C50   H26   S    
C38   H111  S    
C48   H28   S    
C28   C46   S    
C34   C51   S    
C29   C47   S    
C30   C48   S    
C43   C52   S    
C15   C25   S    
C24   H11   S    
C12   C22   S    
C92   C96   S    
Cr1   O36   S    
C64   O26   A    
C8    O36   A    
C93   H105  S    
C119  O46   A    
C32   C41   S    
C49   H29   S    
C91   H129  S    
H32   O51   S    
Cr5   O37   S    
C45   C53   S    
Cr3   O33   S    
Cr4   O30   S    
C117  H120  S    
Cr3   O11   S    
C48   H42   S    
C14   H65   S    
C54   H40   S    
C108  H3    S    
C109  O1    A    
C53   H39   S    
C105  H130  S    
C109  O31   A    
C111  O12   A    
C114  H117  S    
C62   O28   A    
C65   C74   S    
C25   C64   S    
C69   C72   S    
C82   H81   S    
C87   C105  S    
Cr12  O27   S    
C61   O22   A    
C2    C27   S    
C32   O53   S    
C27   H18   S    
C23   C88   S    
C91   C100  S    
C67   C75   S    
Cr3   O29   S    
C93   C97   S    
C35   C52   S    
Cr2   O2    S    
Cr3   O7    S    
Cr4   O8    S    
C119  O41   A    
C18   C22   S    
C85   C103  S    
C103  C107  S    
C7    C76   S    
C116  H119  S    
C16   C23   S    
C67   C70   S    
C13   H6    S    
C93   H109  S    
C57   C58   S    
C44   O16   A    
C82   H85   S    
Cr12  O9    S    
Cr10  O25   S    
C30   C39   S    
C59   H53   S    
C37   C41   S    
Cr9   O56   S    
C40   C44   S    
C38   C56   S    
C28   H19   S    
C43   C109  S    
C59   C76   S    
C66   H113  S    
C81   C85   S    
C47   C56   S    
C71   H70   S    
C24   C42   S    
C105  H102  S    
C34   O54   S    
C80   C84   S    
C13   C41   S    
Cr2   O32   S    
C15   C19   S    
C10   C103  S    
C85   H88   S    
C52   H35   S    
C80   C97   S    
C20   C25   S    
C94   C98   S    
C44   O20   A    
C55   O21   A    
C107  H132  S    
C31   C40   S    
C58   H52   S    
C77   H114  S    
C59   H49   S    
C52   H122  S    
C24   C29   S    
C4    C75   S    
C102  C115  S    
C25   C99   S    
C79   H82   S    
C39   C55   S    
C9    C102  S    
C12   C17   S    
C68   H76   S    
C13   C28   S    
C11   C104  S    
C112  O23   A    
C89   H98   S    
C83   C101  S    
C8    C101  S    
C21   C61   S    
C95   H112  S    
C27   C45   S    
C23   C63   S    
C5    O2    A    
C113  O35   A    
C101  C114  S    
C31   C49   S    
C91   H96   S    
C80   H83   S    
Cr5   O10   S    
C34   H22   S    
C24   H7    S    
C69   H75   S    
Cr1   O40   S    
C90   H95   S    
C6    O58   A    
Cr1   O14   S    
C84   H92   S    
Cr12  O5    S    
C57   H47   S    
C15   H66   S    
C94   C116  S    
C95   C100  S    
C47   C51   S    
C82   C86   S    
C95   C117  S    
H38   O57   S    
C35   C39   S    
Cr6   O38   S    
C68   H58   S    
H34   O53   S    
C60   C78   S    
C46   C54   S    
C17   C77   S    
Cr7   O13   S    
C30   H23   S    
C100  C118  S    
C104  C108  S    
C47   C113  S    
C114  H121  S    
C2    H5    S    
C91   C108  S    
C53   H2    S    
C22   C77   S    
Cr4   O13   S    
Cr6   O42   S    
Cr11  O48   S    
Cr12  O31   S    
C56   H41   S    
C33   C41   S    
C1    O14   A    
C61   O27   A    
C30   O55   S    
C79   C83   S    
C27   H14   S    
C20   C88   S    
C106  H131  S    
Cr4   O4    S    
Cr1   O9    S    
Cr11  O13   S    
C6    C78   S    
Cr2   O6    S    
C32   H21   S    
Cr3   O3    S    
C1    C42   S    
C81   H80   S    
C6    O3    A    
C120  O42   A    
Cr11  O59   S    
C5    O56   A    
C58   C75   S    
C29   H20   S    
Cr5   O12   S    
Cr6   O11   S    
C14   C18   S    
C63   O29   A    
C72   C76   S    
C72   H63   S    
C98   C119  S    
C92   H108  S    
C38   C42   S    
Cr7   O39   S    
C1    O18   A    
C4    O45   A    
H33   O52   S    
C15   C16   S    
C50   H44   S    
C93   C115  S    
C31   O57   S    
C99   H116  S    
Cr10  O20   S    
C94   H106  S    
C39   C110  S    
C118  O44   A    
C73   C78   S    
C3    C96   S    
C45   C49   S    
C43   C48   S    
C26   C110  S    
C70   H69   S    
Cr7   O43   S    
Cr6   O23   S    
Cr5   O41   S    
C69   C78   S    
C26   H12   S    
C87   H126  S    
C26   C43   S    
Cr10  O47   S    
C101  C105  S    
C73   H72   S    
C106  H103  S    
C36   C40   S    
H36   O54   S    
C65   H74   S    
Cr5   O15   S    
C68   C73   S    
C65   C71   S    
Cr6   O16   S    
C89   C97   S    
C57   C74   S    
H30   O49   S    
C20   H67   S    
C9    O37   A    
C8    O5    A    
C84   H87   S    
C22   C62   S    
C117  H125  S    
C11   O39   A    
C87   C96   S    
C118  O40   A    
C68   C76   S    
C32   C50   S    
C80   H79   S    
C37   C54   S    
C12   C14   S    
C54   H13   S    
C86   H94   S    
C57   H51   S    
C4    O60   A    
C33   O15   A    
C108  H101  S    
C60   H54   S    
C111  O32   A    
Cr11  O26   S    
C82   C100  S    
Cr9   O24   S    
C16   H68   S    
Cr9   O46   S    
C67   H57   S    
C46   C50   S    
C112  O33   A    
Cr7   O17   S    
C97   C120  S    
C110  H8    S    
C94   H110  S    
Cr8   O22   S    
C88   H115  S    
C71   C75   S    
C36   H89   S    
C51   H27   S    
C102  C106  S    
C7    O4    A    
C115  H123  S    
C63   O25   A    
C2    H9    S    
C3    O43   A    
C64   O30   A    
C86   H90   S    
Cr10  O11   S    
C92   C114  S    
C90   C98   S    
