data_mof_unit_18940.cif
_audit_creation_date              2012-12-10T17:09:21-0500
_audit_creation_method            fapswitch 2.2
_symmetry_space_group_name_H-M    P1
_symmetry_Int_Tables_number       1
_space_group_crystal_system       triclinic
_cell_length_a                    18.005087
_cell_length_b                    18.680852
_cell_length_c                    11.827794
_cell_angle_alpha                 89.996767
_cell_angle_beta                  75.743927
_cell_angle_gamma                 89.999957
_cell_volume                      3855.77086666

loop_
_atom_site_label
_atom_site_type_symbol
_atom_type_description
_atom_site_fract_x
_atom_site_fract_y
_atom_site_fract_z
_atom_type_partial_charge
C1    C     C_R   0.400570 0.100959 0.521176 0.885754
C2    C     C_R   0.600994 0.900859 0.478528 0.743949
C3    C     C_R   0.599428 0.100962 0.478820 0.886173
C4    C     C_R   0.399006 0.900856 0.521475 0.743732
C5    C     C_R   0.900570 0.600959 0.521176 0.885993
C6    C     C_R   0.100994 0.400858 0.478528 0.743842
C7    C     C_R   0.099430 0.600960 0.478820 0.885980
C8    C     C_R   0.899006 0.400856 0.521475 0.743853
C9    C     C_R   0.536397 0.001733 0.961521 -0.011833
C10   C     C_R   0.463624 0.001944 0.038466 -0.011447
C11   C     C_R   0.036386 0.501837 0.961527 -0.011685
C12   C     C_R   0.963613 0.501834 0.038473 -0.011709
C13   C     C_R   0.408523 0.997098 0.868358 0.156267
C14   C     C_R   0.591448 0.996683 0.131657 0.156413
C15   C     C_R   0.908534 0.496918 0.868352 0.156378
C16   C     C_R   0.091467 0.496926 0.131648 0.156362
C17   C     C_R   0.400145 0.999277 0.990012 -0.225251
C18   C     C_R   0.599859 0.998768 0.009992 -0.225953
C19   C     C_R   0.900142 0.499036 0.990013 -0.225581
C20   C     C_R   0.099858 0.499044 0.009988 -0.225586
C21   C     C_R   0.544076 0.002750 0.837904 0.134612
C22   C     C_R   0.455942 0.003050 0.162084 0.134707
C23   C     C_R   0.044067 0.502890 0.837908 0.134650
C24   C     C_R   0.955933 0.502885 0.162092 0.134640
C25   C     C_R   0.655044 0.159147 0.465982 -0.052841
C26   C     C_R   0.336445 0.850497 0.533427 -0.130891
C27   C     C_R   0.344948 0.159135 0.534011 -0.053032
C28   C     C_R   0.663556 0.850502 0.466583 -0.131016
C29   C     C_R   0.155051 0.659139 0.465981 -0.052927
C30   C     C_R   0.836445 0.350496 0.533428 -0.130986
C31   C     C_R   0.844948 0.659137 0.534010 -0.052926
C32   C     C_R   0.163556 0.350502 0.466583 -0.130949
C33   C     C_R   0.199901 0.830456 0.603446 -0.039673
C34   C     C_R   0.779252 0.203504 0.360939 0.005787
C35   C     C_R   0.800097 0.830463 0.396549 -0.039727
C36   C     C_R   0.220727 0.203465 0.639036 0.005591
C37   C     C_R   0.699908 0.330442 0.603492 -0.039717
C38   C     C_R   0.279278 0.703472 0.360965 0.005637
C39   C     C_R   0.300098 0.330465 0.396558 -0.039676
C40   C     C_R   0.720731 0.703471 0.639040 0.005648
C41   C     C_R   0.265076 0.871197 0.600828 -0.119782
C42   C     C_R   0.717948 0.156858 0.369934 -0.196877
C43   C     C_R   0.734923 0.871208 0.399179 -0.118696
C44   C     C_R   0.282032 0.156821 0.630041 -0.196847
C45   C     C_R   0.765083 0.371186 0.600861 -0.119369
C46   C     C_R   0.217970 0.656831 0.369954 -0.196866
C47   C     C_R   0.234924 0.371208 0.399183 -0.119338
C48   C     C_R   0.782035 0.656825 0.630043 -0.196818
C49   C     C_R   0.344790 0.788845 0.464102 -0.100291
C50   C     C_R   0.647040 0.215473 0.547954 -0.050211
C51   C     C_R   0.655213 0.788848 0.535910 -0.100492
C52   C     C_R   0.352959 0.215479 0.452060 -0.050067
C53   C     C_R   0.844783 0.288854 0.464083 -0.100411
C54   C     C_R   0.147039 0.715477 0.547935 -0.050164
C55   C     C_R   0.155211 0.288845 0.535905 -0.100351
C56   C     C_R   0.852958 0.715478 0.452055 -0.050102
C57   C     C_R   0.278087 0.752286 0.453249 0.075636
C58   C     C_R   0.707094 0.266362 0.536031 -0.021393
C59   C     C_R   0.721917 0.752288 0.546757 0.075623
C60   C     C_R   0.292904 0.266366 0.463987 -0.021319
C61   C     C_R   0.778075 0.252300 0.453239 0.075630
C62   C     C_R   0.207096 0.766363 0.536013 -0.021328
C63   C     C_R   0.221915 0.252285 0.546754 0.075617
C64   C     C_R   0.792904 0.766367 0.463984 -0.021386
Cu1   Cu    Cu3+1 0.507800 0.000000 0.383250 0.963771
Cu2   Cu    Cu3+1 0.492200 0.000000 0.616750 0.963967
Cu3   Cu    Cu3+1 0.007800 0.500000 0.383250 0.963871
Cu4   Cu    Cu3+1 0.992200 0.500000 0.616750 0.963858
N1    N     N_R   0.519530 0.000000 0.207810 -0.251034
N2    N     N_R   0.480470 0.000000 0.792190 -0.250901
N3    N     N_R   0.019530 0.500000 0.207810 -0.250961
N4    N     N_R   0.980470 0.500000 0.792190 -0.250971
O1    O     O_R   0.430030 0.075530 0.417420 -0.543759
O2    O     O_R   0.569970 0.924470 0.582580 -0.620905
O3    O     O_R   0.569970 0.075530 0.582580 -0.542996
O4    O     O_R   0.430030 0.924470 0.417420 -0.620950
O5    O     O_R   0.930030 0.575530 0.417420 -0.543318
O6    O     O_R   0.069970 0.424470 0.582580 -0.620913
O7    O     O_R   0.069970 0.575530 0.582580 -0.543344
O8    O     O_R   0.930030 0.424470 0.417420 -0.620912
O9    O     O_R   0.416860 0.075510 0.614610 -0.603123
O10   O     O_R   0.583140 0.924490 0.385390 -0.603931
O11   O     O_R   0.583140 0.075510 0.385390 -0.603154
O12   O     O_R   0.416860 0.924490 0.614610 -0.604321
O13   O     O_R   0.916860 0.575510 0.614610 -0.603146
O14   O     O_R   0.083140 0.424490 0.385390 -0.604189
O15   O     O_R   0.083140 0.575510 0.385390 -0.603156
O16   O     O_R   0.916860 0.424490 0.614610 -0.604204
C65   C     C_2   0.663065 0.990599 0.172215 0.422705
H1    H     H_    0.665197 0.002402 0.259773 0.103450
O17   O     O_2   0.723103 0.971861 0.105523 -0.505985
C66   C     C_2   0.336837 0.991392 0.827845 0.421477
H2    H     H_    0.334942 0.002176 0.739893 0.104159
O18   O     O_2   0.276424 0.974145 0.895043 -0.505511
C67   C     C_2   0.163129 0.491101 0.172180 0.421929
H3    H     H_    0.165106 0.502262 0.259987 0.103917
O19   O     O_2   0.223415 0.473332 0.105168 -0.505683
C68   C     C_2   0.836874 0.491081 0.827821 0.421935
H4    H     H_    0.834893 0.502255 0.740017 0.103906
O20   O     O_2   0.776595 0.473287 0.894828 -0.505707
C69   C     C_2   0.378720 0.008142 0.241089 0.417181
H5    H     H_    0.352710 0.962259 0.291304 0.074259
O21   O     O_2   0.342016 0.063517 0.246289 -0.534553
C70   C     C_2   0.621319 0.007433 0.758888 0.418206
H6    H     H_    0.647294 0.961227 0.709559 0.073321
O22   O     O_2   0.658116 0.062796 0.752859 -0.534351
C71   C     C_2   0.878699 0.507749 0.241107 0.417747
H7    H     H_    0.852703 0.461677 0.290827 0.073697
O23   O     O_2   0.841949 0.563127 0.246770 -0.534347
C72   C     C_2   0.121301 0.507761 0.758893 0.417709
H8    H     H_    0.147291 0.461698 0.709155 0.073747
O24   O     O_2   0.158055 0.563134 0.753245 -0.534416
C73   C     C_2   0.579821 0.217179 0.650359 0.396774
H9    H     H_    0.588157 0.226940 0.736846 0.111217
O25   O     O_2   0.514751 0.210506 0.638240 -0.518999
C74   C     C_2   0.423165 0.758360 0.418964 0.352294
H10   H     H_    0.473117 0.792811 0.397242 0.083368
O26   O     O_2   0.433119 0.693690 0.411656 -0.461715
C75   C     C_2   0.420188 0.217207 0.349671 0.396875
H11   H     H_    0.411865 0.226999 0.263182 0.111472
O27   O     O_2   0.485253 0.210518 0.361804 -0.519087
C76   C     C_2   0.576838 0.758362 0.581059 0.352322
H12   H     H_    0.526884 0.792812 0.602752 0.083244
O28   O     O_2   0.566885 0.693691 0.588408 -0.461726
C77   C     C_2   0.079808 0.717198 0.650322 0.396840
H13   H     H_    0.088130 0.726981 0.736812 0.111313
O29   O     O_2   0.014743 0.710515 0.638184 -0.519020
C78   C     C_2   0.923156 0.258372 0.418913 0.352313
H14   H     H_    0.973112 0.292821 0.397234 0.083317
O30   O     O_2   0.933106 0.193702 0.411532 -0.461739
C79   C     C_2   0.920183 0.717201 0.349660 0.396825
H15   H     H_    0.911855 0.726989 0.263173 0.111383
O31   O     O_2   0.985250 0.710515 0.361786 -0.519054
C80   C     C_2   0.076836 0.258357 0.581044 0.352272
H16   H     H_    0.026881 0.292807 0.602730 0.083277
O32   O     O_2   0.066885 0.193686 0.588391 -0.461786
H17   H     H_    0.720102 0.116985 0.302696 0.183883
H18   H     H_    0.259752 0.921775 0.647111 0.176467
H19   H     H_    0.279872 0.116932 0.697263 0.184328
H20   H     H_    0.740244 0.921790 0.352901 0.176693
H21   H     H_    0.220132 0.616946 0.302730 0.184162
H22   H     H_    0.759763 0.421757 0.647161 0.176571
H23   H     H_    0.779875 0.616937 0.697266 0.184153
H24   H     H_    0.240247 0.421791 0.352905 0.176546
C81   C     C_2   0.625006 0.363110 0.661801 0.380551
H25   H     H_    0.574735 0.353316 0.629049 0.102604
O33   O     O_2   0.619082 0.402911 0.745496 -0.453652
C82   C     C_2   0.339126 0.705741 0.248931 0.499091
H26   H     H_    0.375532 0.752443 0.226082 0.038488
O34   O     O_2   0.347595 0.656034 0.179826 -0.470464
C83   C     C_2   0.375004 0.363148 0.338297 0.380541
H27   H     H_    0.425268 0.353336 0.371060 0.102564
O35   O     O_2   0.380940 0.402983 0.254632 -0.453622
C84   C     C_2   0.660893 0.705742 0.751081 0.499304
H28   H     H_    0.624494 0.752446 0.773933 0.038390
O36   O     O_2   0.652424 0.656032 0.820186 -0.470442
C85   C     C_2   0.124994 0.863136 0.661705 0.380477
H29   H     H_    0.074733 0.853331 0.628934 0.102610
O37   O     O_2   0.119056 0.902961 0.745376 -0.453722
C86   C     C_2   0.839081 0.205799 0.248889 0.499012
H30   H     H_    0.875480 0.252506 0.226053 0.038505
O38   O     O_2   0.847541 0.156108 0.179761 -0.470957
C87   C     C_2   0.875002 0.863143 0.338276 0.380616
H31   H     H_    0.925269 0.853332 0.371033 0.102527
O39   O     O_2   0.880934 0.902974 0.254607 -0.453529
C88   C     C_2   0.160886 0.205732 0.751075 0.499291
H32   H     H_    0.124480 0.252433 0.773922 0.038374
O40   O     O_2   0.152422 0.156024 0.820182 -0.470221
H33   H     H_    0.343055 0.997795 0.046993 0.208345
H34   H     H_    0.656955 0.997010 0.953042 0.207525
H35   H     H_    0.843051 0.497427 0.046984 0.207985
H36   H     H_    0.156949 0.497439 0.953016 0.208004

loop_
_geom_bond_atom_site_label_1
_geom_bond_atom_site_label_2
_ccdc_geom_bond_type
C6    C32   S    
C69   H5    S    
C7    C29   S    
C14   C18   A    
C30   C45   A    
C87   H31   S    
Cu3   O5    S    
C78   H14   S    
C70   O22   D    
C81   H25   S    
Cu1   O1    S    
C57   C62   A    
Cu2   N2    S    
C2    O10   A    
C10   C22   A    
C15   C19   A    
C15   N4    A    
C59   C64   A    
C85   H29   S    
C22   C69   S    
C60   C63   A    
C39   C47   A    
C87   O39   D    
C19   H35   S    
C28   C51   A    
C17   H33   S    
Cu1   O11   S    
C29   C54   A    
C39   C60   A    
C10   C17   A    
C1    O9    A    
Cu2   O2    S    
C39   C83   S    
C49   C57   A    
C74   H10   S    
C25   C50   A    
C52   C60   A    
C81   O33   D    
C72   H8    S    
C21   C70   S    
C53   C61   A    
C27   C44   A    
C7    O15   A    
C67   H3    S    
C34   C42   A    
C16   C67   S    
C55   C63   A    
C29   C46   A    
C83   H27   S    
C56   C64   A    
C35   C64   A    
C31   C56   A    
C65   O17   D    
C36   C63   A    
C3    O3    A    
C9    C10   A    
C22   N1    A    
C84   O36   D    
C37   C58   A    
C2    O2    A    
Cu4   N4    S    
C5    O13   A    
Cu4   O7    S    
C18   H34   S    
C85   O37   D    
C40   C59   A    
C42   H17   S    
C88   O40   D    
Cu4   O13   S    
C71   O23   D    
C40   C84   S    
C16   N3    A    
C66   O18   D    
C70   H6    S    
C54   C77   S    
C33   C85   S    
C46   H21   S    
C75   O27   D    
Cu4   O6    S    
C30   C53   A    
C11   C20   A    
C38   C46   A    
Cu3   Cu4   S    
C50   C58   A    
C3    C25   S    
C82   H26   S    
C26   C49   A    
C33   C62   A    
C80   O32   D    
C54   C62   A    
C47   H24   S    
C34   C61   A    
C35   C87   S    
C48   H23   S    
C73   O25   D    
C8    O16   A    
C86   O38   D    
C14   C65   S    
C53   C78   S    
C38   C57   A    
C4    O12   A    
C16   C20   A    
C8    O8    A    
C36   C88   S    
C84   H28   S    
C43   H20   S    
C24   C71   S    
C26   C41   A    
Cu1   O4    S    
C38   C82   S    
C41   H18   S    
C1    O1    A    
C20   H36   S    
Cu1   Cu2   S    
C44   H19   S    
C68   O20   D    
C31   C48   A    
C13   C66   S    
C3    O11   A    
C88   H32   S    
Cu4   O16   S    
C32   C47   A    
C36   C44   A    
C51   C59   A    
C71   H7    S    
C37   C45   A    
C79   H15   S    
C76   O28   D    
C35   C43   A    
C27   C52   A    
C7    O7    A    
C73   H9    S    
C40   C48   A    
C23   C72   S    
Cu3   O14   S    
C32   C55   A    
C23   N4    A    
Cu3   O8    S    
C82   O34   D    
C79   O31   D    
C78   O30   D    
C25   C42   A    
C4    C26   S    
C75   H11   S    
C67   O19   D    
C80   H16   S    
C55   C80   S    
C12   C24   A    
C28   C43   A    
Cu3   O15   S    
C6    O14   A    
C13   C17   A    
C21   N2    A    
C50   C73   S    
C33   C41   A    
C86   H30   S    
C65   H1    S    
C8    C30   S    
C1    C27   S    
Cu2   O9    S    
C9    C21   A    
Cu1   O10   S    
C77   H13   S    
C58   C61   A    
Cu1   N1    S    
Cu2   O3    S    
C12   C19   A    
C11   C23   A    
C66   H2    S    
C14   N1    A    
C74   O26   D    
C45   H22   S    
Cu3   N3    S    
C83   O35   D    
C72   O24   D    
C4    O4    A    
C56   C79   S    
C6    O6    A    
Cu2   O12   S    
C52   C75   S    
C9    C18   A    
C49   C74   S    
C24   N3    A    
C69   O21   D    
C68   H4    S    
C13   N2    A    
C77   O29   D    
C51   C76   S    
C2    C28   S    
C15   C68   S    
C37   C81   S    
C76   H12   S    
C5    O5    A    
C11   C12   A    
C5    C31   S    
C34   C86   S    
