data_mof_unit_48635.cif
_audit_creation_date              2012-10-26T20:52:46-0400
_audit_creation_method            fapswitch 2.2
_symmetry_space_group_name_H-M    P1
_symmetry_Int_Tables_number       1
_space_group_crystal_system       triclinic
_cell_length_a                    13.377505
_cell_length_b                    14.749567
_cell_length_c                    15.992907
_cell_angle_alpha                 90.137333
_cell_angle_beta                  90.063262
_cell_angle_gamma                 71.57201
_cell_volume                      2993.7764085

loop_
_atom_site_label
_atom_site_type_symbol
_atom_type_description
_atom_site_fract_x
_atom_site_fract_y
_atom_site_fract_z
_atom_type_partial_charge
C1    C     C_R   0.500229 0.500061 0.659102 0.552439
C2    C     C_R   0.819506 0.414107 0.500125 -0.058945
C3    C     C_R   0.565663 0.420519 0.043167 0.239328
C4    C     C_R   0.702024 0.448246 0.499905 0.544698
C5    C     C_R   0.501925 0.500653 0.087045 0.005739
C6    C     C_R   0.436420 0.580641 0.043874 0.237657
C7    C     C_R   0.438727 0.582268 0.956186 0.272790
C8    C     C_R   0.502530 0.502199 0.912460 -0.049509
C9    C     C_R   0.567497 0.423225 0.955466 -0.154942
C10   C     C_1   0.502250 0.500023 0.176750 0.037444
C11   C     C_1   0.502060 0.500763 0.822996 -0.007656
C12   C     C_R   0.982798 0.453904 0.482778 -0.016847
C13   C     C_1   0.501238 0.500157 0.748048 0.010644
C14   C     C_1   0.501568 0.499638 0.251771 0.022452
C15   C     C_R   0.433472 0.068486 0.438893 0.196706
C16   C     C_R   0.500463 0.499810 0.340831 0.542505
C17   C     C_R   0.490944 0.099602 0.501744 -0.063102
C18   C     C_R   0.543285 0.033867 0.564304 0.206861
C19   C     C_R   0.542535 0.938627 0.561559 -0.157553
C20   C     C_R   0.494461 0.904415 0.496236 -0.083563
C21   C     C_R   0.443090 0.968703 0.431836 0.243300
C22   C     C_1   0.496876 0.198245 0.501095 0.336058
C23   C     C_R   0.874620 0.473969 0.466124 -0.069567
C24   C     C_1   0.497736 0.803311 0.498412 0.243638
C25   C     C_R   0.298582 0.551402 0.495773 0.553638
C26   C     C_R   0.024543 0.679995 0.410349 -0.084320
C27   C     C_R   0.183954 0.581888 0.479101 -0.008599
C28   C     C_R   0.878185 0.325650 0.538957 0.240848
C29   C     C_R   0.988888 0.299389 0.541680 0.280016
C30   C     C_R   0.039538 0.362706 0.512824 -0.123863
C31   C     C_3   0.610382 0.257920 0.068371 0.022611
C32   C     C_3   0.505764 0.256326 0.106689 -0.286906
C33   C     C_3   0.487872 0.160489 0.090939 -0.423117
C34   C     C_R   0.031543 0.524726 0.466672 0.000393
C35   C     C_3   0.277592 0.649013 0.106012 0.008135
C36   C     C_3   0.207418 0.740463 0.147375 -0.236176
C37   C     C_3   0.104884 0.728389 0.179238 -0.401423
C38   C     C_3   0.429778 0.723800 0.895278 0.026322
C39   C     C_3   0.365860 0.798938 0.833605 -0.258937
C40   C     C_3   0.424367 0.868449 0.808852 -0.459235
C41   C     C_3   0.113527 0.208272 0.634691 0.032046
C42   C     C_3   0.222305 0.135509 0.619937 -0.265789
C43   C     C_3   0.295383 0.130934 0.694229 -0.467948
C44   C     C_R   0.976160 0.608965 0.422568 -0.007999
C45   C     C_R   0.873968 0.619557 0.391928 0.254895
C46   C     C_R   0.825128 0.552207 0.413783 -0.065956
C47   C     C_R   0.132937 0.514968 0.496736 -0.147800
C48   C     C_R   0.127649 0.667608 0.437536 0.216058
Cu1   Cu    Cu3+1 0.499970 0.410790 0.500000 1.138912
Cu2   Cu    Cu3+1 0.500030 0.589210 0.500000 1.102604
H1    H     H_    0.581836 0.889595 0.610530 0.169458
H2    H     H_    0.506774 0.269308 0.175094 0.202855
H3    H     H_    0.439220 0.313797 0.078734 0.148080
H4    H     H_    0.489163 0.145403 0.022790 0.151610
H5    H     H_    0.409837 0.162510 0.115953 0.196144
H6    H     H_    0.549845 0.102083 0.122509 0.200570
H7    H     H_    0.288146 0.588279 0.150044 0.125991
H8    H     H_    0.237451 0.635754 0.048245 0.159976
H9    H     H_    0.250095 0.759753 0.200653 0.240508
H10   H     H_    0.188910 0.799840 0.101350 0.186262
H11   H     H_    0.054984 0.796539 0.207369 0.220756
H12   H     H_    0.982642 0.745787 0.379168 0.226009
H13   H     H_    0.121614 0.671792 0.227794 0.174384
H14   H     H_    0.060773 0.709030 0.126934 0.166856
H15   H     H_    0.507831 0.686365 0.866275 0.130702
H16   H     H_    0.442180 0.760091 0.953702 0.177583
H17   H     H_    0.350027 0.762708 0.776387 0.190648
H18   H     H_    0.289124 0.839549 0.862410 0.188648
H19   H     H_    0.439498 0.906954 0.864795 0.172168
H20   H     H_    0.375741 0.921568 0.763953 0.154607
H21   H     H_    0.500478 0.829561 0.778340 0.169966
H22   H     H_    0.432508 0.788186 0.275043 0.379649
H23   H     H_    0.174436 0.455020 0.535399 0.134112
H24   H     H_    0.367055 0.232389 0.262790 0.353615
H25   H     H_    0.593940 0.197004 0.719433 0.389453
H26   H     H_    0.663525 0.751775 0.249915 0.395785
H27   H     H_    0.921433 0.102644 0.603113 0.395922
H28   H     H_    0.077934 0.186693 0.690897 0.192109
H29   H     H_    0.123101 0.279120 0.649134 0.100407
H30   H     H_    0.214158 0.063625 0.609485 0.193816
H31   H     H_    0.257861 0.155772 0.563125 0.204546
H32   H     H_    0.309341 0.200711 0.702879 0.186592
H33   H     H_    0.372121 0.075188 0.682732 0.185540
H34   H     H_    0.124508 0.337047 0.511698 0.165747
H35   H     H_    0.260629 0.112355 0.752210 0.151760
H36   H     H_    0.748675 0.560256 0.387224 0.193803
H37   H     H_    0.619995 0.364328 0.920516 0.145701
H38   H     H_    0.255582 0.843550 0.493067 0.376714
H39   H     H_    0.674898 0.198354 0.096042 0.184777
H40   H     H_    0.612156 0.243048 0.000144 0.128866
N1    N     N_1   0.499970 0.723300 0.500020 -0.142810
N2    N     N_1   0.500030 0.276700 0.499980 -0.118005
O1    O     O_R   0.499950 0.424690 0.619690 -0.462759
O2    O     O_2   0.102948 0.843381 0.374553 -0.242755
O3    O     O_3   0.217082 0.798759 0.508685 -0.493732
O4    O     O_3   0.631633 0.343921 0.087516 -0.542496
O5    O     O_3   0.375866 0.660561 0.086908 -0.549968
O6    O     O_3   0.373315 0.659845 0.913349 -0.549677
O7    O     O_2   0.282624 0.934195 0.351458 -0.201906
O8    O     O_2   0.412208 0.976280 0.264617 -0.211255
O9    O     O_3   0.463829 0.806366 0.326024 -0.488965
O10   O     O_2   0.254716 0.126507 0.344132 -0.170664
O11   O     O_2   0.302816 0.249774 0.419459 -0.348035
O12   O     O_R   0.500000 0.575360 0.619690 -0.516063
O13   O     O_3   0.414137 0.174159 0.289871 -0.504229
O14   O     O_2   0.614294 0.003705 0.722355 -0.301333
O15   O     O_2   0.719652 0.058949 0.621519 -0.184664
O16   O     O_3   0.547042 0.181747 0.677523 -0.533062
O17   O     O_2   0.773968 0.807153 0.377014 -0.245899
O18   O     O_2   0.871526 0.724197 0.254614 -0.308874
O19   O     O_3   0.692943 0.698901 0.289969 -0.498914
O20   O     O_2   0.731304 0.302980 0.644712 -0.261611
O21   O     O_2   0.767530 0.203903 0.518380 -0.228281
O22   O     O_3   0.900521 0.158560 0.641201 -0.466952
O23   O     O_R   0.650940 0.387890 0.499980 -0.421068
O24   O     O_3   0.048311 0.207583 0.564794 -0.512055
O25   O     O_R   0.650990 0.538570 0.499980 -0.519522
O26   O     O_R   0.500000 0.424640 0.380310 -0.501608
O27   O     O_R   0.500050 0.575310 0.380310 -0.446900
O28   O     O_R   0.349010 0.461430 0.500020 -0.513898
O29   O     O_R   0.349060 0.612110 0.500020 -0.423050
O30   O     O_2   0.277103 0.723273 0.362395 -0.283744
S1    S     S_3+6 0.181853 0.760668 0.417401 0.043743
S2    S     S_3+6 0.397547 0.922768 0.341064 0.091425
S3    S     S_3+6 0.346205 0.156723 0.373181 0.045081
S4    S     S_3+6 0.609465 0.068134 0.648717 0.029045
S5    S     S_3+6 0.803315 0.716090 0.327022 0.011098
S6    S     S_3+6 0.816307 0.247276 0.585966 0.092682

loop_
_geom_bond_atom_site_label_1
_geom_bond_atom_site_label_2
_ccdc_geom_bond_type
C27   C48   A    
C33   H5    S    
C25   O28   A    
C42   H30   S    
C7    O6    S    
Cu2   O25   S    
C43   H33   S    
C39   H18   S    
C4    O23   A    
C19   C20   A    
C38   O6    S    
C36   H9    S    
C48   S1    S    
C26   C44   A    
C7    C8    A    
O21   S6    D    
C45   C46   A    
Cu2   O12   S    
Cu2   O29   S    
C12   C23   A    
C40   H20   S    
C35   H8    S    
C28   C29   A    
C40   H21   S    
C8    C11   S    
C38   C39   S    
Cu1   O28   S    
H22   O9    S    
C27   C47   A    
C31   O4    S    
C18   C19   A    
C41   C42   S    
C32   H2    S    
O17   S5    D    
C20   C24   S    
C8    C9    A    
C31   H39   S    
C3    O4    S    
C26   C48   A    
O18   S5    D    
O2    S1    D    
O10   S3    D    
C33   H6    S    
H38   O3    S    
H25   O16   S    
C23   C46   A    
C42   H31   S    
C37   H13   S    
O9    S2    S    
C40   H19   S    
Cu2   O27   S    
C43   H35   S    
C6    O5    S    
C38   H16   S    
C34   C44   A    
C47   H23   S    
C10   C14   T    
C16   O27   A    
C41   H28   S    
C3    C5    A    
O8    S2    D    
C35   C36   S    
C2    C4    S    
C29   C30   A    
C3    C9    A    
C16   O26   A    
O22   S6    S    
Cu1   O26   S    
C38   H15   S    
C31   H40   S    
C17   C18   A    
C1    O12   A    
Cu1   O23   S    
C29   O24   S    
O19   S5    S    
C14   C16   S    
C4    O25   A    
C1    C13   S    
C42   C43   S    
C41   O24   S    
C12   C34   A    
H27   O22   S    
C24   N1    T    
C32   H3    S    
C39   C40   S    
C37   H14   S    
C44   C45   A    
O3    S1    S    
C33   H4    S    
C15   C17   A    
C36   C37   S    
C12   C30   A    
C39   H17   S    
C31   C32   S    
O15   S4    D    
C36   H10   S    
C41   H29   S    
C37   H11   S    
C6    C7    A    
C25   C27   S    
O14   S4    D    
C17   C22   S    
O13   S3    S    
C35   H7    S    
Cu1   O1    S    
C32   C33   S    
C21   S2    S    
C26   H12   S    
C5    C10   S    
C9    H37   S    
H24   O13   S    
C11   C13   T    
C5    C6    A    
C45   S5    S    
H26   O19   S    
C30   H34   S    
O11   S3    D    
O20   S6    D    
C19   H1    S    
Cu2   N1    S    
C15   C21   A    
C20   C21   A    
C1    O1    A    
Cu1   Cu2   S    
C15   S3    S    
C2    C23   A    
C43   H32   S    
C22   N2    T    
C2    C28   A    
C34   C47   A    
Cu1   N2    S    
O16   S4    S    
O30   S1    D    
C35   O5    S    
C25   O29   A    
C18   S4    S    
C28   S6    S    
O7    S2    D    
C46   H36   S    
