data_mof_unit_13898.cif
_audit_creation_date              2012-12-10T18:54:19-0500
_audit_creation_method            fapswitch 2.2
_symmetry_space_group_name_H-M    P1
_symmetry_Int_Tables_number       1
_space_group_crystal_system       triclinic
_cell_length_a                    10.937052
_cell_length_b                    9.785177
_cell_length_c                    23.44206
_cell_angle_alpha                 90.00511
_cell_angle_beta                  90.474831
_cell_angle_gamma                 90.004504
_cell_volume                      2508.70629147

loop_
_atom_site_label
_atom_site_type_symbol
_atom_type_description
_atom_site_fract_x
_atom_site_fract_y
_atom_site_fract_z
_atom_type_partial_charge
C1    C     C_R   0.259543 0.498197 0.503361 0.906998
C2    C     C_R   0.740458 0.498202 0.496639 0.906972
C3    C     C_R   0.564707 0.388595 0.239441 0.203903
C4    C     C_R   0.435683 0.388211 0.760554 0.204981
C5    C     C_R   0.575803 0.402614 0.298522 0.068452
C6    C     C_R   0.424472 0.402246 0.701481 0.068238
C7    C     C_R   0.502354 0.499215 0.327010 -0.240173
C8    C     C_R   0.497507 0.499269 0.673004 -0.240501
C9    C     C_R   0.429100 0.592115 0.295650 0.082117
C10   C     C_R   0.570203 0.592682 0.704399 0.082385
C11   C     C_R   0.435482 0.592422 0.235978 0.193250
C12   C     C_R   0.563548 0.593105 0.764063 0.192906
C13   C     C_R   0.498779 0.486893 0.208147 0.110973
C14   C     C_R   0.500895 0.487070 0.791878 0.110469
C15   C     C_R   0.064211 0.360988 0.502954 0.064755
C16   C     C_R   0.940425 0.612818 0.489512 0.069783
C17   C     C_R   0.935776 0.360991 0.497030 0.064877
C18   C     C_R   0.059598 0.612810 0.510513 0.069833
C19   C     C_R   0.873534 0.490014 0.492687 -0.138277
C20   C     C_R   0.126469 0.490006 0.507315 -0.138273
C21   C     C_R   0.483391 0.071921 0.549475 -0.084409
C22   C     C_R   0.516979 0.927902 0.450542 -0.093292
C23   C     C_R   0.516642 0.071909 0.450525 -0.084558
C24   C     C_R   0.483030 0.927919 0.549457 -0.093215
C25   C     C_R   0.500506 0.500018 0.389245 0.963108
C26   C     C_R   0.499463 0.500032 0.610761 0.962979
C27   C     C_R   0.607136 0.449547 0.880865 0.599882
C28   C     C_R   0.392791 0.448344 0.119162 0.599772
C29   C     C_R   0.393620 0.500831 0.880796 0.570416
C30   C     C_R   0.605871 0.501765 0.119221 0.570516
C31   C     C_R   0.387300 0.479636 0.940239 -0.056413
C32   C     C_R   0.612453 0.479957 0.059820 -0.056374
C33   C     C_R   0.499323 0.462893 0.970103 -0.064537
C34   C     C_R   0.500539 0.462807 0.029933 -0.064251
C35   C     C_R   0.609851 0.444719 0.940616 -0.086118
C36   C     C_R   0.390100 0.443927 0.059413 -0.085940
C37   C     C_R   0.275399 0.464948 0.970586 0.042243
C38   C     C_R   0.724453 0.465011 0.029575 0.041420
C39   C     C_R   0.281166 0.422662 0.028151 0.164347
C40   C     C_R   0.718855 0.423475 0.971875 0.165571
H1    H     H_    0.471579 0.125925 0.589133 0.180249
H2    H     H_    0.530035 0.873571 0.410956 0.173026
H3    H     H_    0.528527 0.125909 0.410870 0.180125
H4    H     H_    0.469971 0.873603 0.589042 0.173133
N1    N     N_R   0.501047 0.480520 0.852842 -0.330652
N2    N     N_R   0.498632 0.480345 0.147188 -0.330599
N3    N     N_R   0.500000 0.857200 0.500000 -0.083952
N4    N     N_R   0.500000 0.142800 0.500000 -0.083053
O1    O     O_R   0.316770 0.614620 0.500000 -0.609964
O2    O     O_R   0.683230 0.385380 0.500000 -0.630133
O3    O     O_R   0.683230 0.614620 0.500000 -0.610016
O4    O     O_R   0.316770 0.385380 0.500000 -0.630145
O5    O     O_R   0.499970 0.614690 0.416160 -0.609392
O6    O     O_R   0.500030 0.385310 0.583840 -0.613872
O7    O     O_R   0.500030 0.614690 0.583840 -0.609377
O8    O     O_R   0.499970 0.385310 0.416160 -0.613888
O9    O     O_2   0.709953 0.431248 0.850511 -0.500179
O10   O     O_2   0.290139 0.428745 0.149500 -0.500233
O11   O     O_2   0.294657 0.538952 0.850149 -0.558695
O12   O     O_2   0.704330 0.541834 0.149792 -0.558867
Zn1   Zn    Zn3+2 0.500000 0.653120 0.500000 0.970018
Zn2   Zn    Zn3+2 0.500000 0.346880 0.500000 0.954598
C41   C     C_3   0.150947 0.490342 0.943347 -0.316354
C42   C     C_3   0.124864 0.644084 0.937013 -0.355150
C43   C     C_3   0.010237 0.669087 0.900888 -0.704116
H5    H     H_    0.930002 0.617463 0.920014 0.258792
H6    H     H_    0.991403 0.780453 0.898565 0.258093
H7    H     H_    0.023555 0.629752 0.856927 0.298816
H8    H     H_    0.111466 0.689427 0.979952 0.215486
H9    H     H_    0.202872 0.698704 0.917425 0.273621
H10   H     H_    0.141098 0.433375 0.902659 0.272189
H11   H     H_    0.077511 0.450172 0.970098 0.203405
C44   C     C_3   0.848785 0.488793 0.057206 -0.316262
C45   C     C_3   0.876962 0.642200 0.062915 -0.355055
C46   C     C_3   0.992120 0.666180 0.098789 -0.705330
H12   H     H_    0.071669 0.613449 0.079570 0.258911
H13   H     H_    0.012062 0.777333 0.100886 0.258207
H14   H     H_    0.978825 0.627451 0.142842 0.298932
H15   H     H_    0.890699 0.686342 0.019793 0.215375
H16   H     H_    0.799774 0.698468 0.082396 0.274462
H17   H     H_    0.857109 0.432832 0.098196 0.271267
H18   H     H_    0.922098 0.446245 0.031070 0.204396
I1    I     I_    0.142971 0.288060 0.060955 -0.266467
I2    I     I_    0.857726 0.290379 0.938550 -0.266887
I3    I     I_    0.642616 0.215946 0.196707 -0.210922
I4    I     I_    0.359094 0.214707 0.803205 -0.209455
I5    I     I_    0.715815 0.289931 0.342445 -0.388831
I6    I     I_    0.284679 0.289085 0.657608 -0.388755
I7    I     I_    0.299367 0.722735 0.336894 -0.325179
I8    I     I_    0.699640 0.723874 0.663275 -0.325125
I9    I     I_    0.354118 0.753675 0.186898 -0.219485
I10   I     I_    0.643516 0.755257 0.813142 -0.218949
C47   C     C_3   0.130729 0.221715 0.504832 -0.357466
C48   C     C_3   0.165576 0.175482 0.444128 -0.318918
C49   C     C_3   0.204002 0.026255 0.442930 -0.852171
H19   H     H_    0.269494 0.003980 0.477978 0.269192
H20   H     H_    0.122668 0.960566 0.447769 0.242856
H21   H     H_    0.247436 0.002671 0.401482 0.284386
H22   H     H_    0.086916 0.188919 0.414336 0.226754
H23   H     H_    0.241350 0.238190 0.427115 0.258822
H24   H     H_    0.208573 0.218156 0.535039 0.237421
H25   H     H_    0.076889 0.141360 0.526184 0.188823
C50   C     C_3   0.892623 0.740012 0.458625 -0.429357
C51   C     C_3   0.851932 0.708243 0.397097 -0.323889
C52   C     C_3   0.820964 0.839051 0.364523 -0.780828
H26   H     H_    0.749360 0.897779 0.387137 0.249547
H27   H     H_    0.903720 0.904006 0.360277 0.270843
H28   H     H_    0.786568 0.812813 0.321186 0.272857
H29   H     H_    0.926708 0.654214 0.374473 0.249576
H30   H     H_    0.770164 0.641104 0.396760 0.231635
H31   H     H_    0.818712 0.790506 0.482615 0.234718
H32   H     H_    0.965904 0.817266 0.455261 0.194206
C53   C     C_3   0.869243 0.221718 0.495151 -0.357328
C54   C     C_3   0.834417 0.175511 0.555858 -0.319074
C55   C     C_3   0.796040 0.026268 0.557064 -0.852272
H33   H     H_    0.730542 0.003932 0.522021 0.269203
H34   H     H_    0.877396 0.960623 0.552226 0.242829
H35   H     H_    0.752623 0.002704 0.598515 0.284462
H36   H     H_    0.913074 0.189013 0.585649 0.226725
H37   H     H_    0.758623 0.238187 0.572869 0.258817
H38   H     H_    0.791385 0.218138 0.464953 0.237423
H39   H     H_    0.923070 0.141363 0.473793 0.188817
C56   C     C_3   0.107421 0.739985 0.541424 -0.429266
C57   C     C_3   0.148151 0.708169 0.602939 -0.324141
C58   C     C_3   0.179149 0.838953 0.635539 -0.780893
H40   H     H_    0.250736 0.897711 0.612925 0.249679
H41   H     H_    0.096400 0.903891 0.639815 0.270840
H42   H     H_    0.213582 0.812681 0.678863 0.272693
H43   H     H_    0.073385 0.654115 0.625562 0.249402
H44   H     H_    0.229912 0.641037 0.603251 0.231572
H45   H     H_    0.181317 0.790516 0.517434 0.234732
H46   H     H_    0.034138 0.817221 0.544817 0.194195

loop_
_geom_bond_atom_site_label_1
_geom_bond_atom_site_label_2
_ccdc_geom_bond_type
C38   C40   A    
C47   C48   S    
C56   H46   S    
C3    I3    S    
C8    C26   S    
C44   C45   S    
C40   I2    S    
C49   H19   S    
O3    Zn1   S    
C25   O8    A    
C26   O7    A    
C54   C55   S    
C49   H21   S    
C17   C53   S    
C56   C57   S    
C52   H27   S    
C28   N2    A    
C25   O5    A    
C13   N2    S    
C4    I4    S    
C55   H33   S    
C6    I6    S    
C50   H31   S    
C2    O2    A    
C17   C19   A    
O5    Zn1   S    
C53   H39   S    
C29   O11   S    
C43   H6    S    
C30   O12   S    
C58   H42   S    
C31   C33   A    
C42   H9    S    
C18   C20   A    
C54   H36   S    
C3    C13   A    
C18   C56   S    
C21   N4    A    
C27   N1    A    
C22   N3    A    
C45   H16   S    
C51   H29   S    
C24   N3    A    
C26   O6    A    
C44   H17   S    
C51   C52   S    
C37   C41   S    
C12   I10   S    
C14   N1    S    
C15   C20   A    
C52   H28   S    
O1    Zn1   S    
C45   C46   S    
C43   H7    S    
C4    C6    A    
C27   O9    S    
C47   H24   S    
C5    C7    A    
C6    C8    A    
O6    Zn2   S    
C27   C35   A    
C46   H14   S    
C31   C37   A    
C29   N1    A    
C50   H32   S    
C32   C34   A    
C46   H12   S    
N3    Zn1   S    
C46   H13   S    
C16   C50   S    
N4    Zn2   S    
C48   H23   S    
C29   C31   A    
C55   H35   S    
C33   C34   A    
C57   H44   S    
C42   H8    S    
C9    C11   A    
C10   I8    S    
C10   C12   A    
C21   H1    S    
C16   C18   A    
C12   C14   A    
C32   C38   A    
C45   H15   S    
C58   H40   S    
C24   H4    S    
O8    Zn2   S    
C9    I7    S    
C44   H18   S    
C51   H30   S    
C53   C54   S    
C7    C9    A    
C55   H34   S    
C1    C20   S    
C23   N4    A    
C56   H45   S    
C2    C19   S    
C23   H3    S    
C30   N2    A    
C36   C39   A    
C41   H10   S    
C3    C5    A    
C47   H25   S    
C15   C47   S    
C49   H20   S    
C15   C17   A    
C28   O10   S    
C52   H26   S    
C7    C25   S    
C42   C43   S    
C35   C40   A    
C39   I1    S    
C37   C39   A    
O4    Zn2   S    
C30   C32   A    
C11   C13   A    
C22   H2    S    
C48   H22   S    
C16   C19   A    
O2    Zn2   S    
O7    Zn1   S    
C33   C35   A    
C57   H43   S    
C34   C36   A    
C4    C14   A    
C48   C49   S    
C1    O4    A    
C2    O3    A    
C41   C42   S    
C5    I5    S    
C11   I9    S    
C53   H38   S    
C41   H11   S    
C28   C36   A    
C8    C10   A    
C43   H5    S    
C21   C24   A    
C50   C51   S    
C58   H41   S    
C22   C23   A    
C1    O1    A    
C54   H37   S    
C57   C58   S    
C38   C44   S    
