data_mof_unit_16991.cif
_audit_creation_date              2012-12-11T16:29:29-0500
_audit_creation_method            fapswitch 2.2
_symmetry_space_group_name_H-M    P1
_symmetry_Int_Tables_number       1
_space_group_crystal_system       triclinic
_cell_length_a                    6.950356
_cell_length_b                    17.357643
_cell_length_c                    18.744338
_cell_angle_alpha                 106.23723
_cell_angle_beta                  90.025456
_cell_angle_gamma                 90.728837
_cell_volume                      2170.95582342

loop_
_atom_site_label
_atom_site_type_symbol
_atom_type_description
_atom_site_fract_x
_atom_site_fract_y
_atom_site_fract_z
_atom_type_partial_charge
O1    O     O_R   0.494360 0.415680 0.413760 -0.531743
O2    O     O_R   0.818810 0.432910 0.557230 -0.531517
O3    O     O_R   0.994290 0.584320 0.586240 -0.533667
C1    C     C_R   0.650129 0.416516 0.581097 0.749171
O4    O     O_R   0.823740 0.406440 0.412520 -0.530951
O5    O     O_R   0.999250 0.557660 0.440500 -0.517294
C2    C     C_R   0.652681 0.381883 0.385902 0.838709
O6    O     O_R   0.489400 0.442340 0.559500 -0.519233
O7    O     O_3   0.662500 0.549650 0.509350 -0.358142
V1    V     V_3+5 0.935340 0.490790 0.498270 1.413641
O8    O     O_R   0.329270 0.567090 0.442770 -0.527487
C3    C     C_R   0.160989 0.584270 0.419579 0.702416
O9    O     O_R   0.324340 0.593560 0.587480 -0.536311
C4    C     C_R   0.155975 0.616418 0.615141 0.695214
V2    V     V_3+5 0.435970 0.509210 0.501730 1.413897
O10   O     O_3   0.158940 0.450350 0.490650 -0.365611
H1    H     H_    0.834189 0.844308 0.561502 0.114227
C5    C     C_R   0.314249 0.606383 0.755448 -0.142796
C6    C     C_R   0.389132 0.599028 0.822129 -0.122153
C7    C     C_R   0.374654 0.661980 0.886584 -0.122300
C8    C     C_R   0.285452 0.732839 0.884853 -0.131993
C9    C     C_R   0.210584 0.742743 0.817731 0.071416
C10   C     C_R   0.225012 0.678023 0.751577 0.068797
C11   C     C_R   0.118551 0.814846 0.816210 -0.187304
C12   C     C_R   0.040410 0.821926 0.748367 0.068702
C13   C     C_R   0.054854 0.757209 0.682214 0.070295
C14   C     C_R   0.146846 0.685102 0.683741 -0.189224
C15   C     C_R   0.951187 0.893566 0.744488 -0.141670
C16   C     C_R   0.876363 0.900927 0.677799 -0.123075
C17   C     C_R   0.890873 0.837979 0.613344 -0.121602
C18   C     C_R   0.980042 0.767117 0.615084 -0.130383
H2    H     H_    0.326082 0.554913 0.707378 0.108099
H3    H     H_    0.457252 0.543837 0.823891 0.116919
H4    H     H_    0.431389 0.655656 0.938420 0.112970
H5    H     H_    0.274312 0.779154 0.936963 0.102215
H6    H     H_    0.939332 0.945032 0.792558 0.109950
H7    H     H_    0.808268 0.956120 0.676030 0.116637
H8    H     H_    0.991212 0.720805 0.562975 0.106584
C19   C     C_1   0.111561 0.863791 0.132522 -0.224978
C20   C     C_1   0.118875 0.821270 0.176135 -0.013495
C21   C     C_1   0.128125 0.771134 0.228099 -0.012249
C22   C     C_1   0.136039 0.728904 0.271965 -0.010303
C23   C     C_1   0.145348 0.678783 0.323940 -0.006161
C24   C     C_1   0.152881 0.636298 0.367576 -0.242910
C25   C     C_1   0.642317 0.365294 0.633754 -0.224566
C26   C     C_1   0.638306 0.322855 0.677466 -0.019032
C27   C     C_1   0.634738 0.272433 0.729194 -0.005651
C28   C     C_1   0.631976 0.229843 0.772788 -0.006461
C29   C     C_1   0.628275 0.179247 0.824375 -0.006211
C30   C     C_1   0.623850 0.136362 0.867694 -0.216865
H9    H     H_    0.513979 0.126393 0.445386 0.142305
C31   C     C_R   0.722632 0.405312 0.235573 0.256951
C32   C     C_R   0.755410 0.414011 0.164384 -0.163124
C33   C     C_R   0.733472 0.349753 0.101789 -0.162522
C34   C     C_R   0.685203 0.274677 0.108900 -0.141468
C35   C     C_R   0.659585 0.261637 0.179557 0.019310
C36   C     C_R   0.673687 0.328005 0.244987 0.038949
C37   C     C_R   0.628375 0.182697 0.184887 -0.148757
C38   C     C_R   0.617717 0.168483 0.255758 -0.037617
C39   C     C_R   0.590484 0.234836 0.319835 -0.074358
C40   C     C_R   0.635417 0.314568 0.315926 -0.183513
C41   C     C_R   0.632505 0.089669 0.264675 0.442342
C42   C     C_R   0.610449 0.078820 0.335568 -0.249735
C43   C     C_R   0.548123 0.140769 0.394315 -0.201176
C44   C     C_R   0.522931 0.218081 0.386179 0.267322
H10   H     H_    0.796143 0.471967 0.157552 0.122656
H11   H     H_    0.756125 0.357974 0.047226 0.129885
H12   H     H_    0.672741 0.226531 0.057955 0.093861
H13   H     H_    0.633680 0.020901 0.344924 0.137698
O11   O     O_R   0.775690 0.057750 0.940570 -0.528129
O12   O     O_R   0.441200 0.093570 0.087490 -0.542586
O13   O     O_R   0.265840 0.942320 0.059480 -0.535999
C45   C     C_R   0.611295 0.115122 0.115887 0.796662
O14   O     O_R   0.446270 0.067110 0.942790 -0.526303
O15   O     O_R   0.270950 0.915660 0.913750 -0.534001
C46   C     C_R   0.615204 0.084123 0.919451 0.700328
O16   O     O_R   0.770580 0.084400 0.086300 -0.515071
O17   O     O_3   0.602640 0.950400 0.990690 -0.364890
V3    V     V_3+5 0.329740 0.009200 0.001730 1.417311
O18   O     O_R   0.940900 0.906360 0.912450 -0.538949
C47   C     C_R   0.109315 0.883523 0.884822 0.688401
O19   O     O_R   0.935830 0.932820 0.057160 -0.510811
C48   C     C_R   0.103967 0.915836 0.080528 0.733290
V4    V     V_3+5 0.829130 0.990680 0.998180 1.447703
O20   O     O_3   0.106100 0.049590 0.009310 -0.359650
N1    N     N_2   0.745342 0.475024 0.296486 -0.530427
H14   H     H_    0.880130 0.500915 0.297891 0.249405
C49   C     C_3   0.595070 0.533346 0.302661 -0.493970
H15   H     H_    0.615825 0.582389 0.354782 0.206809
H16   H     H_    0.451813 0.504612 0.303789 0.192811
H17   H     H_    0.600405 0.559955 0.255228 0.170968
O21   O     O_3   0.697074 0.026585 0.206608 -0.561198
C50   C     C_3   0.579156 0.957556 0.197386 -0.216496
H18   H     H_    0.423885 0.972305 0.206350 0.121576
H19   H     H_    0.627609 0.921768 0.234575 0.131339
H20   H     H_    0.594494 0.919211 0.139505 0.170442
N2    N     N_2   0.405041 0.274653 0.437461 -0.508682
H21   H     H_    0.303655 0.299383 0.410556 0.272646
C51   C     C_3   0.322932 0.254453 0.501112 -0.539117
H22   H     H_    0.243593 0.306714 0.535794 0.208300
H23   H     H_    0.437966 0.239722 0.535964 0.196131
H24   H     H_    0.220002 0.203193 0.482555 0.186620

loop_
_geom_bond_atom_site_label_1
_geom_bond_atom_site_label_2
_ccdc_geom_bond_type
C34   C35   A    
C50   H18   S    
C21   C22   T    
C6    C7    A    
C1    O6    A    
O12   V3    S    
C34   H12   S    
C32   C33   A    
C12   C15   A    
C13   C14   A    
C41   C42   A    
O14   C46   A    
C15   C16   A    
O13   V3    S    
O5    C3    A    
C17   C18   A    
N1    C49   S    
V2    O10   S    
C35   C36   A    
C5    C6    A    
C2    C40   S    
C33   C34   A    
O8    V2    S    
C27   C28   T    
C41   O21   S    
O1    V2    S    
C10   C14   A    
C4    C14   S    
O11   V4    S    
O7    V1    S    
O18   V4    S    
C7    H4    S    
C49   H15   S    
C38   C39   A    
C50   H19   S    
O1    C2    A    
C8    C9    A    
H1    C17   S    
N2    C51   S    
N2    H21   S    
C1    C25   S    
C5    C10   A    
C42   H13   S    
C11   C12   A    
C6    H3    S    
C19   C20   T    
O4    C2    A    
O17   V3    S    
O15   C47   A    
C33   H11   S    
O16   V4    S    
C37   C38   A    
C25   C26   T    
C39   C40   A    
O2    C1    A    
C11   C47   S    
C16   C17   A    
C30   C46   S    
C51   H22   S    
C49   H17   S    
V4    O20   S    
C32   H10   S    
O3    C4    A    
C20   C21   S    
C51   H23   S    
C49   H16   S    
C39   C44   A    
O19   C48   A    
O6    V2    S    
O19   V4    S    
O14   V3    S    
O9    V2    S    
C23   C24   T    
O11   C46   A    
C9    C11   A    
C5    H2    S    
C22   C23   S    
O2    V1    S    
V3    O20   S    
C31   C32   A    
O12   C45   A    
C26   C27   S    
C28   C29   S    
C38   C41   A    
N1    H14   S    
H9    C43   S    
O18   C47   A    
O5    V1    S    
O8    C3    A    
C36   C40   A    
C8    H5    S    
C50   H20   S    
C18   H8    S    
C43   C44   A    
C31   N1    S    
C12   C13   A    
C19   C48   S    
O4    V1    S    
C3    C24   S    
O3    V1    S    
V1    O10   S    
O21   C50   S    
C35   C37   A    
O7    V2    S    
O13   C48   A    
C31   C36   A    
C44   N2    S    
C42   C43   A    
O17   V4    S    
C13   C18   A    
C51   H24   S    
C7    C8    A    
C15   H6    S    
C29   C30   T    
C16   H7    S    
C45   O16   A    
C9    C10   A    
O9    C4    A    
O15   V3    S    
C37   C45   S    
