data_mof_unit_7428.cif
_audit_creation_date              2013-03-05T15:52:07-0500
_audit_creation_method            fapswitch 2.2
_symmetry_space_group_name_H-M    P1
_symmetry_Int_Tables_number       1
_space_group_crystal_system       triclinic
_cell_length_a                    6.960609
_cell_length_b                    19.605465
_cell_length_c                    23.358256
_cell_angle_alpha                 96.020209
_cell_angle_beta                  91.226921
_cell_angle_gamma                 88.612325
_cell_volume                      3168.52671978

loop_
_atom_site_label
_atom_site_type_symbol
_atom_site_description
_atom_site_fract_x
_atom_site_fract_y
_atom_site_fract_z
_atom_type_partial_charge
O1    O     O_R   0.617180 0.809390 0.808140 -0.575659
O2    O     O_R   0.382820 0.190610 0.191860 -0.575658
O3    O     O_R   0.293300 0.672410 0.795490 -0.579517
O4    O     O_R   0.706700 0.327590 0.204510 -0.579518
O5    O     O_R   0.117220 0.690610 0.691850 -0.556646
O6    O     O_R   0.882780 0.309390 0.308150 -0.556644
C1    C     C_R   0.464970 0.647784 0.805307 1.036742
C2    C     C_R   0.535030 0.352216 0.194693 1.036746
O7    O     O_R   0.287840 0.807750 0.814460 -0.579056
O8    O     O_R   0.712160 0.192250 0.185540 -0.579056
O9    O     O_R   0.111720 0.826910 0.710960 -0.590235
O10   O     O_R   0.888280 0.173090 0.289040 -0.590234
C3    C     C_R   0.456505 0.830742 0.833177 0.939409
C4    C     C_R   0.543495 0.169258 0.166823 0.939408
O11   O     O_R   0.622680 0.673080 0.789040 -0.582701
O12   O     O_R   0.377320 0.326920 0.210960 -0.582702
O13   O     O_3   0.448820 0.756130 0.716020 -0.259215
O14   O     O_3   0.551180 0.243870 0.283980 -0.259214
V1    V     V_3+5 0.176220 0.748860 0.756300 1.183593
V2    V     V_3+5 0.823780 0.251140 0.243700 1.183593
O15   O     O_R   0.781670 0.827580 0.704500 -0.592669
O16   O     O_R   0.218330 0.172420 0.295500 -0.592670
C5    C     C_R   0.947693 0.851916 0.694256 0.909560
C6    C     C_R   0.052306 0.148084 0.305744 0.909561
O17   O     O_R   0.787130 0.692240 0.685530 -0.556084
O18   O     O_R   0.212870 0.307760 0.314470 -0.556084
C7    C     C_R   0.956078 0.669188 0.666828 0.978455
C8    C     C_R   0.043922 0.330812 0.333172 0.978453
V3    V     V_3+5 0.675510 0.751130 0.743690 1.191789
V4    V     V_3+5 0.324490 0.248870 0.256310 1.191789
O19   O     O_3   0.952780 0.743870 0.783980 -0.271108
O20   O     O_3   0.047220 0.256130 0.216020 -0.271108
C9    C     C_1   0.966568 0.617095 0.614794 -0.250776
C10   C     C_1   0.033432 0.382905 0.385206 -0.250778
C11   C     C_1   0.978138 0.573588 0.571974 0.108775
C12   C     C_1   0.021862 0.426412 0.428026 0.108775
C13   C     C_1   0.993403 0.521833 0.521334 0.026905
C14   C     C_1   0.006597 0.478166 0.478666 0.026906
C15   C     C_R   0.945796 0.914066 0.663650 -0.096548
C16   C     C_R   0.054204 0.085934 0.336350 -0.096548
C17   C     C_R   0.859246 0.034177 0.663210 -0.171996
C18   C     C_R   0.140754 0.965823 0.336789 -0.171996
C19   C     C_R   0.877763 0.975784 0.692110 -0.160243
C20   C     C_R   0.122237 0.024216 0.307890 -0.160243
C21   C     C_R   0.994838 0.911023 0.605279 -0.246098
C22   C     C_R   0.005162 0.088977 0.394721 -0.246098
C23   C     C_R   0.973326 0.969803 0.574230 0.111252
C24   C     C_R   0.026674 0.030197 0.425770 0.111252
C25   C     C_R   0.904656 0.031699 0.604782 0.178040
C26   C     C_R   0.095344 0.968301 0.395218 0.178040
C27   C     C_R   0.014282 0.969310 0.514087 0.059208
C28   C     C_R   0.985718 0.030690 0.485913 0.059208
C29   C     C_R   0.917878 0.090506 0.518865 -0.192890
C30   C     C_R   0.082122 0.909494 0.481135 -0.192890
C31   C     C_R   0.878871 0.090816 0.576902 -0.227830
C32   C     C_R   0.121129 0.909184 0.423098 -0.227830
H1    H     H_    0.826328 0.138085 0.600239 0.142153
H2    H     H_    0.173672 0.861915 0.399761 0.142153
H3    H     H_    0.956398 0.138182 0.414687 0.103637
H4    H     H_    0.043602 0.861818 0.585313 0.103637
H5    H     H_    0.162689 0.021415 0.263148 0.112044
H6    H     H_    0.837311 0.978585 0.736851 0.112044
H7    H     H_    0.806003 0.081360 0.686477 0.122953
H8    H     H_    0.193997 0.918640 0.313523 0.122953
H9    H     H_    0.892436 0.138432 0.501054 0.135324
H10   H     H_    0.107564 0.861568 0.498946 0.135324
C33   C     C_R   0.485107 0.584275 0.834145 -0.279927
C34   C     C_R   0.514894 0.415724 0.165855 -0.279927
C35   C     C_R   0.600641 0.466640 0.833972 -0.279234
C36   C     C_R   0.399365 0.533361 0.166029 -0.279233
C37   C     C_R   0.557875 0.523345 0.803861 0.362617
C38   C     C_R   0.442130 0.476656 0.196139 0.362613
C39   C     C_R   0.453609 0.586706 0.893687 -0.291463
C40   C     C_R   0.546389 0.413294 0.106312 -0.291463
C41   C     C_R   0.497781 0.529370 0.924802 0.131756
C42   C     C_R   0.502219 0.470630 0.075198 0.131757
C43   C     C_R   0.572788 0.469209 0.893424 0.126380
C44   C     C_R   0.427215 0.530792 0.106576 0.126379
C45   C     C_R   0.473865 0.529858 0.985875 0.068234
C46   C     C_R   0.526134 0.470142 0.014124 0.068234
C47   C     C_R   0.600193 0.411980 0.980329 -0.204538
C48   C     C_R   0.399808 0.588020 0.019671 -0.204537
C49   C     C_R   0.622021 0.411650 0.921408 -0.193245
C50   C     C_R   0.377982 0.588350 0.078592 -0.193245
H11   H     H_    0.679865 0.365628 0.897430 0.136117
H12   H     H_    0.320140 0.634372 0.102570 0.136117
H13   H     H_    0.598765 0.365046 0.085422 0.120727
H14   H     H_    0.401229 0.634954 0.914577 0.120728
H15   H     H_    0.656512 0.419851 0.810691 0.169578
H16   H     H_    0.343497 0.580151 0.189309 0.169580
H17   H     H_    0.643906 0.365435 0.998089 0.131158
H18   H     H_    0.356096 0.634565 0.001911 0.131158
C51   C     C_1   0.467217 0.882810 0.885236 -0.321174
C52   C     C_1   0.532783 0.117190 0.114764 -0.321174
C53   C     C_1   0.478652 0.926329 0.928060 0.056729
C54   C     C_1   0.521348 0.073671 0.071940 0.056729
C55   C     C_1   0.493569 0.978138 0.978678 -0.008825
C56   C     C_1   0.506431 0.021862 0.021322 -0.008825
N1    N     N_R   0.410067 0.481821 0.257234 0.228801
O21   O     O_R   0.522220 0.449300 0.291022 -0.407995
O22   O     O_R   0.279757 0.524311 0.280160 -0.396267
N2    N     N_R   0.589943 0.518180 0.742767 0.228801
O23   O     O_R   0.477785 0.550698 0.708978 -0.407994
O24   O     O_R   0.720268 0.475696 0.719842 -0.396267

loop_
_geom_bond_atom_site_label_1
_geom_bond_atom_site_label_2
_geom_bond_distance
_ccdc_geom_bond_type
C21   H4    1.076981 S    
C22   H3    1.076981 S    
C36   C44   1.401786 A    
C39   C41   1.425263 A    
C35   C43   1.401786 A    
O4    C2    1.302715 A    
V1    O19   1.705931 S    
C55   C56   1.247316 T    
C23   C25   1.419576 A    
C7    C9    1.505145 S    
C16   C22   1.407469 A    
O9    V1    1.987712 S    
C30   H10   1.076140 S    
C40   C42   1.425261 A    
C11   C13   1.479324 S    
C42   C44   1.416411 A    
O3    C1    1.302716 A    
C9    C11   1.247249 T    
C43   C49   1.394468 A    
C34   C40   1.408317 A    
C48   H18   1.076077 S    
C21   C23   1.427851 A    
C35   C37   1.399372 A    
O7    C3    1.317169 A    
C6    C16   1.475628 S    
O5    C7    1.311236 A    
O7    V1    1.857814 S    
O6    C8    1.311238 A    
O8    V2    1.857813 S    
C54   C56   1.479332 S    
O3    V1    1.986283 S    
C33   C39   1.408318 A    
C40   H13   1.076987 S    
C29   H9    1.076140 S    
O14   V2    2.150253 S    
C15   C21   1.407469 A    
C24   C26   1.419576 A    
C8    C10   1.505145 S    
C51   C53   1.247287 T    
C17   C19   1.390724 A    
C36   H16   1.084241 S    
C18   C20   1.390724 A    
C35   H15   1.084240 S    
C17   C25   1.403113 A    
C47   C49   1.387211 A    
O11   V3    1.995696 S    
C22   C24   1.427851 A    
C29   C31   1.387614 A    
O17   V3    1.858756 S    
C30   C32   1.387614 A    
C27   C28   1.438646 A    
O8    C4    1.317171 A    
C15   C19   1.395450 A    
C1    O11   1.295822 A    
C25   C31   1.393880 A    
O15   V3    2.000232 S    
C26   C32   1.393880 A    
C3    C51   1.505248 S    
O4    V2    1.986283 S    
C52   C54   1.247287 T    
C39   H14   1.076986 S    
C13   C14   1.247325 T    
N1    O21   1.301497 A    
C16   C20   1.395450 A    
C34   C38   1.411638 A    
O10   V2    1.987713 S    
O1    V3    1.838171 S    
N2    O24   1.301562 A    
C41   C43   1.416411 A    
C18   C26   1.403114 A    
O14   V4    1.696831 S    
C49   H11   1.084421 S    
C37   N2    1.441804 S    
C2    C34   1.478898 S    
C48   C50   1.387211 A    
C31   H1    1.084389 S    
O16   C6    1.297254 A    
O1    C3    1.312268 A    
C17   H7    1.083978 S    
O12   V4    1.995697 S    
C12   C14   1.479324 S    
C18   H8    1.083978 S    
C28   C29   1.410708 A    
V2    O20   1.705931 S    
O16   V4    2.000234 S    
N1    O22   1.301566 A    
C42   C46   1.438793 A    
C50   H12   1.084420 S    
C46   C47   1.410426 A    
C45   C48   1.410428 A    
C23   C27   1.438428 A    
C53   C55   1.479332 S    
O18   V4    1.858757 S    
O5    V1    1.837069 S    
C20   H5    1.083657 S    
O17   C7    1.316385 A    
O6    V2    1.837066 S    
O10   C6    1.300027 A    
O18   C8    1.316384 A    
O2    V4    1.838170 S    
C27   C30   1.410708 A    
O15   C5    1.297256 A    
V3    O19   2.137223 S    
O13   V3    1.696831 S    
V4    O20   2.137224 S    
C5    C15   1.475628 S    
O9    C5    1.300027 A    
O13   V1    2.150254 S    
C10   C12   1.247249 T    
C32   H2    1.084389 S    
C33   C37   1.411636 A    
N2    O23   1.301496 A    
O2    C4    1.312269 A    
C1    C33   1.478899 S    
C45   C46   1.438603 A    
C47   H17   1.076077 S    
C44   C50   1.394468 A    
C24   C28   1.438428 A    
C2    O12   1.295822 A    
C36   C38   1.399374 A    
C41   C45   1.438790 A    
C4    C52   1.505248 S    
C19   H6    1.083657 S    
C38   N1    1.441806 S    
