data_mof_unit_67974.cif
_audit_creation_date              2013-03-05T16:49:25-0500
_audit_creation_method            fapswitch 2.2
_symmetry_space_group_name_H-M    P1
_symmetry_Int_Tables_number       1
_space_group_crystal_system       triclinic
_cell_length_a                    11.177644
_cell_length_b                    9.094176
_cell_length_c                    8.427787
_cell_angle_alpha                 91.304398
_cell_angle_beta                  91.377733
_cell_angle_gamma                 92.533992
_cell_volume                      855.368212015

loop_
_atom_site_label
_atom_site_type_symbol
_atom_site_description
_atom_site_fract_x
_atom_site_fract_y
_atom_site_fract_z
_atom_type_partial_charge
O1    O     O_R   0.499990 0.285340 0.636850 -0.591086
O2    O     O_R   0.500010 0.714660 0.363150 -0.551406
O3    O     O_R   0.500010 0.285350 0.363100 -0.611263
O4    O     O_R   0.499990 0.714650 0.636900 -0.543760
C1    C     C_R   0.499641 0.218969 0.498824 0.932500
C2    C     C_R   0.500262 0.781023 0.501129 0.952653
O5    O     O_R   0.316750 0.500000 0.636870 -0.622915
O6    O     O_R   0.683250 0.500000 0.363130 -0.633994
O7    O     O_R   0.316770 0.500020 0.363120 -0.633651
O8    O     O_R   0.683230 0.499980 0.636880 -0.636868
C3    C     C_R   0.259505 0.493892 0.498918 0.924469
C4    C     C_R   0.739521 0.500141 0.501743 0.920195
Zn1   Zn    Zn3+2 0.499990 0.499990 0.682780 1.094832
Zn2   Zn    Zn3+2 0.500010 0.500010 0.317220 1.088216
H1    H     H_    0.311502 0.426381 0.874928 0.244532
H2    H     H_    0.673964 0.372878 0.138943 0.249092
C5    C     C_R   0.247817 0.598795 0.026019 0.180732
C6    C     C_R   0.754674 0.273327 0.949128 0.184564
C7    C     C_R   0.174776 0.622410 0.154907 0.230715
C8    C     C_R   0.825033 0.291588 0.815280 0.241964
C9    C     C_R   0.105367 0.500755 0.209153 -0.123556
C10   C     C_R   0.879228 0.432700 0.788556 -0.109101
C11   C     C_R   0.104243 0.359473 0.134045 -0.022486
C12   C     C_R   0.847893 0.558599 0.878461 0.007606
C13   C     C_R   0.185165 0.338142 0.014771 0.285073
C14   C     C_R   0.770557 0.539761 0.004710 0.263292
C15   C     C_R   0.252918 0.455925 0.963280 -0.379833
C16   C     C_R   0.732669 0.395326 0.044295 -0.422193
C17   C     C_R   0.932324 0.517285 0.366906 -0.211227
C18   C     C_R   0.063592 0.454989 0.636315 -0.251987
H3    H     H_    0.884663 0.527383 0.258030 0.195857
H4    H     H_    0.111003 0.426639 0.740552 0.191962
C19   C     C_R   0.871822 0.494569 0.504800 -0.057615
C20   C     C_R   0.125144 0.487636 0.498835 -0.050831
C21   C     C_R   0.938955 0.457792 0.639986 0.097818
C22   C     C_R   0.054917 0.510480 0.362367 0.124806
C23   C     C_1   0.499758 0.065081 0.498329 0.004462
C24   C     C_1   0.499997 0.934893 0.501475 0.003381
N1    N     N_1   0.500020 0.500030 0.073640 -0.014653
N2    N     N_1   0.499980 0.499970 0.926360 -0.011386
N3    N     N_R   0.321968 0.715683 0.964626 0.242621
O9    O     O_R   0.314893 0.745507 0.815023 -0.361168
O10   O     O_R   0.395209 0.794552 0.057791 -0.225022
N4    N     N_R   0.693274 0.135561 0.981413 0.258549
O11   O     O_R   0.691190 0.088708 0.126070 -0.347634
O12   O     O_R   0.618385 0.075122 0.876026 -0.266757
N5    N     N_R   0.176843 0.764958 0.234865 0.203220
O13   O     O_R   0.179357 0.778553 0.388904 -0.433572
O14   O     O_R   0.185151 0.883837 0.153166 -0.372520
N6    N     N_R   0.828783 0.174032 0.697791 0.210970
O15   O     O_R   0.799665 0.197846 0.550869 -0.451911
O16   O     O_R   0.830749 0.038269 0.740939 -0.425672
C25   C     C_3   0.013815 0.235939 0.171467 -0.411503
C26   C     C_3   0.048857 0.145820 0.315051 -0.314955
C27   C     C_3   0.965440 0.008665 0.324002 -0.535565
H5    H     H_    0.871105 0.039409 0.333473 0.303728
H6    H     H_    0.971532 0.938604 0.215672 0.269481
H7    H     H_    0.989563 0.943914 0.428599 0.251170
H8    H     H_    0.143147 0.113805 0.307110 0.284781
H9    H     H_    0.040756 0.211286 0.426140 0.239952
H10   H     H_    0.924909 0.280183 0.191060 0.216467
H11   H     H_    0.000248 0.161625 0.066049 0.214209
C28   C     C_3   0.883445 0.713575 0.825731 -0.309454
C29   C     C_3   0.010371 0.753839 0.881323 -0.465665
C30   C     C_3   0.058119 0.897008 0.813853 -0.494314
H12   H     H_    0.045193 0.897182 0.683251 0.255113
H13   H     H_    0.014759 0.990491 0.870528 0.262049
H14   H     H_    0.154741 0.910811 0.841708 0.324923
H15   H     H_    0.009531 0.764135 0.011882 0.252773
H16   H     H_    0.069913 0.666683 0.845242 0.243032
H17   H     H_    0.873731 0.723793 0.695423 0.209732
H18   H     H_    0.825326 0.797498 0.874671 0.293039
N7    N     N_R   0.207320 0.196345 0.948837 0.187592
O17   O     O_R   0.281913 0.117063 0.026041 -0.277857
O18   O     O_R   0.197763 0.177594 0.795435 -0.457284
N8    N     N_R   0.723906 0.666822 0.083885 0.214103
O19   O     O_R   0.642455 0.739513 0.010668 -0.292485
O20   O     O_R   0.788227 0.737744 0.193620 -0.433079

loop_
_geom_bond_atom_site_label_1
_geom_bond_atom_site_label_2
_geom_bond_distance
_ccdc_geom_bond_type
H2    C16   1.062672 S    
C27   H5    1.107019 S    
C1    C23   1.399453 S    
N3    O10   1.301025 A    
N3    O9    1.296986 A    
N5    O14   1.295997 A    
C9    C22   1.423867 S    
C26   H9    1.105735 S    
C25   C26   1.529758 S    
O5    C3    1.312387 A    
C10   C21   1.450963 S    
C17   C22   1.375830 A    
C18   C21   1.395585 A    
O1    C1    1.298111 A    
C7    C9    1.413904 A    
N8    O20   1.299250 A    
C7    N5    1.446378 S    
C17   C19   1.373670 A    
C6    C8    1.399363 A    
N7    O17   1.298776 A    
O4    Zn1   1.998697 S    
Zn1   N2    2.052847 S    
C8    N6    1.443222 S    
C5    C7    1.392884 A    
Zn2   N1    2.052847 S    
C25   H10   1.103155 S    
C30   H13   1.102216 S    
N6    O16   1.295967 A    
C2    C24   1.399393 S    
C29   H16   1.099566 S    
C13   N7    1.426613 S    
N7    O18   1.301400 A    
O2    C2    1.297774 A    
N4    O12   1.301160 A    
C11   C25   1.521278 S    
C26   H8    1.108913 S    
C18   C20   1.392805 A    
C5    C15   1.395592 A    
C6    C16   1.388462 A    
N8    O19   1.300556 A    
O4    C2    1.305798 A    
N1    N2    1.241221 T    
O7    Zn2   2.093525 S    
C23   C24   1.184971 T    
C6    N4    1.436388 S    
C25   H11   1.107330 S    
H1    C15   1.041799 S    
N5    O13   1.300785 A    
O6    C4    1.313332 A    
C30   H14   1.100790 S    
N6    O15   1.298111 A    
C29   H15   1.102476 S    
O7    C3    1.325750 A    
O3    Zn2   1.998696 S    
O8    C4    1.314329 A    
C8    C10   1.419688 A    
C12   C28   1.526178 S    
C27   H6    1.106555 S    
C10   C12   1.420006 A    
O1    Zn1   1.981411 S    
C14   N8    1.444747 S    
N4    O11   1.300968 A    
C26   C27   1.528295 S    
O6    Zn2   2.075260 S    
C3    C20   1.500384 S    
C12   C14   1.395751 A    
C28   H17   1.107379 S    
O3    C1    1.305489 A    
O8    Zn1   2.093525 S    
C13   C15   1.369097 A    
C14   C16   1.411920 A    
C29   C30   1.513359 S    
C9    C11   1.418735 A    
C17   H3    1.057769 S    
C18   H4    1.057855 S    
C19   C21   1.404075 A    
C20   C22   1.401436 A    
C11   C13   1.384417 A    
O2    Zn2   1.981413 S    
C5    N3    1.432617 S    
C28   C29   1.510190 S    
O5    Zn1   2.075260 S    
C28   H18   1.103189 S    
C30   H12   1.106725 S    
C27   H7    1.105796 S    
C4    C19   1.481536 S    
