data_mof_unit_39562.cif
_audit_creation_date              2012-12-10T18:09:45-0500
_audit_creation_method            fapswitch 2.2
_symmetry_space_group_name_H-M    P1
_symmetry_Int_Tables_number       1
_space_group_crystal_system       triclinic
_cell_length_a                    10.817897
_cell_length_b                    12.811821
_cell_length_c                    13.326864
_cell_angle_alpha                 82.750516
_cell_angle_beta                  95.179906
_cell_angle_gamma                 102.351788
_cell_volume                      1786.06317025

loop_
_atom_site_label
_atom_site_type_symbol
_atom_type_description
_atom_site_fract_x
_atom_site_fract_y
_atom_site_fract_z
_atom_type_partial_charge
C1    C     C_R   0.494209 0.440354 0.691107 0.950628
C2    C     C_3   0.121889 0.490258 0.512602 -0.019208
C3    C     C_3   0.068452 0.518500 0.402636 -0.508518
C4    C     C_3   0.102905 0.577995 0.578935 -0.261789
C5    C     C_R   0.629199 0.720814 0.064230 -0.089048
C6    C     C_R   0.535148 0.596781 0.202810 -0.048210
C7    C     C_R   0.444493 0.296682 0.834631 -0.168129
C8    C     C_R   0.418254 0.267368 0.935701 -0.123948
C9    C     C_R   0.442922 0.344533 0.003708 -0.174248
C10   C     C_R   0.505381 0.451289 0.973119 0.094655
C11   C     C_R   0.544788 0.476362 0.873039 0.083035
C12   C     C_R   0.741869 0.499971 0.503546 0.878319
C13   C     C_R   0.534114 0.533841 0.038465 0.086472
C14   C     C_R   0.613312 0.633138 0.006787 0.053549
C15   C     C_R   0.683957 0.639862 0.922662 -0.077675
C16   C     C_R   0.641006 0.567506 0.851123 -0.243293
C17   C     C_R   0.490594 0.519923 0.135281 -0.237227
C18   C     C_R   0.600696 0.701716 0.166467 -0.048067
C19   C     C_R   0.497546 0.403723 0.800753 -0.067421
C20   C     C_R   0.406155 0.118007 0.307281 -0.258415
C21   C     C_R   0.650431 0.795807 0.634972 0.049476
C22   C     C_R   0.690001 0.898604 0.664783 -0.161225
C23   C     C_R   0.515983 0.560177 0.309835 0.922593
C24   C     C_R   0.627756 0.980333 0.621168 -0.065669
C25   C     C_R   0.544755 0.964854 0.532746 -0.065254
C26   C     C_R   0.520490 0.860761 0.497116 0.154473
C27   C     C_R   0.491937 0.049103 0.473319 0.010854
C28   C     C_R   0.452847 0.037573 0.370420 0.141361
C29   C     C_R   0.449882 0.942232 0.332250 -0.261127
C30   C     C_R   0.460249 0.850966 0.397854 -0.009983
C31   C     C_R   0.475368 0.144437 0.509290 0.015800
C32   C     C_R   0.397223 0.210361 0.346288 0.031357
C33   C     C_R   0.258918 0.496057 0.506078 0.881390
C34   C     C_3   0.902662 0.384575 0.563034 -0.248730
C35   C     C_3   0.041882 0.375137 0.547444 -0.240784
C36   C     C_3   0.923441 0.508451 0.399342 -0.221433
C37   C     C_3   0.963202 0.590402 0.567752 -0.274857
C38   C     C_3   0.879322 0.497434 0.510657 -0.134784
H1    H     H_    0.426704 0.446997 0.161794 0.142494
H2    H     H_    0.374447 0.185129 0.960736 0.165475
H3    H     H_    0.691328 0.575580 0.783473 0.185619
H4    H     H_    0.365889 0.274697 0.297094 0.128867
H5    H     H_    0.493456 0.159154 0.587314 0.146977
H6    H     H_    0.690975 0.730675 0.672804 0.174976
H7    H     H_    0.090603 0.464631 0.350307 0.168192
N1    N     N_R   0.433240 0.222190 0.444680 -0.120347
N2    N     N_R   0.566070 0.776970 0.554790 -0.136641
O1    O     O_R   0.468120 0.366740 0.627160 -0.588937
O2    O     O_R   0.510770 0.544830 0.662520 -0.624040
O3    O     O_R   0.663880 0.410950 0.482330 -0.594916
O4    O     O_R   0.706530 0.589040 0.517700 -0.608602
O5    O     O_R   0.489230 0.455170 0.337480 -0.644575
O6    O     O_R   0.531880 0.633260 0.372840 -0.592589
O7    O     O_R   0.293470 0.410960 0.482300 -0.627702
O8    O     O_R   0.336120 0.589050 0.517670 -0.607782
Zn1   Zn    Zn3+2 0.471520 0.381090 0.476390 0.990774
Zn2   Zn    Zn3+2 0.528480 0.618910 0.523610 1.032086
H8    H     H_    0.842149 0.322572 0.518752 0.186876
H9    H     H_    0.152462 0.656292 0.544208 0.228952
C39   C     C_2   0.885413 0.598043 0.325472 0.959424
O9    O     O_2   0.808339 0.575408 0.254699 -0.625272
O10   O     O_R   0.946376 0.705071 0.332294 -0.749140
H10   H     H_    0.926987 0.754797 0.270235 0.383557
H11   H     H_    0.115332 0.600044 0.373400 0.245164
C40   C     C_2   0.646681 0.790605 0.231668 0.973314
O11   O     O_2   0.712964 0.776982 0.309383 -0.588130
O12   O     O_R   0.622598 0.892869 0.199629 -0.796298
H12   H     H_    0.670073 0.948905 0.244297 0.354463
C41   C     C_2   0.815914 0.703045 0.924484 0.890680
O13   O     O_2   0.863374 0.744920 0.846428 -0.600952
O14   O     O_R   0.887712 0.712181 0.016919 -0.761532
H13   H     H_    0.976434 0.756755 0.008721 0.363380
C42   C     C_2   0.666537 0.831924 0.013734 0.986209
O15   O     O_2   0.764982 0.891080 0.041128 -0.569778
O16   O     O_R   0.586389 0.868328 0.935157 -0.759543
H14   H     H_    0.614221 0.947713 0.912340 0.401136
H15   H     H_    0.418291 0.236281 0.782272 0.181169
H16   H     H_    0.417578 0.316900 0.080355 0.127646
C43   C     C_2   0.855418 0.355921 0.669980 1.102100
O17   O     O_2   0.745973 0.359288 0.682882 -0.672863
O18   O     O_R   0.931488 0.322962 0.753259 -0.713863
H17   H     H_    0.886094 0.306435 0.818500 0.350964
H18   H     H_    0.410787 0.933748 0.254817 0.206851
H19   H     H_    0.376319 0.109374 0.228334 0.148973
C44   C     C_2   0.671524 0.085148 0.658791 0.919376
O19   O     O_2   0.744011 0.154562 0.609877 -0.641722
O20   O     O_R   0.633429 0.102408 0.751757 -0.783296
H20   H     H_    0.673550 0.175815 0.772829 0.365783
C45   C     C_2   0.810749 0.925397 0.726856 1.047940
O21   O     O_2   0.909290 0.915526 0.694445 -0.497925
O22   O     O_R   0.813922 0.968454 0.818413 -0.767757
H21   H     H_    0.902692 0.985684 0.851994 0.371951
C46   C     C_2   0.354709 0.765259 0.372310 0.979423
O23   O     O_2   0.258087 0.755965 0.415407 -0.642684
O24   O     O_R   0.350730 0.719898 0.281669 -0.831768
H22   H     H_    0.266339 0.671646 0.264643 0.323521
C47   C     C_2   0.098568 0.300338 0.626359 1.054996
O25   O     O_2   0.047518 0.204978 0.636960 -0.572479
O26   O     O_R   0.206949 0.337056 0.686549 -0.790264
H23   H     H_    0.222069 0.279831 0.743034 0.343268
H24   H     H_    0.034143 0.329692 0.480124 0.132228
H25   H     H_    0.879041 0.432093 0.366724 0.160972
H26   H     H_    0.960197 0.664563 0.514975 0.228538
C48   C     C_2   0.919457 0.615691 0.664565 0.935011
O27   O     O_2   0.905686 0.706773 0.669005 -0.552439
O28   O     O_R   0.908107 0.541416 0.750828 -0.780052
H27   H     H_    0.905373 0.573644 0.815576 0.358724
C49   C     C_2   0.168023 0.572159 0.685753 0.989527
O29   O     O_2   0.256595 0.644517 0.707460 -0.586415
O30   O     O_R   0.128192 0.487134 0.759340 -0.705118
H28   H     H_    0.180409 0.494031 0.826197 0.352924

loop_
_geom_bond_atom_site_label_1
_geom_bond_atom_site_label_2
_ccdc_geom_bond_type
C2    C35   S    
C33   O8    A    
O20   H20   S    
C46   O23   D    
C42   O15   D    
O24   H22   S    
C48   O28   S    
C47   O25   D    
C7    C8    A    
C3    H11   S    
C18   C40   S    
C4    C49   S    
C11   C19   A    
C29   C30   A    
C31   H5    S    
C39   O10   S    
C28   C29   A    
O18   H17   S    
C37   C38   S    
C29   H18   S    
C30   C46   S    
O28   H27   S    
C15   C16   A    
O2    Zn2   S    
C49   O29   D    
C36   H25   S    
C34   C35   S    
C17   H1    S    
C41   O14   S    
O30   H28   S    
C8    C9    A    
C40   O12   S    
C31   N1    A    
O4    Zn2   S    
C45   O22   S    
C9    C10   A    
C7    H15   S    
C46   O24   S    
C21   C22   A    
C12   C38   S    
C42   O16   S    
C15   C41   S    
C48   O27   D    
C47   O26   S    
C23   O6    A    
C44   O20   S    
C6    C18   A    
O7    Zn1   S    
C1    C19   S    
C27   C31   A    
O12   H12   S    
C24   C25   A    
O22   H21   S    
C37   H26   S    
O6    Zn2   S    
C24   C44   S    
C5    C18   A    
C20   C28   A    
C36   C39   S    
C25   C26   A    
C44   O19   D    
C3    H7    S    
O3    Zn1   S    
C39   O9    D    
C2    C4    S    
O16   H14   S    
O10   H10   S    
C34   C43   S    
N2    Zn2   S    
C21   H6    S    
C11   C16   A    
O26   H23   S    
C5    C14   A    
C26   N2    A    
C2    C33   S    
C26   C30   A    
C7    C19   A    
O8    Zn2   S    
C22   C24   A    
C12   O4    A    
C43   O18   S    
C20   C32   A    
C33   O7    A    
O1    Zn1   S    
C6    C17   A    
C34   C38   S    
C32   N1    A    
C35   H24   S    
C10   C13   A    
C37   C48   S    
C12   O3    A    
C1    O1    A    
C25   C27   A    
C13   C17   A    
C20   H19   S    
C2    C3    S    
O14   H13   S    
C35   C47   S    
C23   O5    A    
C3    C36   S    
C6    C23   S    
C4    H9    S    
C36   C38   S    
C22   C45   S    
C49   O30   S    
C9    H16   S    
C5    C42   S    
C41   O13   D    
C10   C11   A    
C43   O17   D    
C4    C37   S    
C40   O11   D    
N1    Zn1   S    
C27   C28   A    
C34   H8    S    
C32   H4    S    
C14   C15   A    
C8    H2    S    
C45   O21   D    
C13   C14   A    
C1    O2    A    
C16   H3    S    
O5    Zn1   S    
C21   N2    A    
