data_mof_unit_49447.cif
_audit_creation_date              2012-12-10T17:48:39-0500
_audit_creation_method            fapswitch 2.2
_symmetry_space_group_name_H-M    P1
_symmetry_Int_Tables_number       1
_space_group_crystal_system       triclinic
_cell_length_a                    15.733934
_cell_length_b                    10.72648
_cell_length_c                    9.893281
_cell_angle_alpha                 89.403051
_cell_angle_beta                  89.883267
_cell_angle_gamma                 91.677054
_cell_volume                      1668.8759901

loop_
_atom_site_label
_atom_site_type_symbol
_atom_type_description
_atom_site_fract_x
_atom_site_fract_y
_atom_site_fract_z
_atom_type_partial_charge
C1    C     C_R   0.505316 0.259899 0.501709 0.860591
C2    C     C_R   0.495283 0.046235 0.878404 -0.149817
C3    C     C_R   0.450105 0.933411 0.870491 -0.167208
C4    C     C_R   0.338323 0.499499 0.500181 0.887406
C5    C     C_R   0.438461 0.877285 0.745265 -0.156322
C6    C     C_R   0.471930 0.934495 0.625880 0.099042
C7    C     C_R   0.501155 0.058531 0.631214 0.095863
C8    C     C_R   0.508581 0.125910 0.506828 -0.117695
C9    C     C_R   0.505045 0.064045 0.383176 -0.232576
C10   C     C_R   0.494145 0.937148 0.380985 -0.223112
C11   C     C_R   0.480329 0.871425 0.501773 -0.131007
C12   C     C_3   0.949346 0.435699 0.630725 -0.397306
C13   C     C_R   0.389823 0.334325 0.142121 -0.167269
C14   C     C_R   0.336230 0.250855 0.073384 0.114705
C15   C     C_R   0.336040 0.252390 0.932679 -0.224855
C16   C     C_R   0.491298 0.738907 0.500001 0.879787
C17   C     C_R   0.389608 0.335194 0.861779 -0.174146
C18   C     C_R   0.445734 0.418453 0.928693 0.144301
C19   C     C_R   0.445784 0.418298 0.073257 0.083015
C20   C     C_R   0.551623 0.579056 0.070661 0.157269
C21   C     C_R   0.551460 0.578640 0.926960 -0.177467
C22   C     C_R   0.661691 0.500291 0.499815 0.918778
C23   C     C_3   0.917484 0.499041 0.499684 0.368055
C24   C     C_3   0.047469 0.435439 0.631011 -0.397341
C25   C     C_3   0.047879 0.426248 0.376415 -0.390343
C26   C     C_3   0.949750 0.426510 0.376125 -0.400574
C27   C     C_1   0.750656 0.499836 0.499537 -0.192798
C28   C     C_3   0.082591 0.498613 0.500169 0.363268
C29   C     C_3   0.953867 0.634632 0.492487 -0.396962
C30   C     C_3   0.051969 0.634379 0.492779 -0.399564
C31   C     C_1   0.826016 0.499400 0.499488 -0.127929
C32   C     C_1   0.174035 0.498569 0.500406 -0.124707
C33   C     C_1   0.249387 0.498907 0.500425 -0.178842
C34   C     C_R   0.521043 0.108556 0.760154 -0.163412
H1    H     H_    0.923592 0.338070 0.638049 0.165676
H2    H     H_    0.498035 0.890604 0.284566 0.169133
H3    H     H_    0.069071 0.337690 0.638457 0.165445
H4    H     H_    0.385313 0.330580 0.249289 0.214621
H5    H     H_    0.294556 0.188962 0.877212 0.146555
H6    H     H_    0.385472 0.330485 0.754677 0.215997
H7    H     H_    0.593266 0.642741 0.871448 0.155292
H8    H     H_    0.072718 0.470000 0.281157 0.170159
H9    H     H_    0.069489 0.328345 0.379600 0.170214
H10   H     H_    0.924000 0.328729 0.379175 0.166477
H11   H     H_    0.927238 0.470400 0.280732 0.166650
H12   H     H_    0.072001 0.485891 0.721337 0.168138
H13   H     H_    0.076561 0.688194 0.580780 0.165269
H14   H     H_    0.076864 0.681648 0.399480 0.166309
H15   H     H_    0.931125 0.688567 0.580348 0.165424
H16   H     H_    0.592414 0.754580 0.110151 0.155556
H17   H     H_    0.669197 0.647715 0.111425 0.161157
H18   H     H_    0.320626 0.104509 0.201002 0.180250
H19   H     H_    0.244341 0.111687 0.083319 0.177831
H20   H     H_    0.926532 0.486280 0.720920 0.166091
H21   H     H_    0.931426 0.682014 0.399045 0.165716
H22   H     H_    0.511751 0.113332 0.287373 0.169074
H23   H     H_    0.558708 0.193364 0.772473 0.168916
H24   H     H_    0.508796 0.086964 0.976008 0.137526
H25   H     H_    0.426522 0.887420 0.961599 0.134446
H26   H     H_    0.402771 0.789605 0.742913 0.160132
N1    N     N_R   0.499210 0.498800 0.142780 -0.113469
N2    N     N_R   0.499180 0.498720 0.857170 -0.125551
N3    N     N_3   0.606748 0.664124 0.141146 -0.393768
N4    N     N_3   0.281691 0.165954 0.148836 -0.468693
O1    O     O_R   0.500000 0.316780 0.614690 -0.652909
O2    O     O_R   0.499990 0.316750 0.385360 -0.643190
O3    O     O_R   0.377150 0.500020 0.614720 -0.639035
O4    O     O_R   0.377140 0.499990 0.385380 -0.631257
O5    O     O_R   0.500010 0.683250 0.614640 -0.625370
O6    O     O_R   0.500000 0.683220 0.385310 -0.599491
O7    O     O_R   0.622860 0.500010 0.614620 -0.615479
O8    O     O_R   0.622850 0.499980 0.385280 -0.591341
Zn1   Zn    Zn3+2 0.500010 0.500020 0.653130 0.922043
Zn2   Zn    Zn3+2 0.499990 0.499980 0.346870 0.948631

loop_
_geom_bond_atom_site_label_1
_geom_bond_atom_site_label_2
_ccdc_geom_bond_type
C25   H8    S    
O6    Zn2   S    
C4    O3    A    
C1    O1    A    
C2    H24   S    
N2    Zn1   S    
O5    Zn1   S    
C6    C7    A    
O3    Zn1   S    
N1    Zn2   S    
C34   H23   S    
C1    C8    S    
C9    C10   A    
C30   H13   S    
O4    Zn2   S    
C4    O4    A    
C5    H26   S    
C17   C18   A    
C14   N4    S    
C32   C33   T    
C2    C34   A    
C20   N3    S    
C28   C30   S    
C2    C3    A    
C21   N2    A    
C24   H12   S    
C7    C8    A    
C9    H22   S    
C29   H15   S    
C13   C14   A    
C16   O6    A    
C12   H1    S    
H16   N3    S    
C12   C23   S    
C15   H5    S    
C13   H4    S    
C29   C30   S    
C19   N1    A    
C21   H7    S    
C23   C29   S    
C30   H14   S    
C25   H9    S    
H19   N4    S    
C1    O2    A    
C22   C27   S    
C6    C11   A    
C5    C6    A    
C7    C34   A    
C23   C26   S    
C11   C16   S    
C10   C11   A    
C13   C19   A    
C26   H10   S    
O7    Zn1   S    
O2    Zn2   S    
C22   O7    A    
C28   C32   S    
H17   N3    S    
C20   C21   A    
C24   H3    S    
C18   C19   A    
H18   N4    S    
O1    Zn1   S    
C22   O8    A    
C20   N1    A    
C15   C17   A    
O8    Zn2   S    
C12   C24   S    
C14   C15   A    
C18   N2    A    
C10   H2    S    
C29   H21   S    
C26   H11   S    
C3    C5    A    
C25   C26   S    
C4    C33   S    
C27   C31   T    
C12   H20   S    
C16   O5    A    
C24   C28   S    
C23   C31   S    
C8    C9    A    
C25   C28   S    
C17   H6    S    
C3    H25   S    
