data_mof_unit_64985.cif
_audit_creation_date              2013-03-05T16:14:57-0500
_audit_creation_method            fapswitch 2.2
_symmetry_space_group_name_H-M    P1
_symmetry_Int_Tables_number       1
_space_group_crystal_system       triclinic
_cell_length_a                    26.135041
_cell_length_b                    34.768596
_cell_length_c                    34.800884
_cell_angle_alpha                 90.000691
_cell_angle_beta                  90.105275
_cell_angle_gamma                 89.973968
_cell_volume                      31622.764759

loop_
_atom_site_label
_atom_site_type_symbol
_atom_site_description
_atom_site_fract_x
_atom_site_fract_y
_atom_site_fract_z
_atom_type_partial_charge
Zn1   Zn    Zn3+2 0.792920 0.967500 0.217510 0.990695
Zn2   Zn    Zn3+2 0.792920 0.967500 0.782490 0.996990
Zn3   Zn    Zn3+2 0.207080 0.967500 0.217510 0.996351
Zn4   Zn    Zn3+2 0.207080 0.967500 0.782490 0.993722
Zn5   Zn    Zn3+2 0.292920 0.467500 0.217510 0.991680
Zn6   Zn    Zn3+2 0.292920 0.467500 0.782490 0.994259
Zn7   Zn    Zn3+2 0.707080 0.467500 0.217510 0.995371
Zn8   Zn    Zn3+2 0.707080 0.467500 0.782490 0.990628
Zn9   Zn    Zn3+2 0.292920 0.967500 0.717510 0.994128
Zn10  Zn    Zn3+2 0.292920 0.967500 0.282490 0.996182
Zn11  Zn    Zn3+2 0.707080 0.967500 0.717510 0.995356
Zn12  Zn    Zn3+2 0.707080 0.967500 0.282490 0.996528
Zn13  Zn    Zn3+2 0.792920 0.467500 0.717510 0.993301
Zn14  Zn    Zn3+2 0.792920 0.467500 0.282490 0.995345
Zn15  Zn    Zn3+2 0.207080 0.467500 0.717510 0.994672
Zn16  Zn    Zn3+2 0.207080 0.467500 0.282490 0.991292
Zn17  Zn    Zn3+2 0.707080 0.032480 0.217500 1.035168
Zn18  Zn    Zn3+2 0.707080 0.032480 0.782500 1.030430
Zn19  Zn    Zn3+2 0.292920 0.032480 0.217500 1.029980
Zn20  Zn    Zn3+2 0.292920 0.032480 0.782500 1.032599
Zn21  Zn    Zn3+2 0.207080 0.532480 0.217500 1.035272
Zn22  Zn    Zn3+2 0.207080 0.532480 0.782500 1.030881
Zn23  Zn    Zn3+2 0.792920 0.532480 0.217500 1.030395
Zn24  Zn    Zn3+2 0.792920 0.532480 0.782500 1.034715
Zn25  Zn    Zn3+2 0.207080 0.032480 0.717500 1.033734
Zn26  Zn    Zn3+2 0.207080 0.032480 0.282500 1.030016
Zn27  Zn    Zn3+2 0.792920 0.032480 0.717500 1.030526
Zn28  Zn    Zn3+2 0.792920 0.032480 0.282500 1.034518
Zn29  Zn    Zn3+2 0.707080 0.532480 0.717500 1.035723
Zn30  Zn    Zn3+2 0.707080 0.532480 0.282500 1.030014
Zn31  Zn    Zn3+2 0.292920 0.532480 0.717500 1.029581
Zn32  Zn    Zn3+2 0.292920 0.532480 0.282500 1.036581
O1    O     O_3   0.750000 0.999990 0.250000 -0.518538
O2    O     O_3   0.750000 0.999990 0.750000 -0.518317
O3    O     O_3   0.250000 0.999990 0.250000 -0.517696
O4    O     O_3   0.250000 0.999990 0.750000 -0.518857
O5    O     O_3   0.250000 0.499990 0.250000 -0.517232
O6    O     O_3   0.250000 0.499990 0.750000 -0.517979
O7    O     O_3   0.750000 0.499990 0.250000 -0.517776
O8    O     O_3   0.750000 0.499990 0.750000 -0.517810
O9    O     O_R   0.635430 0.977260 0.272720 -0.632342
O10   O     O_R   0.635430 0.977260 0.727280 -0.635781
O11   O     O_R   0.364570 0.977260 0.272720 -0.635918
O12   O     O_R   0.364570 0.977260 0.727280 -0.632757
O13   O     O_R   0.135430 0.477260 0.272720 -0.633790
O14   O     O_R   0.135430 0.477260 0.727280 -0.634668
O15   O     O_R   0.864570 0.477260 0.272720 -0.635462
O16   O     O_R   0.864570 0.477260 0.727280 -0.633123
O17   O     O_R   0.135430 0.977260 0.772720 -0.632602
O18   O     O_R   0.135430 0.977260 0.227280 -0.635239
O19   O     O_R   0.864570 0.977260 0.772720 -0.635324
O20   O     O_R   0.864570 0.977260 0.227280 -0.632557
O21   O     O_R   0.635430 0.477260 0.772720 -0.633234
O22   O     O_R   0.635430 0.477260 0.227280 -0.635611
O23   O     O_R   0.364570 0.477260 0.772720 -0.635097
O24   O     O_R   0.364570 0.477260 0.227280 -0.634720
O25   O     O_R   0.719960 0.022730 0.163260 -0.594296
O26   O     O_R   0.719960 0.022730 0.836740 -0.593289
O27   O     O_R   0.280040 0.022730 0.163260 -0.594832
O28   O     O_R   0.280040 0.022730 0.836740 -0.596206
O29   O     O_R   0.219960 0.522730 0.163260 -0.597033
O30   O     O_R   0.219960 0.522730 0.836740 -0.595455
O31   O     O_R   0.780040 0.522730 0.163260 -0.594516
O32   O     O_R   0.780040 0.522730 0.836740 -0.595902
O33   O     O_R   0.219960 0.022730 0.663260 -0.595420
O34   O     O_R   0.219960 0.022730 0.336740 -0.594879
O35   O     O_R   0.780040 0.022730 0.663260 -0.594560
O36   O     O_R   0.780040 0.022730 0.336740 -0.594666
O37   O     O_R   0.719960 0.522730 0.663260 -0.592585
O38   O     O_R   0.719960 0.522730 0.336740 -0.594155
O39   O     O_R   0.280040 0.522730 0.663260 -0.595017
O40   O     O_R   0.280040 0.522730 0.336740 -0.596451
O41   O     O_R   0.719950 0.086720 0.227250 -0.626757
O42   O     O_R   0.719950 0.086720 0.772750 -0.637044
O43   O     O_R   0.280050 0.086720 0.227250 -0.637254
O44   O     O_R   0.280050 0.086720 0.772750 -0.626775
O45   O     O_R   0.219950 0.586720 0.227250 -0.625140
O46   O     O_R   0.219950 0.586720 0.772750 -0.636155
O47   O     O_R   0.780050 0.586720 0.227250 -0.636565
O48   O     O_R   0.780050 0.586720 0.772750 -0.628364
O49   O     O_R   0.219950 0.086720 0.727250 -0.629801
O50   O     O_R   0.219950 0.086720 0.272750 -0.641301
O51   O     O_R   0.780050 0.086720 0.727250 -0.636852
O52   O     O_R   0.780050 0.086720 0.272750 -0.626372
O53   O     O_R   0.719950 0.586720 0.727250 -0.624323
O54   O     O_R   0.719950 0.586720 0.272750 -0.640463
O55   O     O_R   0.280050 0.586720 0.727250 -0.637913
O56   O     O_R   0.280050 0.586720 0.272750 -0.627722
O57   O     O_R   0.719970 0.913260 0.272730 -0.611842
O58   O     O_R   0.719970 0.913260 0.727270 -0.618815
O59   O     O_R   0.280030 0.913260 0.272730 -0.619183
O60   O     O_R   0.280030 0.913260 0.727270 -0.618832
O61   O     O_R   0.219970 0.413260 0.272730 -0.630495
O62   O     O_R   0.219970 0.413260 0.727270 -0.621012
O63   O     O_R   0.780030 0.413260 0.272730 -0.621188
O64   O     O_R   0.780030 0.413260 0.727270 -0.622787
O65   O     O_R   0.219970 0.913260 0.772730 -0.617720
O66   O     O_R   0.219970 0.913260 0.227270 -0.621762
O67   O     O_R   0.780030 0.913260 0.772730 -0.616283
O68   O     O_R   0.780030 0.913260 0.227270 -0.634299
O69   O     O_R   0.719970 0.413260 0.772730 -0.630269
O70   O     O_R   0.719970 0.413260 0.227270 -0.619816
O71   O     O_R   0.280030 0.413260 0.772730 -0.619675
O72   O     O_R   0.280030 0.413260 0.227270 -0.633583
O73   O     O_R   0.780040 0.977250 0.163260 -0.652141
O74   O     O_R   0.780040 0.977250 0.836740 -0.651269
O75   O     O_R   0.219960 0.977250 0.163260 -0.651628
O76   O     O_R   0.219960 0.977250 0.836740 -0.651283
O77   O     O_R   0.280040 0.477250 0.163260 -0.652313
O78   O     O_R   0.280040 0.477250 0.836740 -0.651536
O79   O     O_R   0.719960 0.477250 0.163260 -0.652268
O80   O     O_R   0.719960 0.477250 0.836740 -0.652108
O81   O     O_R   0.280040 0.977250 0.663260 -0.650227
O82   O     O_R   0.280040 0.977250 0.336740 -0.652106
O83   O     O_R   0.719960 0.977250 0.663260 -0.651033
O84   O     O_R   0.719960 0.977250 0.336740 -0.652522
O85   O     O_R   0.780040 0.477250 0.663260 -0.653514
O86   O     O_R   0.780040 0.477250 0.336740 -0.652936
O87   O     O_R   0.219960 0.477250 0.663260 -0.651591
O88   O     O_R   0.219960 0.477250 0.336740 -0.652883
O89   O     O_R   0.635420 0.022730 0.227240 -0.632452
O90   O     O_R   0.635420 0.022730 0.772760 -0.619589
O91   O     O_R   0.364580 0.022730 0.227240 -0.621079
O92   O     O_R   0.364580 0.022730 0.772760 -0.632449
O93   O     O_R   0.135420 0.522730 0.227240 -0.634760
O94   O     O_R   0.135420 0.522730 0.772760 -0.621261
O95   O     O_R   0.864580 0.522730 0.227240 -0.620865
O96   O     O_R   0.864580 0.522730 0.772760 -0.631890
O97   O     O_R   0.135420 0.022730 0.727240 -0.629941
O98   O     O_R   0.135420 0.022730 0.272760 -0.618322
O99   O     O_R   0.864580 0.022730 0.727240 -0.618560
O100  O     O_R   0.864580 0.022730 0.272760 -0.633575
O101  O     O_R   0.635420 0.522730 0.727240 -0.633134
O102  O     O_R   0.635420 0.522730 0.272760 -0.619811
O103  O     O_R   0.364580 0.522730 0.727240 -0.621467
O104  O     O_R   0.364580 0.522730 0.272760 -0.631468
C1    C     C_R   0.611550 0.999980 0.249990 0.856341
C2    C     C_R   0.611551 0.999950 0.749989 0.858163
C3    C     C_R   0.388450 0.999945 0.250017 0.857593
C4    C     C_R   0.388450 0.999974 0.750004 0.853718
C5    C     C_R   0.111550 0.499981 0.249991 0.857618
C6    C     C_R   0.111551 0.499951 0.749988 0.857792
C7    C     C_R   0.888450 0.499944 0.250017 0.857818
C8    C     C_R   0.888450 0.499975 0.750004 0.856122
C9    C     C_R   0.111550 0.999978 0.749987 0.856095
C10   C     C_R   0.111551 0.999945 0.249994 0.862079
C11   C     C_R   0.888450 0.999942 0.750014 0.858604
C12   C     C_R   0.888450 0.999973 0.250005 0.856727
C13   C     C_R   0.611550 0.499980 0.749990 0.857540
C14   C     C_R   0.611551 0.499947 0.249991 0.860768
C15   C     C_R   0.388450 0.499946 0.750018 0.857425
C16   C     C_R   0.388450 0.499972 0.250006 0.859707
C17   C     C_R   0.749912 0.000374 0.144941 0.841422
C18   C     C_R   0.749852 0.000274 0.855157 0.838207
C19   C     C_R   0.249989 0.000465 0.144928 0.836420
C20   C     C_R   0.250148 0.000381 0.854995 0.840475
C21   C     C_R   0.250077 0.500550 0.144995 0.847505
C22   C     C_R   0.250053 0.500497 0.855091 0.834952
C23   C     C_R   0.750043 0.500416 0.144931 0.836635
C24   C     C_R   0.750187 0.500347 0.854999 0.841661
C25   C     C_R   0.249569 0.000178 0.644950 0.836365
C26   C     C_R   0.249522 0.000060 0.355072 0.842676
C27   C     C_R   0.750228 0.000279 0.644913 0.836973
C28   C     C_R   0.750039 0.000418 0.355049 0.843101
C29   C     C_R   0.750284 0.500561 0.644930 0.841934
C30   C     C_R   0.749776 0.500112 0.355142 0.841935
C31   C     C_R   0.249973 0.500482 0.644944 0.836111
C32   C     C_R   0.250183 0.500338 0.355012 0.841885
C33   C     C_R   0.750222 0.104857 0.249845 0.814033
C34   C     C_R   0.749508 0.104966 0.749661 0.793831
C35   C     C_R   0.249653 0.104938 0.249752 0.796977
C36   C     C_R   0.249826 0.104835 0.750114 0.810875
C37   C     C_R   0.249772 0.604868 0.250153 0.815636
C38   C     C_R   0.250326 0.604785 0.750217 0.798390
C39   C     C_R   0.750076 0.604872 0.250131 0.796977
C40   C     C_R   0.750220 0.604803 0.749912 0.813007
C41   C     C_R   0.750186 0.894797 0.250073 0.913158
C42   C     C_R   0.750027 0.894802 0.750067 0.894972
C43   C     C_R   0.249708 0.894781 0.250201 0.906872
C44   C     C_R   0.249567 0.894850 0.749626 0.889442
C45   C     C_R   0.249942 0.394869 0.249986 0.930232
C46   C     C_R   0.249851 0.394822 0.750100 0.905221
C47   C     C_R   0.750166 0.394799 0.249913 0.907440
C48   C     C_R   0.748685 0.394768 0.748944 0.912467
C49   C     C_R   0.712456 0.791561 0.271147 0.337092
C50   C     C_R   0.713015 0.790944 0.730522 0.351235
C51   C     C_R   0.285143 0.791087 0.272194 0.349163
C52   C     C_R   0.289642 0.791925 0.729994 0.353473
C53   C     C_R   0.202731 0.292032 0.259035 0.346216
C54   C     C_R   0.207813 0.291634 0.733355 0.348515
C55   C     C_R   0.793013 0.291573 0.266072 0.349785
C56   C     C_R   0.781341 0.290777 0.724869 0.350632
C57   C     C_R   0.216345 0.791258 0.773283 0.345968
C58   C     C_R   0.205853 0.791552 0.235181 0.350141
C59   C     C_R   0.787234 0.791777 0.773029 0.350618
C60   C     C_R   0.795007 0.791332 0.238378 0.352880
C61   C     C_R   0.698271 0.291996 0.756691 0.347124
C62   C     C_R   0.713920 0.291129 0.228796 0.348467
C63   C     C_R   0.286341 0.291285 0.771274 0.347934
C64   C     C_R   0.290969 0.291145 0.235613 0.345862
C65   C     C_R   0.712215 0.831981 0.270177 0.274153
C66   C     C_R   0.715124 0.831215 0.727813 0.281425
C67   C     C_R   0.284997 0.831462 0.272640 0.280156
C68   C     C_R   0.284521 0.831872 0.726133 0.286518
C69   C     C_R   0.204616 0.332364 0.261232 0.268081
C70   C     C_R   0.210690 0.331842 0.730588 0.279315
C71   C     C_R   0.789973 0.331802 0.268968 0.277758
C72   C     C_R   0.782706 0.331225 0.725596 0.274549
C73   C     C_R   0.215882 0.831587 0.773218 0.282422
C74   C     C_R   0.209137 0.831774 0.231915 0.277030
C75   C     C_R   0.784826 0.832018 0.774291 0.286979
C76   C     C_R   0.792409 0.831566 0.234485 0.267118
C77   C     C_R   0.701321 0.332432 0.759537 0.262765
C78   C     C_R   0.714199 0.331499 0.228170 0.279197
C79   C     C_R   0.285695 0.331615 0.772118 0.281297
C80   C     C_R   0.291935 0.331556 0.236390 0.268669
C81   C     C_R   0.751379 0.852215 0.251077 -0.285704
C82   C     C_R   0.750071 0.852224 0.750579 -0.306666
C83   C     C_R   0.248121 0.852180 0.251368 -0.299005
C84   C     C_R   0.249669 0.852311 0.749434 -0.304262
C85   C     C_R   0.248918 0.352390 0.249357 -0.284428
C86   C     C_R   0.248874 0.352282 0.750793 -0.300553
C87   C     C_R   0.751302 0.352213 0.249180 -0.298309
C88   C     C_R   0.744426 0.352245 0.745140 -0.287090
C89   C     C_R   0.753850 0.770787 0.255020 -0.146170
C90   C     C_R   0.750794 0.770639 0.751546 -0.154539
C91   C     C_R   0.245076 0.770686 0.253929 -0.151576
C92   C     C_R   0.254211 0.770770 0.752426 -0.152860
C93   C     C_R   0.246191 0.271001 0.246754 -0.153241
C94   C     C_R   0.246725 0.270727 0.752526 -0.152874
C95   C     C_R   0.753949 0.270696 0.247142 -0.151665
C96   C     C_R   0.739368 0.270834 0.740906 -0.148551
C97   C     C_R   0.774768 0.707618 0.222824 -0.093800
C98   C     C_R   0.770446 0.706119 0.782445 -0.093743
C99   C     C_R   0.224978 0.707162 0.221834 -0.093526
C100  C     C_R   0.236336 0.706338 0.784307 -0.088228
C101  C     C_R   0.271804 0.206966 0.218105 -0.087597
C102  C     C_R   0.267962 0.206396 0.783027 -0.089879
C103  C     C_R   0.733687 0.206476 0.216288 -0.088168
C104  C     C_R   0.720508 0.208134 0.774588 -0.096534
C105  C     C_R   0.274309 0.706586 0.720968 -0.095815
C106  C     C_R   0.265513 0.706316 0.284426 -0.086973
C107  C     C_R   0.734241 0.707008 0.718385 -0.088983
C108  C     C_R   0.731215 0.706247 0.284164 -0.087828
C109  C     C_R   0.759736 0.205963 0.711662 -0.082134
C110  C     C_R   0.774536 0.206966 0.278765 -0.093746
C111  C     C_R   0.225427 0.206879 0.721197 -0.094877
C112  C     C_R   0.219014 0.207351 0.275440 -0.094688
H1    H     H_    0.790654 0.722328 0.198278 0.185840
H2    H     H_    0.782751 0.719253 0.808941 0.195543
H3    H     H_    0.210294 0.721465 0.196577 0.190206
H4    H     H_    0.224683 0.719687 0.810834 0.193748
H5    H     H_    0.290517 0.221026 0.194180 0.184965
H6    H     H_    0.282004 0.219837 0.808909 0.192605
H7    H     H_    0.720283 0.220112 0.190288 0.191020
H8    H     H_    0.704981 0.223441 0.798973 0.182795
H9    H     H_    0.287605 0.720050 0.694963 0.194994
H10   H     H_    0.278707 0.719826 0.310552 0.191399
H11   H     H_    0.722667 0.721195 0.692203 0.190255
H12   H     H_    0.716385 0.719677 0.309812 0.191273
H13   H     H_    0.772104 0.219313 0.685218 0.186401
H14   H     H_    0.789196 0.221027 0.304145 0.190604
H15   H     H_    0.210343 0.220763 0.695879 0.190563
H16   H     H_    0.199127 0.221692 0.298649 0.184043
C113  C     C_R   0.775771 0.667707 0.222375 -0.197151
C114  C     C_R   0.772770 0.666306 0.780948 -0.192315
C115  C     C_R   0.224137 0.667236 0.221715 -0.185370
C116  C     C_R   0.231591 0.666613 0.782391 -0.197583
C117  C     C_R   0.275192 0.167117 0.220224 -0.192489
C118  C     C_R   0.271904 0.166642 0.781075 -0.188093
C119  C     C_R   0.729608 0.166704 0.218213 -0.188191
C120  C     C_R   0.722286 0.168149 0.776500 -0.197783
C121  C     C_R   0.275506 0.666744 0.721355 -0.202118
C122  C     C_R   0.269879 0.666575 0.282198 -0.188575
C123  C     C_R   0.730813 0.667169 0.718968 -0.188156
C124  C     C_R   0.727629 0.666503 0.281678 -0.199745
C125  C     C_R   0.765327 0.166309 0.715017 -0.195227
C126  C     C_R   0.775709 0.167060 0.278538 -0.189192
C127  C     C_R   0.223861 0.166998 0.721631 -0.195120
C128  C     C_R   0.218409 0.167386 0.275306 -0.200819
H17   H     H_    0.794955 0.653157 0.198952 0.190673
H18   H     H_    0.790087 0.650959 0.804752 0.204270
H19   H     H_    0.205817 0.652491 0.197960 0.203514
H20   H     H_    0.213063 0.651554 0.805816 0.193147
H21   H     H_    0.298617 0.152107 0.199322 0.191899
H22   H     H_    0.291975 0.151540 0.803808 0.203316
H23   H     H_    0.710311 0.151589 0.195126 0.203194
H24   H     H_    0.705908 0.153832 0.801223 0.187914
H25   H     H_    0.293226 0.651790 0.697507 0.192900
H26   H     H_    0.289134 0.651354 0.305239 0.203389
H27   H     H_    0.713535 0.652495 0.694756 0.203337
H28   H     H_    0.707526 0.651092 0.304057 0.190934
H29   H     H_    0.783700 0.150645 0.691945 0.189091
H30   H     H_    0.794285 0.152196 0.302118 0.202317
H31   H     H_    0.204392 0.152147 0.698453 0.199214
H32   H     H_    0.195648 0.152556 0.296734 0.188155
C129  C     C_R   0.750985 0.646852 0.251257 -0.018221
C130  C     C_R   0.751072 0.646586 0.749922 -0.026149
C131  C     C_R   0.248196 0.646736 0.251233 -0.028723
C132  C     C_R   0.252142 0.646554 0.751244 -0.016345
C133  C     C_R   0.247946 0.146980 0.248538 -0.019497
C134  C     C_R   0.248716 0.146658 0.750856 -0.025415
C135  C     C_R   0.751610 0.146712 0.248952 -0.027563
C136  C     C_R   0.746254 0.147010 0.747320 -0.018657
C137  C     C_R   0.753554 0.727730 0.254213 0.225934
C138  C     C_R   0.751966 0.727562 0.750840 0.218506
C139  C     C_R   0.244838 0.727637 0.253572 0.220998
C140  C     C_R   0.255430 0.727567 0.752771 0.217068
C141  C     C_R   0.245316 0.227985 0.246562 0.228425
C142  C     C_R   0.246462 0.227625 0.752371 0.219512
C143  C     C_R   0.754362 0.227644 0.247256 0.221183
C144  C     C_R   0.739206 0.227796 0.742085 0.229864
C145  C     C_2   0.528189 0.522128 0.272236 -0.124395
C146  C     C_2   0.528050 0.522202 0.727789 -0.137621
C147  C     C_2   0.471920 0.522153 0.272250 -0.134967
C148  C     C_2   0.471782 0.522168 0.727816 -0.128695
C149  C     C_2   0.028191 0.022118 0.272248 -0.122854
C150  C     C_2   0.028051 0.022144 0.727724 -0.133706
C151  C     C_2   0.971921 0.022143 0.272262 -0.137054
C152  C     C_2   0.971782 0.022106 0.727749 -0.125029
C153  C     C_2   0.028188 0.522160 0.772204 -0.128607
C154  C     C_2   0.028050 0.522198 0.227784 -0.138484
C155  C     C_2   0.971920 0.522189 0.772214 -0.135949
C156  C     C_2   0.971781 0.522164 0.227812 -0.127769
C157  C     C_2   0.528189 0.022145 0.772220 -0.126098
C158  C     C_2   0.528050 0.022188 0.227772 -0.136763
C159  C     C_2   0.471920 0.022173 0.772233 -0.136790
C160  C     C_2   0.471782 0.022152 0.227797 -0.127997
C161  C     C_2   0.556185 0.499316 0.249390 -0.286889
C162  C     C_2   0.556195 0.499377 0.750579 -0.283282
C163  C     C_2   0.443807 0.499361 0.249418 -0.284309
C164  C     C_2   0.443816 0.499316 0.750630 -0.286780
C165  C     C_2   0.056186 0.999309 0.249398 -0.286417
C166  C     C_2   0.056195 0.999370 0.750567 -0.286093
C167  C     C_2   0.943808 0.999364 0.249415 -0.284042
C168  C     C_2   0.943816 0.999310 0.750620 -0.288645
C169  C     C_2   0.056185 0.499331 0.749374 -0.287361
C170  C     C_2   0.056195 0.499380 0.250581 -0.283060
C171  C     C_2   0.943807 0.499364 0.749414 -0.285462
C172  C     C_2   0.943816 0.499311 0.250625 -0.286625
C173  C     C_2   0.556186 0.999325 0.749382 -0.288239
C174  C     C_2   0.556195 0.999378 0.250577 -0.284383
C175  C     C_2   0.443808 0.999365 0.749414 -0.286284
C176  C     C_2   0.443816 0.999317 0.250629 -0.287466
H33   H     H_    0.546969 0.541829 0.291959 0.204522
H34   H     H_    0.546697 0.541943 0.708093 0.198440
H35   H     H_    0.453245 0.541864 0.291974 0.199728
H36   H     H_    0.452974 0.541900 0.708125 0.203841
H37   H     H_    0.046972 0.041817 0.291974 0.205092
H38   H     H_    0.046698 0.041842 0.707986 0.201534
H39   H     H_    0.953246 0.041843 0.291997 0.198842
H40   H     H_    0.952973 0.041788 0.708008 0.205896
H41   H     H_    0.046968 0.541871 0.791916 0.204396
H42   H     H_    0.046696 0.541932 0.208081 0.197722
H43   H     H_    0.953244 0.541927 0.791911 0.199820
H44   H     H_    0.952973 0.541896 0.208121 0.203943
H45   H     H_    0.546970 0.041850 0.791939 0.204920
H46   H     H_    0.546697 0.041916 0.208063 0.199131
H47   H     H_    0.453245 0.041894 0.791945 0.199588
H48   H     H_    0.452973 0.041865 0.208089 0.204012
H49   H     H_    0.539349 0.479274 0.229336 0.158304
H50   H     H_    0.539457 0.479309 0.770612 0.159111
H51   H     H_    0.460566 0.479317 0.229359 0.158571
H52   H     H_    0.460674 0.479249 0.770658 0.158817
H53   H     H_    0.039349 0.979265 0.229347 0.158512
H54   H     H_    0.039456 0.979337 0.770634 0.159747
H55   H     H_    0.960567 0.979334 0.229344 0.159500
H56   H     H_    0.960675 0.979287 0.770692 0.159062
H57   H     H_    0.039349 0.479287 0.729322 0.159076
H58   H     H_    0.039456 0.479321 0.270624 0.158758
H59   H     H_    0.960566 0.479292 0.729384 0.159330
H60   H     H_    0.960673 0.479241 0.270650 0.158531
H61   H     H_    0.539349 0.979283 0.729328 0.158693
H62   H     H_    0.539456 0.979320 0.270621 0.159324
H63   H     H_    0.460566 0.979310 0.729367 0.159499
H64   H     H_    0.460674 0.979266 0.270674 0.158691
C177  C     C_R   0.725833 0.973276 0.457685 -0.190377
C178  C     C_R   0.715667 0.980120 0.542142 -0.193737
C179  C     C_R   0.287557 0.983079 0.457727 -0.189976
C180  C     C_R   0.279958 0.976581 0.542379 -0.191161
C181  C     C_R   0.223534 0.473913 0.457439 -0.186657
C182  C     C_R   0.217892 0.477728 0.542379 -0.190312
C183  C     C_R   0.790542 0.483140 0.457513 -0.196804
C184  C     C_R   0.780416 0.475623 0.542344 -0.193474
C185  C     C_R   0.224961 0.973657 0.957566 -0.188029
C186  C     C_R   0.216936 0.979111 0.042243 -0.191827
C187  C     C_R   0.787451 0.981896 0.957769 -0.193914
C188  C     C_R   0.776840 0.974287 0.042316 -0.192618
C189  C     C_R   0.723979 0.474110 0.957527 -0.188980
C190  C     C_R   0.716765 0.479077 0.042285 -0.191913
C191  C     C_R   0.282067 0.478763 0.957947 -0.194025
C192  C     C_R   0.270584 0.471602 0.042319 -0.185840
H65   H     H_    0.708394 0.948736 0.471609 0.162175
H66   H     H_    0.684706 0.965209 0.528057 0.162668
H67   H     H_    0.320900 0.970708 0.471571 0.159862
H68   H     H_    0.302287 0.954414 0.528566 0.162335
H69   H     H_    0.204205 0.449857 0.470934 0.157769
H70   H     H_    0.188789 0.460475 0.528774 0.159321
H71   H     H_    0.822137 0.468554 0.471184 0.163237
H72   H     H_    0.797051 0.451008 0.528112 0.163898
H73   H     H_    0.206799 0.949198 0.971283 0.159865
H74   H     H_    0.187240 0.962702 0.028419 0.161384
H75   H     H_    0.819022 0.967439 0.971764 0.162797
H76   H     H_    0.794257 0.949882 0.028182 0.163321
H77   H     H_    0.705019 0.450055 0.971183 0.159373
H78   H     H_    0.686912 0.462782 0.028525 0.160534
H79   H     H_    0.311138 0.461907 0.972065 0.162876
H80   H     H_    0.284912 0.445471 0.028361 0.158863
C193  C     C_R   0.724098 0.973896 0.417833 -0.227431
C194  C     C_R   0.716878 0.978703 0.582013 -0.227025
C195  C     C_R   0.286078 0.981182 0.417853 -0.225894
C196  C     C_R   0.280907 0.976997 0.582222 -0.226490
C197  C     C_R   0.222136 0.474614 0.417629 -0.225365
C198  C     C_R   0.219194 0.476611 0.582233 -0.227403
C199  C     C_R   0.786821 0.480409 0.417742 -0.225744
C200  C     C_R   0.779438 0.475126 0.582249 -0.224216
C201  C     C_R   0.223360 0.974212 0.917768 -0.226106
C202  C     C_R   0.218131 0.977718 0.082089 -0.228078
C203  C     C_R   0.785277 0.979896 0.917892 -0.225494
C204  C     C_R   0.777420 0.974406 0.082207 -0.225169
C205  C     C_R   0.722525 0.474676 0.917725 -0.226792
C206  C     C_R   0.718013 0.477709 0.082131 -0.228899
C207  C     C_R   0.281053 0.477331 0.918093 -0.228345
C208  C     C_R   0.272877 0.472199 0.082106 -0.221664
H81   H     H_    0.703785 0.951036 0.402968 0.191262
H82   H     H_    0.688724 0.961310 0.596690 0.194820
H83   H     H_    0.316720 0.966046 0.403136 0.191633
H84   H     H_    0.305438 0.956616 0.596961 0.195511
H85   H     H_    0.200495 0.452302 0.402837 0.190555
H86   H     H_    0.193286 0.457285 0.596975 0.193693
H87   H     H_    0.814341 0.462753 0.402627 0.193786
H88   H     H_    0.797366 0.451244 0.597082 0.191549
H89   H     H_    0.202548 0.951427 0.903073 0.191752
H90   H     H_    0.191543 0.958950 0.096748 0.194218
H91   H     H_    0.813617 0.962710 0.903050 0.194414
H92   H     H_    0.797160 0.951287 0.096976 0.192046
H93   H     H_    0.701083 0.452312 0.902997 0.191378
H94   H     H_    0.691232 0.459119 0.096825 0.193852
H95   H     H_    0.306957 0.457966 0.903531 0.193776
H96   H     H_    0.290662 0.447689 0.096752 0.186659
C209  C     C_R   0.750115 0.002392 0.397275 -0.212433
C210  C     C_R   0.752188 0.000746 0.602589 -0.215813
C211  C     C_R   0.247383 0.000201 0.397358 -0.212589
C212  C     C_R   0.249158 0.001977 0.602701 -0.215581
C213  C     C_R   0.250216 0.502244 0.397207 -0.211929
C214  C     C_R   0.251650 0.501163 0.602676 -0.215857
C215  C     C_R   0.749549 0.501173 0.397611 -0.214459
C216  C     C_R   0.752885 0.503568 0.602662 -0.213235
C217  C     C_R   0.250272 0.002346 0.897203 -0.212187
C218  C     C_R   0.251509 0.001318 0.102680 -0.216095
C219  C     C_R   0.748720 0.001126 0.897505 -0.215979
C220  C     C_R   0.750623 0.002572 0.102697 -0.213944
C221  C     C_R   0.750303 0.502284 0.897209 -0.212724
C222  C     C_R   0.751666 0.501130 0.102681 -0.215738
C223  C     C_R   0.248603 0.501559 0.897365 -0.216256
C224  C     C_R   0.250084 0.502621 0.102803 -0.208930
C225  C     C_R   0.775578 0.032325 0.417649 0.282092
C226  C     C_R   0.789112 0.022553 0.582106 0.280051
C227  C     C_R   0.207346 0.019023 0.417767 0.276398
C228  C     C_R   0.218351 0.028812 0.582250 0.282911
C229  C     C_R   0.277137 0.531450 0.417698 0.278714
C230  C     C_R   0.286068 0.525152 0.582126 0.281192
C231  C     C_R   0.713377 0.523169 0.418519 0.277809
C232  C     C_R   0.730787 0.534781 0.582118 0.277413
C233  C     C_R   0.276431 0.032009 0.917572 0.280546
C234  C     C_R   0.286582 0.024796 0.082300 0.284454
C235  C     C_R   0.711810 0.022894 0.918107 0.278563
C236  C     C_R   0.725655 0.032586 0.082197 0.280292
C237  C     C_R   0.777163 0.531494 0.917629 0.281089
C238  C     C_R   0.787075 0.524273 0.082259 0.283831
C239  C     C_R   0.214464 0.525974 0.917598 0.284095
C240  C     C_R   0.227417 0.534228 0.082575 0.274273
C241  C     C_R   0.770576 0.034645 0.457579 0.374939
C242  C     C_R   0.793458 0.018074 0.542329 0.378217
C243  C     C_R   0.204283 0.014648 0.457661 0.371512
C244  C     C_R   0.224014 0.032506 0.542485 0.373745
C245  C     C_R   0.270933 0.534443 0.457452 0.368246
C246  C     C_R   0.291653 0.520094 0.542534 0.375655
C247  C     C_R   0.713090 0.521688 0.458749 0.379140
C248  C     C_R   0.740177 0.538547 0.542703 0.380414
C249  C     C_R   0.270621 0.034898 0.957373 0.368956
C250  C     C_R   0.291726 0.020284 0.042633 0.373872
C251  C     C_R   0.708928 0.019349 0.958085 0.376886
C252  C     C_R   0.732874 0.035911 0.042535 0.376839
C253  C     C_R   0.771231 0.534518 0.957404 0.369613
C254  C     C_R   0.792069 0.519693 0.042587 0.373830
C255  C     C_R   0.209233 0.522030 0.957338 0.374963
C256  C     C_R   0.232598 0.536352 0.042642 0.367309
C257  C     C_R   0.749748 0.003056 0.478487 -0.057088
C258  C     C_R   0.753282 0.000323 0.521364 -0.059046
C259  C     C_R   0.247312 0.000468 0.478583 -0.055006
C260  C     C_R   0.250732 0.003599 0.521508 -0.056375
C261  C     C_R   0.249025 0.503134 0.478449 -0.053350
C262  C     C_R   0.253149 0.500230 0.521430 -0.057077
C263  C     C_R   0.754419 0.504125 0.478855 -0.057365
C264  C     C_R   0.759421 0.506645 0.521685 -0.059938
C265  C     C_R   0.249354 0.003469 0.978439 -0.053722
C266  C     C_R   0.252987 0.000913 0.021413 -0.056746
C267  C     C_R   0.749864 0.001951 0.978759 -0.057828
C268  C     C_R   0.753788 0.004499 0.021586 -0.057960
C269  C     C_R   0.749206 0.503418 0.978443 -0.053770
C270  C     C_R   0.752969 0.500694 0.021412 -0.056339
C271  C     C_R   0.246725 0.501338 0.978613 -0.057653
C272  C     C_R   0.250070 0.503412 0.021565 -0.053510
O105  O     O_3   0.671334 0.772081 0.286463 -0.741573
H97   H     H_    0.655970 0.787897 0.307157 0.371466
O106  O     O_3   0.672927 0.771190 0.713717 -0.738910
H98   H     H_    0.661101 0.785429 0.690655 0.382879
O107  O     O_3   0.325574 0.771381 0.288498 -0.737347
H99   H     H_    0.338113 0.786031 0.311099 0.377366
O108  O     O_3   0.330485 0.773491 0.712912 -0.741220
H100  H     H_    0.339134 0.786898 0.688622 0.382913
O109  O     O_3   0.157823 0.272903 0.267657 -0.735437
H101  H     H_    0.139589 0.287424 0.288099 0.371787
O110  O     O_3   0.165891 0.272674 0.718375 -0.736973
H102  H     H_    0.154414 0.286353 0.694862 0.376455
O111  O     O_3   0.835066 0.272462 0.280737 -0.738636
H103  H     H_    0.847961 0.286633 0.303516 0.378714
O112  O     O_3   0.821879 0.270298 0.709732 -0.741777
H104  H     H_    0.839066 0.286031 0.689819 0.381946
O113  O     O_3   0.178372 0.771740 0.792658 -0.737437
H105  H     H_    0.169473 0.786410 0.816182 0.374262
O114  O     O_3   0.163542 0.772385 0.221011 -0.738550
H106  H     H_    0.149741 0.786709 0.198634 0.380518
O115  O     O_3   0.826364 0.773075 0.792025 -0.735847
H107  H     H_    0.833311 0.786858 0.816474 0.375632
O116  O     O_3   0.838206 0.771610 0.226797 -0.741042
H108  H     H_    0.855729 0.786295 0.206302 0.383788
O117  O     O_3   0.654885 0.272610 0.768434 -0.740457
H109  H     H_    0.635840 0.288642 0.787070 0.379404
O118  O     O_3   0.673380 0.271460 0.212624 -0.737926
H110  H     H_    0.660679 0.286125 0.190081 0.376568
O119  O     O_3   0.326958 0.271872 0.787630 -0.737570
H111  H     H_    0.338171 0.286065 0.810913 0.375129
O120  O     O_3   0.334534 0.271014 0.225410 -0.735008
H112  H     H_    0.353412 0.286191 0.205796 0.370044
O121  O     O_3   0.784837 0.068824 0.474660 -0.651261
H113  H     H_    0.763126 0.072815 0.497544 0.352978
O122  O     O_3   0.838264 0.030534 0.525533 -0.645371
H114  H     H_    0.845206 0.014026 0.502948 0.354930
O123  O     O_3   0.157773 0.023157 0.474508 -0.646710
H115  H     H_    0.153318 0.005869 0.496881 0.355583
O124  O     O_3   0.203827 0.065250 0.525803 -0.651743
H116  H     H_    0.224866 0.071863 0.503136 0.353355
O125  O     O_3   0.284858 0.569128 0.474000 -0.648836
H117  H     H_    0.261829 0.573823 0.496109 0.354247
O126  O     O_3   0.336481 0.533570 0.526302 -0.643216
H118  H     H_    0.345228 0.516505 0.504439 0.355836
O127  O     O_3   0.670529 0.536437 0.476970 -0.644165
H119  H     H_    0.663784 0.520590 0.500061 0.354387
O128  O     O_3   0.730016 0.573769 0.526037 -0.657335
H120  H     H_    0.751757 0.576442 0.502922 0.349777
O129  O     O_3   0.284509 0.069525 0.973923 -0.651318
H121  H     H_    0.261871 0.074044 0.996260 0.354489
O130  O     O_3   0.336337 0.033907 0.026315 -0.646062
H122  H     H_    0.344946 0.017068 0.004278 0.356063
O131  O     O_3   0.664617 0.032251 0.975409 -0.646310
H123  H     H_    0.657940 0.015852 0.998109 0.354758
O132  O     O_3   0.719595 0.070518 0.025759 -0.654583
H124  H     H_    0.741392 0.074409 0.002885 0.352053
O133  O     O_3   0.785766 0.568969 0.973950 -0.651242
H125  H     H_    0.763183 0.573769 0.996244 0.354463
O134  O     O_3   0.836905 0.532804 0.026238 -0.646588
H126  H     H_    0.845164 0.515843 0.004225 0.355762
O135  O     O_3   0.165907 0.537868 0.973790 -0.646028
H127  H     H_    0.156256 0.521823 0.996185 0.355711
O136  O     O_3   0.221886 0.571614 0.025851 -0.650907
H128  H     H_    0.244476 0.574550 0.003133 0.353328
O137  O     O_3   0.671544 0.851355 0.285812 -0.704633
H129  H     H_    0.682801 0.857901 0.312468 0.335459
O138  O     O_3   0.680939 0.849463 0.703892 -0.715395
H130  H     H_    0.701811 0.861931 0.683666 0.346955
O139  O     O_3   0.323146 0.850053 0.292505 -0.710454
H131  H     H_    0.306189 0.861818 0.315095 0.345405
O140  O     O_3   0.315496 0.850426 0.700134 -0.715520
H132  H     H_    0.292215 0.863288 0.681605 0.345896
O141  O     O_3   0.161409 0.351902 0.272888 -0.712843
H133  H     H_    0.168801 0.360354 0.299729 0.344379
O142  O     O_3   0.173892 0.350682 0.709508 -0.711613
H134  H     H_    0.191870 0.361288 0.686799 0.345041
O143  O     O_3   0.826928 0.350699 0.289813 -0.713899
H135  H     H_    0.809175 0.361212 0.312675 0.346384
O144  O     O_3   0.822925 0.349546 0.708045 -0.716644
H136  H     H_    0.808014 0.362483 0.685274 0.346550
O145  O     O_3   0.179400 0.850140 0.794776 -0.705781
H137  H     H_    0.198065 0.861729 0.816727 0.341299
O146  O     O_3   0.172191 0.850670 0.211048 -0.714626
H138  H     H_    0.189905 0.861042 0.188115 0.346914
O147  O     O_3   0.818927 0.851015 0.797683 -0.706648
H139  H     H_    0.798056 0.863073 0.818181 0.343417
O148  O     O_3   0.831844 0.850160 0.216268 -0.721174
H140  H     H_    0.816725 0.861766 0.192883 0.351618
O149  O     O_3   0.659972 0.352326 0.773607 -0.720632
H141  H     H_    0.669817 0.360547 0.799862 0.348254
O150  O     O_3   0.675894 0.350130 0.208478 -0.710682
H142  H     H_    0.692563 0.361522 0.185584 0.344230
O151  O     O_3   0.323440 0.350251 0.792389 -0.709365
H143  H     H_    0.306144 0.361717 0.814990 0.343728
O152  O     O_3   0.336878 0.350150 0.227269 -0.712093
H144  H     H_    0.331889 0.360115 0.200711 0.344640
N1    N     N_R   0.806038 0.061045 0.398641 0.253678
O153  O     O_R   0.853375 0.066511 0.409563 -0.297962
O154  O     O_R   0.783354 0.087055 0.377758 -0.360913
N2    N     N_R   0.822860 0.049455 0.600590 0.252049
O155  O     O_R   0.823644 0.084964 0.588876 -0.318572
O156  O     O_R   0.860549 0.036781 0.621641 -0.331916
N3    N     N_R   0.168597 0.042167 0.399028 0.256177
O157  O     O_R   0.161842 0.077752 0.409748 -0.314276
O158  O     O_R   0.134342 0.025572 0.377146 -0.343221
N4    N     N_R   0.180749 0.052577 0.600922 0.255522
O159  O     O_R   0.132679 0.048828 0.591535 -0.310446
O160  O     O_R   0.195162 0.083081 0.619681 -0.343270
N5    N     N_R   0.310568 0.558832 0.398993 0.255993
O161  O     O_R   0.358965 0.560755 0.409358 -0.304733
O162  O     O_R   0.290768 0.587037 0.378867 -0.353666
N6    N     N_R   0.316018 0.554900 0.600264 0.249584
O163  O     O_R   0.312142 0.590102 0.587732 -0.326195
O164  O     O_R   0.356437 0.545315 0.620300 -0.325140
N7    N     N_R   0.675152 0.546166 0.399818 0.253814
O165  O     O_R   0.671608 0.582607 0.407968 -0.310158
O166  O     O_R   0.637827 0.529533 0.381424 -0.342414
N8    N     N_R   0.697301 0.562253 0.600039 0.253028
O167  O     O_R   0.651143 0.566824 0.586519 -0.303025
O168  O     O_R   0.715602 0.587718 0.623749 -0.358036
N9    N     N_R   0.308554 0.059980 0.898603 0.256201
O169  O     O_R   0.356905 0.062775 0.908422 -0.305709
O170  O     O_R   0.287660 0.087560 0.878336 -0.355754
N10   N     N_R   0.317902 0.053204 0.100884 0.252352
O171  O     O_R   0.313833 0.089079 0.090399 -0.327995
O172  O     O_R   0.358248 0.042442 0.120088 -0.328254
N11   N     N_R   0.676197 0.048558 0.899547 0.254894
O173  O     O_R   0.675079 0.084574 0.909545 -0.317342
O174  O     O_R   0.638486 0.034375 0.879413 -0.337547
N12   N     N_R   0.692171 0.059762 0.100654 0.254818
O175  O     O_R   0.644768 0.062409 0.089206 -0.305456
O176  O     O_R   0.711135 0.086858 0.122164 -0.355818
N13   N     N_R   0.810249 0.558805 0.898763 0.256207
O177  O     O_R   0.858541 0.560620 0.908691 -0.306978
O178  O     O_R   0.790439 0.586856 0.878659 -0.354136
N14   N     N_R   0.818945 0.552357 0.100806 0.252454
O179  O     O_R   0.815806 0.588205 0.090125 -0.326508
O180  O     O_R   0.858874 0.541166 0.120250 -0.329783
N15   N     N_R   0.184158 0.554831 0.898738 0.252655
O181  O     O_R   0.190211 0.590759 0.908254 -0.328806
O182  O     O_R   0.142766 0.544703 0.880472 -0.326674
N16   N     N_R   0.199988 0.565105 0.101885 0.255058
O183  O     O_R   0.152076 0.573027 0.091946 -0.299521
O184  O     O_R   0.225564 0.589774 0.123534 -0.364756

loop_
_geom_bond_atom_site_label_1
_geom_bond_atom_site_label_2
_geom_bond_distance
_ccdc_geom_bond_type
Zn29  O101  1.933972 S    
O136  H128  0.992873 S    
Zn4   O4    1.954119 S    
C183  C263  1.406133 A    
Zn5   O5    1.953514 S    
O98   C10   1.281813 A    
C61   O117  1.381809 S    
O129  H121  0.990240 S    
C154  C156  1.470585 S    
C263  C264  1.498560 S    
C251  O131  1.381271 S    
C119  C135  1.398422 A    
O152  H144  0.995410 S    
C64   O120  1.383123 S    
C98   H2    1.077599 S    
C103  C143  1.411861 A    
C22   C223  1.472186 S    
C113  H17   1.083056 S    
C104  C144  1.409945 A    
C151  C167  1.340756 D    
O131  H123  0.990063 S    
C91   C139  1.496796 S    
C102  H6    1.078564 S    
C18   C219  1.474382 S    
N1    O154  1.302092 A    
C30   C215  1.478420 S    
C251  C267  1.422958 A    
C11   C168  1.447273 S    
C149  H37   1.086417 S    
C114  C130  1.398432 A    
C249  C265  1.429190 A    
C190  H78   1.076132 S    
O15   C7    1.279875 A    
O16   C8    1.279541 A    
O145  H137  0.991275 S    
C232  N8    1.438204 S    
C102  C118  1.387674 A    
N8    O167  1.303721 A    
C115  C131  1.398536 A    
O60   C44   1.285164 A    
C14   C161  1.447264 S    
C99   C139  1.412209 A    
C255  O135  1.383857 S    
O61   C45   1.284824 A    
C54   O110  1.380313 S    
C54   C70   1.403330 A    
C207  H95   1.081337 S    
O118  H110  0.992217 S    
C213  C229  1.426005 A    
C208  H96   1.095837 S    
Zn7   O70   1.945326 S    
O78   C22   1.294841 A    
Zn11  O83   1.948084 S    
O97   C9    1.282139 A    
Zn26  O98   1.932765 S    
C155  H43   1.086253 S    
C57   O113  1.379563 S    
Zn2   O2    1.951141 S    
C182  C198  1.387863 A    
O72   C45   1.286442 A    
C227  N3    1.447478 S    
N5    O162  1.310831 A    
C199  H87   1.082492 S    
Zn25  O49   1.945465 S    
N7    O166  1.301528 A    
C63   O119  1.379697 S    
C121  H25   1.083880 S    
C67   C83   1.411538 A    
C118  H22   1.083959 S    
N6    O163  1.303161 A    
C160  C176  1.341102 D    
O92   C4    1.282050 A    
C124  C129  1.400807 A    
Zn29  O37   1.947685 S    
O36   C28   1.274729 A    
Zn31  O55   1.945384 S    
C238  C254  1.396108 A    
C45   C85   1.477330 S    
O134  H126  0.990793 S    
C156  C172  1.341096 D    
O46   C38   1.281557 A    
C242  C258  1.418969 A    
O14   C6    1.279738 A    
Zn10  O82   1.948023 S    
C41   C81   1.481256 S    
C192  C208  1.385962 A    
O147  H139  0.991640 S    
C236  N12   1.439610 S    
C246  O126  1.383532 S    
C182  H70   1.077788 S    
Zn2   O74   1.948023 S    
C54   C94   1.415852 A    
C188  H76   1.081497 S    
C58   C91   1.414124 A    
C188  C204  1.388328 A    
C191  C271  1.410037 A    
C219  C235  1.420996 A    
O17   C9    1.279477 A    
C205  C221  1.400242 A    
C162  H50   1.079674 S    
C194  C210  1.396391 A    
C217  C233  1.425641 A    
C203  C219  1.399281 A    
C202  C218  1.395014 A    
N2    O156  1.303100 A    
O101  C13   1.282165 A    
C174  H62   1.079670 S    
O95   C7    1.281736 A    
O96   C8    1.282049 A    
C178  H66   1.078268 S    
O69   C48   1.289820 A    
Zn18  O90   1.932765 S    
Zn10  O59   1.945615 S    
N4    O160  1.300916 A    
C180  C196  1.386824 A    
C103  H7    1.079282 S    
N13   O177  1.309470 A    
C184  C264  1.406911 A    
N15   O181  1.301939 A    
C62   C78   1.403811 A    
O87   C31   1.294759 A    
Zn14  O63   1.945615 S    
C181  C261  1.417545 A    
O88   C32   1.292809 A    
C66   O138  1.374966 S    
C61   C96   1.413571 A    
O55   C38   1.280106 A    
O50   C35   1.283414 A    
O80   C24   1.292851 A    
C43   C83   1.482356 S    
C244  C260  1.425440 A    
C97   C137  1.411224 A    
C77   O149  1.373770 S    
Zn16  O13   1.932454 S    
C158  H46   1.086245 S    
O23   C15   1.279876 A    
C227  C243  1.399087 A    
O11   C3    1.279881 A    
C90   C138  1.498225 S    
C167  H55   1.079625 S    
Zn4   O17   1.932454 S    
Zn3   O75   1.948084 S    
C121  C132  1.396527 A    
C153  H41   1.086404 S    
Zn19  O3    1.954325 S    
C122  C131  1.398665 A    
C254  O134  1.381142 S    
Zn3   O66   1.945326 S    
O63   C47   1.284457 A    
O107  H99   0.992271 S    
Zn22  O46   1.945688 S    
C193  C209  1.399356 A    
C127  H31   1.083921 S    
C37   C131  1.456718 S    
C145  H33   1.086405 S    
C39   C129  1.460314 S    
C38   C132  1.453472 S    
Zn24  O32   1.947743 S    
C181  C197  1.386038 A    
O83   C27   1.294983 A    
O143  H135  0.991502 S    
C198  C214  1.397405 A    
O82   C26   1.293613 A    
Zn25  O4    1.951350 S    
O81   C25   1.293548 A    
C60   C76   1.407026 A    
Zn26  O3    1.953722 S    
C55   C95   1.414723 A    
O33   C25   1.273151 A    
Zn7   O7    1.951719 S    
C195  C211  1.401987 A    
C62   O118  1.380397 S    
Zn8   O8    1.954119 S    
N1    O153  1.307519 A    
O75   C19   1.294921 A    
C32   C213  1.469906 S    
C197  H85   1.089031 S    
C112  H16   1.082773 S    
Zn22  O6    1.953722 S    
O73   C17   1.292443 A    
C71   C87   1.412828 A    
C7    C172  1.447258 S    
C51   C67   1.403868 A    
N3    O157  1.304281 A    
C108  H12   1.079832 S    
O31   C23   1.273619 A    
O77   C21   1.292712 A    
N14   O179  1.303169 A    
C120  C136  1.402014 A    
Zn15  O62   1.945326 S    
C79   O151  1.374288 S    
O22   C14   1.279742 A    
C150  C166  1.340615 D    
O151  H143  0.991474 S    
Zn28  O52   1.945176 S    
C199  C215  1.399205 A    
C50   C66   1.404426 A    
C63   C79   1.402612 A    
C128  C133  1.403294 A    
C9    C166  1.447044 S    
Zn28  O36   1.947743 S    
Zn16  O88   1.946877 S    
C77   C88   1.413325 A    
C145  C147  1.470591 S    
C154  C170  1.340602 D    
C145  C161  1.340960 D    
C126  H30   1.083739 S    
O91   C3    1.281733 A    
N10   O171  1.303836 A    
C194  H82   1.081570 S    
C233  N9    1.445398 S    
O44   C36   1.280030 A    
C150  C152  1.470603 S    
C6    C169  1.447271 S    
C153  C169  1.340965 D    
C52   O108  1.380331 S    
C58   O114  1.381578 S    
O124  H116  0.989497 S    
O93   C5    1.282163 A    
Zn30  O102  1.932765 S    
Zn9   O4    1.953514 S    
Zn6   O6    1.951141 S    
O99   C11   1.281724 A    
Zn10  O3    1.951141 S    
C245  O125  1.384918 S    
Zn29  O53   1.945465 S    
C15   C164  1.447263 S    
C125  C136  1.401754 A    
C114  H18   1.083613 S    
Zn31  O39   1.946540 S    
C20   C217  1.470429 S    
C56   O112  1.381416 S    
O20   C12   1.279546 A    
C68   O140  1.375969 S    
O39   C31   1.273129 A    
O115  H107  0.993008 S    
O21   C13   1.279451 A    
O40   C32   1.273492 A    
C100  H4    1.077643 S    
Zn9   O60   1.945839 S    
C192  H80   1.096331 S    
Zn3   O18   1.933663 S    
Zn18  O26   1.946491 S    
N11   O174  1.305157 A    
C99   C115  1.388357 A    
C104  H8    1.081275 S    
Zn13  O64   1.945839 S    
Zn26  O34   1.946491 S    
C189  H77   1.082635 S    
O67   C42   1.283321 A    
C110  H14   1.079295 S    
C53   C69   1.405229 A    
Zn17  O41   1.945465 S    
C62   C95   1.415487 A    
O65   C44   1.286997 A    
N16   O184  1.322365 A    
Zn19  O27   1.946540 S    
C242  O122  1.379707 S    
C246  C262  1.423720 A    
C74   C83   1.413439 A    
C245  C261  1.431378 A    
Zn28  O100  1.933673 S    
Zn20  O4    1.951922 S    
O123  H115  0.990677 S    
C80   O152  1.378572 S    
C58   C74   1.405746 A    
C51   C91   1.414903 A    
O150  H142  0.991424 S    
C252  C268  1.422627 A    
Zn3   O3    1.951719 S    
C49   C89   1.417240 A    
C168  H56   1.079490 S    
C252  O132  1.381275 S    
O117  H109  0.989944 S    
C240  N16   1.455707 S    
C166  H54   1.079666 S    
C55   C71   1.404542 A    
Zn32  O5    1.951922 S    
C122  H26   1.083750 S    
C67   O139  1.373991 S    
Zn2   O67   1.945615 S    
C106  C139  1.411393 A    
C248  C264  1.420937 A    
C159  C175  1.340746 D    
Zn20  O28   1.947743 S    
C201  H89   1.088275 S    
O110  H102  0.992354 S    
C158  C174  1.340606 D    
C107  C123  1.388215 A    
C65   O137  1.371543 S    
C184  C200  1.389112 A    
C126  C135  1.398318 A    
N13   O178  1.306509 A    
C60   C89   1.416215 A    
C191  C207  1.388074 A    
C178  C258  1.409257 A    
C229  N5    1.447867 S    
N15   O182  1.302348 A    
C204  H92   1.084033 S    
Zn8   O21   1.932454 S    
C101  C117  1.390233 A    
C271  C272  1.498899 S    
C72   C88   1.413984 A    
C112  C141  1.414289 A    
C203  H91   1.083222 S    
C177  C257  1.409146 A    
Zn7   O22   1.933663 S    
C205  H93   1.086613 S    
C66   C82   1.411873 A    
Zn12  O1    1.954119 S    
C116  C132  1.397015 A    
C187  C267  1.409547 A    
C108  C137  1.409886 A    
C117  C133  1.403984 A    
C35   C133  1.463024 S    
C70   C86   1.411872 A    
Zn29  O8    1.951350 S    
C229  C245  1.397116 A    
C128  H32   1.085224 S    
Zn22  O94   1.932765 S    
Zn15  O87   1.948084 S    
Zn30  O7    1.953722 S    
C111  C127  1.387295 A    
N8    O168  1.300898 A    
Zn20  O92   1.933673 S    
C253  O133  1.382106 S    
C78   C87   1.411241 A    
C97   C113  1.387952 A    
O140  H132  0.992143 S    
C220  C236  1.421796 A    
O35   C27   1.273865 A    
C47   C87   1.481167 S    
O133  H125  0.989798 S    
Zn1   O73   1.946832 S    
O122  H114  0.990208 S    
Zn24  O96   1.933673 S    
C235  C251  1.398879 A    
C28   C209  1.471129 S    
Zn15  O14   1.933663 S    
N9    O170  1.308932 A    
O119  H111  0.992553 S    
C230  N6    1.442161 S    
C98   C138  1.413020 A    
O108  H100  0.991827 S    
Zn12  O84   1.946877 S    
C158  C160  1.470588 S    
O58   C42   1.286697 A    
C163  H51   1.079624 S    
N5    O161  1.316387 A    
C183  C199  1.390550 A    
O10   C2    1.279746 A    
C200  H88   1.083648 S    
Zn5   O24   1.932751 S    
O126  H118  0.991812 S    
Zn6   O23   1.933963 S    
N6    O164  1.307707 A    
C164  H52   1.079491 S    
C97   H1    1.079398 S    
Zn32  O40   1.947743 S    
C231  C247  1.401011 A    
Zn4   O76   1.946877 S    
O37   C29   1.276888 A    
C233  C249  1.397265 A    
C68   C84   1.412239 A    
C244  O124  1.381961 S    
C40   C130  1.452900 S    
O70   C47   1.285689 A    
C101  H5    1.083119 S    
O94   C6    1.281830 A    
C152  C168  1.341115 D    
Zn8   O80   1.946877 S    
O111  H103  0.991914 S    
C250  C266  1.421927 A    
C76   C81   1.414314 A    
C147  C163  1.340742 D    
C146  C148  1.470583 S    
C59   O115  1.379347 S    
C179  H67   1.083794 S    
O53   C40   1.281128 A    
C249  O129  1.382929 S    
O34   C26   1.273894 A    
Zn11  O10   1.933663 S    
O54   C39   1.280852 A    
C49   C65   1.405778 A    
C149  C151  1.470599 S    
C31   C214  1.471902 S    
C69   O141  1.379170 S    
C80   C85   1.411874 A    
Zn13  O8    1.953514 S    
O26   C18   1.276052 A    
O104  C16   1.282055 A    
Zn14  O7    1.951141 S    
C214  C230  1.421015 A    
C74   O146  1.374106 S    
O85   C29   1.290806 A    
O74   C18   1.294356 A    
O30   C22   1.273412 A    
N7    O165  1.301643 A    
O24   C16   1.279538 A    
Zn8   O69   1.945534 S    
O90   C2    1.281817 A    
Zn21  O29   1.947685 S    
C269  C270  1.501385 S    
C254  C270  1.421797 A    
Zn16  O5    1.954119 S    
C253  C269  1.427850 A    
O18   C10   1.279746 A    
Zn23  O31   1.946540 S    
C109  H13   1.080758 S    
O138  H130  0.991230 S    
Zn26  O50   1.945688 S    
C261  C262  1.502854 S    
O13   C5    1.279453 A    
C234  C250  1.396054 A    
Zn17  O1    1.951350 S    
Zn1   O68   1.945839 S    
Zn30  O38   1.946491 S    
C180  H68   1.079939 S    
C177  H65   1.082415 S    
C23   C222  1.471223 S    
C46   C86   1.479500 S    
C107  C138  1.413974 A    
C243  O123  1.382427 S    
C228  N4    1.439560 S    
O142  H134  0.991388 S    
C171  H59   1.079620 S    
O112  H104  0.991261 S    
C237  C253  1.397112 A    
C78   O150  1.374176 S    
C152  H40   1.086425 S    
Zn31  O103  1.932467 S    
C226  N2    1.437073 S    
Zn32  O104  1.933673 S    
C52   C92   1.418156 A    
O135  H127  0.991510 S    
O25   C17   1.274632 A    
C148  C164  1.341095 D    
C53   C93   1.417219 A    
O130  H122  0.990970 S    
C206  C222  1.395162 A    
C175  H63   1.079625 S    
O127  H119  0.990451 S    
C71   O143  1.374311 S    
C243  C259  1.426295 A    
C218  C234  1.418680 A    
C178  C194  1.388736 A    
C89   C137  1.497314 S    
O76   C20   1.292893 A    
C115  H19   1.083637 S    
O114  H106  0.991650 S    
Zn19  O91   1.932467 S    
O32   C24   1.272987 A    
Zn16  O61   1.945534 S    
C201  C217  1.402226 A    
Zn27  O35   1.946540 S    
C107  H11   1.078829 S    
Zn6   O71   1.945615 S    
C173  H61   1.079521 S    
C184  H72   1.080371 S    
C170  H58   1.079676 S    
Zn14  O15   1.933963 S    
C177  C193  1.387728 A    
C95   C143  1.496890 S    
Zn17  O89   1.933972 S    
C96   C144  1.496942 S    
C228  C244  1.397933 A    
C239  C255  1.396737 A    
C120  H24   1.082952 S    
C64   C93   1.418758 A    
O41   C33   1.280652 A    
C92   C140  1.502478 S    
C79   C86   1.410647 A    
C29   C216  1.476353 S    
C93   C141  1.495806 S    
C100  C140  1.414414 A    
Zn23  O95   1.932467 S    
N9    O169  1.312106 A    
C101  C141  1.412810 A    
C56   C96   1.413702 A    
C159  H47   1.086253 S    
Zn24  O8    1.951922 S    
O45   C37   1.280237 A    
C13   C162  1.447044 S    
C42   C82   1.480499 S    
C8    C171  1.447092 S    
C255  C271  1.422178 A    
C238  N14   1.436163 S    
C221  C237  1.424098 A    
N14   O180  1.302038 A    
Zn13  O85   1.946832 S    
N11   O173  1.300022 A    
N3    O158  1.308524 A    
C119  H23   1.083855 S    
C185  C201  1.385699 A    
C157  H45   1.086407 S    
C51   O107  1.380240 S    
C231  N7    1.434505 S    
C235  N11   1.441076 S    
C113  C129  1.399470 A    
Zn31  O6    1.954325 S    
C3    C176  1.447265 S    
C52   C68   1.401697 A    
C154  H42   1.086243 S    
Zn27  O51   1.945384 S    
Zn9   O81   1.946832 S    
C247  C263  1.423332 A    
C240  C256  1.398507 A    
C105  C121  1.385671 A    
Zn5   O77   1.946832 S    
O103  C15   1.281738 A    
N2    O155  1.300335 A    
Zn7   O79   1.948084 S    
C33   C135  1.456021 S    
Zn1   O20   1.932751 S    
C202  H90   1.081947 S    
C98   C114  1.386518 A    
Zn2   O19   1.933963 S    
Zn1   O1    1.953514 S    
C94   C142  1.498611 S    
C105  C140  1.414975 A    
Zn21  O5    1.951350 S    
C75   O147  1.375141 S    
N4    O159  1.304090 A    
C106  C122  1.388564 A    
C239  N15   1.436018 S    
C100  C116  1.388391 A    
C207  C223  1.395100 A    
C34   C136  1.466480 S    
O62   C46   1.284255 A    
C4    C175  1.447102 S    
C73   O145  1.374826 S    
O66   C43   1.284884 A    
C72   O144  1.373568 S    
C198  H86   1.083923 S    
C267  C268  1.496394 S    
Zn17  O25   1.947685 S    
C111  C142  1.413380 A    
Zn32  O56   1.945176 S    
C16   C163  1.447094 S    
C155  C171  1.340739 D    
C151  H39   1.086250 S    
O71   C46   1.285093 A    
Zn27  O99   1.932467 S    
C206  H94   1.082070 S    
C99   H3    1.079697 S    
O146  H138  0.991367 S    
N12   O176  1.300985 A    
Zn25  O97   1.933972 S    
O28   C20   1.272844 A    
O149  H141  0.990936 S    
C109  C144  1.409549 A    
C225  N1    1.439124 S    
O106  H98   0.991816 S    
C118  C134  1.397840 A    
C179  C195  1.389685 A    
C110  C143  1.412382 A    
C210  C226  1.420367 A    
C50   O106  1.381936 S    
Zn12  O9    1.932454 S    
C105  H9    1.077151 S    
C116  H20   1.083907 S    
C10   C165  1.447251 S    
C223  C239  1.419162 A    
C250  O130  1.381701 S    
C117  H21   1.085204 S    
C63   C94   1.416595 A    
O109  H101  0.994532 S    
O29   C21   1.272610 A    
O38   C30   1.278029 A    
C241  C257  1.426178 A    
Zn23  O7    1.954325 S    
C189  C205  1.385746 A    
O89   C1    1.282155 A    
O116  H108  0.990231 S    
O102  C14   1.281826 A    
O51   C34   1.284405 A    
C211  C227  1.424664 A    
C226  C242  1.397837 A    
Zn20  O44   1.945176 S    
C157  C159  1.470593 S    
C265  C266  1.500988 S    
O49   C36   1.279708 A    
C209  C225  1.423911 A    
C110  C126  1.387820 A    
C64   C80   1.405541 A    
C161  H49   1.079527 S    
Zn24  O48   1.945176 S    
C181  H69   1.084692 S    
C153  C155  1.470585 S    
O59   C43   1.285958 A    
C259  C260  1.500302 S    
C190  C206  1.387801 A    
C2    C173  1.447263 S    
C187  H75   1.081111 S    
C24   C221  1.470502 S    
C187  C203  1.390546 A    
C176  H64   1.079491 S    
O113  H105  0.992477 S    
C106  H10   1.079435 S    
C237  N13   1.443350 S    
C123  C130  1.396586 A    
C53   O109  1.382708 S    
C21   C224  1.470092 S    
C186  C202  1.387809 A    
Zn5   O72   1.945839 S    
Zn18  O42   1.945688 S    
C19   C218  1.471177 S    
Zn6   O78   1.948023 S    
C76   O148  1.372985 S    
O139  H131  0.991387 S    
C17   C220  1.472231 S    
O86   C30   1.291855 A    
O64   C48   1.286910 A    
O68   C41   1.285647 A    
C124  H28   1.082333 S    
C188  C268  1.408780 A    
C197  C213  1.403251 A    
C148  H36   1.086424 S    
Zn27  O2    1.954325 S    
C112  C128  1.389635 A    
C49   O105  1.378642 S    
O100  C12   1.282054 A    
O47   C39   1.283684 A    
Zn12  O57   1.945534 S    
Zn25  O33   1.947685 S    
O48   C40   1.277508 A    
O52   C33   1.279861 A    
C149  C165  1.340963 D    
O128  H120  0.990117 S    
O27   C19   1.273500 A    
C147  H35   1.086254 S    
C160  H48   1.086425 S    
Zn14  O86   1.948023 S    
O121  H113  0.988437 S    
C196  H84   1.083812 S    
C212  C228  1.422157 A    
O56   C37   1.280648 A    
C256  C272  1.434871 A    
C180  C260  1.410919 A    
C156  H44   1.086427 S    
Zn15  O6    1.951719 S    
C59   C75   1.401214 A    
C195  H83   1.087062 S    
Zn22  O30   1.946491 S    
C146  H34   1.086243 S    
C216  C232  1.421400 A    
C57   C73   1.402221 A    
O132  H124  0.989054 S    
C50   C90   1.416101 A    
O19   C11   1.279893 A    
O120  H112  0.994601 S    
C256  O136  1.386376 S    
C192  C272  1.424912 A    
O125  H117  0.991224 S    
C248  O128  1.380465 S    
C123  H27   1.083044 S    
C215  C231  1.417700 A    
C182  C262  1.412724 A    
C165  H53   1.079524 S    
Zn18  O2    1.953722 S    
C27   C210  1.473994 S    
C179  C259  1.414494 A    
C55   O111  1.381029 S    
C225  C241  1.398325 A    
C36   C134  1.454626 S    
C56   C72   1.406997 A    
C25   C212  1.471660 S    
O57   C41   1.288114 A    
C150  H38   1.086253 S    
O43   C35   1.283480 A    
C26   C211  1.472762 S    
C44   C84   1.479013 S    
Zn30  O54   1.945688 S    
C234  N10   1.436193 S    
Zn21  O45   1.945465 S    
C157  C173  1.340966 D    
C146  C162  1.340599 D    
C60   O116  1.381390 S    
C108  C124  1.387765 A    
C257  C258  1.497851 S    
O9    C1    1.279463 A    
C48   C88   1.488600 S    
O105  H97   0.991505 S    
Zn9   O12   1.932751 S    
C208  C224  1.411888 A    
C59   C90   1.415655 A    
C196  C212  1.397249 A    
Zn10  O11   1.933963 S    
C73   C84   1.409716 A    
C185  H73   1.085134 S    
C5    C170  1.447049 S    
O84   C28   1.292881 A    
Zn11  O2    1.951719 S    
C57   C92   1.419722 A    
O79   C23   1.294670 A    
C183  H71   1.078706 S    
Zn28  O1    1.951922 S    
Zn13  O16   1.932751 S    
C109  C125  1.391249 A    
C204  C220  1.399683 A    
C193  H81   1.086529 S    
N16   O183  1.327251 A    
C1    C174  1.447046 S    
C232  C248  1.400047 A    
C111  H15   1.078579 S    
N10   O172  1.302132 A    
C103  C119  1.388596 A    
C104  C120  1.392558 A    
Zn19  O43   1.945384 S    
C200  C216  1.401903 A    
C65   C81   1.409788 A    
O144  H136  0.990412 S    
C186  C266  1.411016 A    
Zn11  O58   1.945326 S    
O137  H129  0.998983 S    
C185  C265  1.416810 A    
C230  C246  1.396900 A    
C191  H79   1.077193 S    
C247  O127  1.380024 S    
C69   C85   1.413769 A    
C224  C240  1.432496 A    
C190  C270  1.411032 A    
O12   C4    1.279546 A    
C70   O142  1.374422 S    
C75   C82   1.412893 A    
C241  O121  1.379879 S    
C12   C167  1.447110 S    
O42   C34   1.283590 A    
O148  H140  0.989915 S    
C236  C252  1.398274 A    
C61   C77   1.411680 A    
C125  H29   1.083076 S    
C102  C142  1.412841 A    
C172  H60   1.079495 S    
O141  H133  0.997804 S    
C169  H57   1.079527 S    
C127  C134  1.397727 A    
C186  H74   1.076253 S    
Zn23  O47   1.945384 S    
N12   O175  1.303863 A    
Zn4   O65   1.945534 S    
Zn21  O93   1.933972 S    
C189  C269  1.414826 A    
C222  C238  1.418477 A    
