data_mof_unit_9251.cif
_audit_creation_date              2012-12-11T15:23:58-0500
_audit_creation_method            fapswitch 2.2
_symmetry_space_group_name_H-M    P1
_symmetry_Int_Tables_number       1
_space_group_crystal_system       triclinic
_cell_length_a                    8.469281
_cell_length_b                    14.594072
_cell_length_c                    19.015267
_cell_angle_alpha                 92.829733
_cell_angle_beta                  94.12146
_cell_angle_gamma                 91.707865
_cell_volume                      2340.06264582

loop_
_atom_site_label
_atom_site_type_symbol
_atom_type_description
_atom_site_fract_x
_atom_site_fract_y
_atom_site_fract_z
_atom_type_partial_charge
Ba1   Ba    Ba6+2 0.150350 0.545800 0.464500 1.714586
Ba2   Ba    Ba6+2 0.659830 0.454190 0.535450 1.677516
C1    C     C_3   0.423984 0.903195 0.232310 -0.149793
C2    C     C_3   0.395298 0.812186 0.268397 0.353584
C3    C     C_3   0.554554 0.739802 0.641996 0.300882
C4    C     C_3   0.618303 0.830984 0.679243 -0.193196
C5    C     C_3   0.929523 0.195779 0.714772 0.279822
C6    C     C_3   0.977766 0.123114 0.767821 -0.034501
C7    C     C_3   0.456263 0.202345 0.743330 0.381929
C8    C     C_3   0.486415 0.125020 0.795390 0.015042
C9    C     C_R   0.003275 0.942234 0.540827 -0.010808
C10   C     C_R   0.825207 0.804502 0.499251 0.074476
C11   C     C_R   0.687167 0.773951 0.458593 -0.061879
C12   C     C_3   0.861048 0.791004 0.251315 0.394018
C13   C     C_R   0.569155 0.834976 0.438462 -0.007816
C14   C     C_R   0.599239 0.929045 0.450390 -0.122420
C15   C     C_R   0.752480 0.963530 0.475876 -0.025219
C16   C     C_R   0.861604 0.902483 0.506858 -0.037936
C17   C     C_R   0.937319 0.098816 0.503203 -0.031043
C18   C     C_R   0.039711 0.038541 0.540568 0.030502
C19   C     C_R   0.979378 0.197332 0.505550 -0.001505
C20   C     C_R   0.119788 0.228530 0.543427 -0.293805
C21   C     C_R   0.225727 0.167635 0.572971 0.048686
C22   C     C_R   0.184433 0.073997 0.573474 -0.127881
C23   C     C_3   0.909346 0.871774 0.207527 -0.227700
C24   C     C_R   0.799788 0.056478 0.466056 -0.011824
C25   C     C_R   0.602836 0.536511 0.296577 -0.236877
C26   C     C_R   0.462305 0.487179 0.276293 0.046013
C27   C     C_R   0.408508 0.479469 0.205011 0.003980
C28   C     C_R   0.494244 0.522842 0.154492 0.053605
C29   C     C_R   0.637533 0.571605 0.175693 -0.156961
C30   C     C_R   0.693672 0.577308 0.247052 -0.021735
C31   C     C_R   0.385823 0.584823 0.041660 -0.052821
C32   C     C_R   0.332512 0.573752 0.970196 0.120865
C33   C     C_R   0.337458 0.486674 0.934177 0.070497
C34   C     C_3   0.808276 0.283123 0.304801 0.183888
C35   C     C_R   0.388446 0.410889 0.972203 0.141376
C36   C     C_R   0.439006 0.422599 0.044705 0.100730
C37   C     C_R   0.439888 0.510122 0.078947 0.007462
C38   C     C_R   0.149043 0.432111 0.830742 0.061193
C39   C     C_R   0.108190 0.422484 0.757751 0.036630
C40   C     C_R   0.347012 0.509067 0.734546 -0.050639
C41   C     C_R   0.397340 0.513129 0.807433 -0.136484
C42   C     C_R   0.295880 0.475461 0.856264 0.007200
C43   C     C_R   0.208031 0.459822 0.710552 -0.293528
C44   C     C_3   0.862197 0.231945 0.237059 -0.233481
C45   C     C_3   0.043960 0.682369 0.677753 0.387954
C46   C     C_3   0.123233 0.735885 0.744264 -0.078680
C47   C     C_3   0.287684 0.274221 0.395678 0.252966
C48   C     C_3   0.251084 0.172560 0.381679 -0.276745
H1    H     H_    0.839649 0.156837 0.239375 0.196440
H2    H     H_    0.791453 0.253876 0.189562 0.039537
H3    H     H_    0.137651 0.651149 0.647388 0.045871
H4    H     H_    0.221352 0.695816 0.767631 0.063194
H5    H     H_    0.036815 0.744286 0.785300 0.114707
H6    H     H_    0.184652 0.308026 0.416397 0.046468
H7    H     H_    0.390115 0.282848 0.435595 0.052885
H8    H     H_    0.313146 0.942215 0.229430 0.179291
H9    H     H_    0.251670 0.137681 0.431845 0.050872
H10   H     H_    0.134077 0.159678 0.352741 0.181028
H11   H     H_    0.342008 0.143615 0.348759 0.207818
H12   H     H_    0.512251 0.786901 0.287844 -0.118196
H13   H     H_    0.657598 0.699005 0.628985 0.072111
H14   H     H_    0.698039 0.866097 0.644313 0.101676
H15   H     H_    0.518972 0.877037 0.688501 0.088676
H16   H     H_    0.515623 0.945741 0.265021 0.150487
H17   H     H_    0.822959 0.927176 0.212081 0.055774
H18   H     H_    0.031854 0.220662 0.688588 -0.047058
H19   H     H_    0.872305 0.083921 0.783151 0.137283
H20   H     H_    0.033436 0.158496 0.816901 0.100014
H21   H     H_    0.615852 0.115046 0.802607 0.111319
H22   H     H_    0.431738 0.059129 0.771832 0.106724
H23   H     H_    0.268320 0.028183 0.597665 0.074777
H24   H     H_    0.154647 0.300560 0.544347 0.051457
H25   H     H_    0.087324 0.898625 0.567198 0.073517
H26   H     H_    0.383594 0.651966 0.068476 0.100048
H27   H     H_    0.740949 0.765397 0.230814 -0.071478
H28   H     H_    0.300611 0.439924 0.188816 0.066733
H29   H     H_    0.708286 0.600870 0.136634 0.071385
H30   H     H_    0.170954 0.456117 0.654776 0.079639
H31   H     H_    0.649086 0.534898 0.350748 0.100836
H32   H     H_    0.027437 0.900554 0.228423 0.141499
O1    O     O_2   0.108370 0.727470 0.525290 -0.474690
O2    O     O_3   0.323846 0.310338 0.331813 -0.602206
O3    O     O_3   0.971117 0.721666 0.244121 -0.560439
O4    O     O_2   0.701930 0.272470 0.474700 -0.516404
O5    O     O_3   0.944970 0.388780 0.468720 -0.421672
O6    O     O_3   0.463940 0.328280 0.598320 -0.491276
O7    O     O_3   0.898510 0.251006 0.363541 -0.649436
O8    O     O_3   0.372010 0.546630 0.581240 -0.483951
O9    O     O_3   0.877070 0.374860 0.631520 -0.503111
O10   O     O_2   0.786008 0.440091 0.752211 -0.429777
O11   O     O_3   0.857146 0.267417 0.751684 -0.601591
O12   O     O_3   0.865330 0.611210 0.531230 -0.443812
O13   O     O_3   0.438280 0.453360 0.418700 -0.513917
O14   O     O_2   0.627420 0.543410 0.667830 -0.460777
O15   O     O_3   0.454977 0.693612 0.686250 -0.669096
O16   O     O_2   0.535054 0.169405 0.544230 -0.506594
O17   O     O_3   0.512435 0.167489 0.678934 -0.600263
O18   O     O_3   0.346360 0.671710 0.401620 -0.462081
O19   O     O_2   0.248569 0.828795 0.453572 -0.465673
O20   O     O_3   0.953973 0.742902 0.637652 -0.666162
O21   O     O_3   0.292758 0.829286 0.322358 -0.548758
O22   O     O_2   0.182890 0.456530 0.332150 -0.396488
O23   O     O_3   0.933230 0.625130 0.368420 -0.393188
O24   O     O_2   0.014869 0.548654 0.248523 -0.419429
P1    P     P_3+3 0.937730 0.712710 0.546710 1.004621
P2    P     P_3+3 0.357970 0.428340 0.344000 1.006881
P3    P     P_3+3 0.898653 0.619347 0.276106 1.088823
P4    P     P_3+3 0.872570 0.287280 0.453240 0.994206
P5    P     P_3+3 0.910668 0.376092 0.723011 1.000507
P6    P     P_3+3 0.368610 0.790577 0.403442 1.047891
P7    P     P_3+3 0.449830 0.573780 0.668579 0.904143
P8    P     P_3+3 0.429461 0.209867 0.599915 0.933055
C49   C     C_2   0.316384 0.739723 0.217957 0.516169
H33   H     H_    0.272971 0.755109 0.164945 0.055663
O25   O     O_2   0.294704 0.662535 0.237582 -0.572769
C50   C     C_2   0.034048 0.249515 0.225245 0.538555
H34   H     H_    0.080499 0.319208 0.222465 0.007132
O26   O     O_2   0.121521 0.185557 0.216710 -0.538357
N1    N     N_3   0.938307 0.610398 0.699885 -0.449479
H35   H     H_    0.994120 0.580035 0.742923 0.106336
H36   H     H_    0.842128 0.642223 0.720885 0.171939
N2    N     N_3   0.184478 0.826802 0.729166 -0.471996
H37   H     H_    0.246401 0.821610 0.683940 0.186928
H38   H     H_    0.088081 0.867681 0.717515 0.224579
N3    N     N_3   0.474186 0.888975 0.160732 -0.513115
H39   H     H_    0.505285 0.953127 0.142702 0.222306
H40   H     H_    0.576172 0.850790 0.162627 0.140138
N4    N     N_3   0.466213 0.760895 0.576354 -0.541692
H41   H     H_    0.419075 0.700622 0.550629 0.212768
H42   H     H_    0.371508 0.802098 0.587171 0.178929
C51   C     C_2   0.707044 0.818419 0.748998 0.524067
H43   H     H_    0.684827 0.758380 0.778558 -0.007745
O27   O     O_2   0.799789 0.878562 0.774853 -0.586090
C52   C     C_2   0.820765 0.156604 0.654758 0.519858
H44   H     H_    0.784121 0.201596 0.613728 0.051983
O28   O     O_2   0.775208 0.076102 0.650189 -0.595031
N5    N     N_3   0.090203 0.060030 0.739095 -0.507412
H45   H     H_    0.127840 0.017633 0.779303 0.197455
H46   H     H_    0.030737 0.017492 0.699431 0.215719
N6    N     N_3   0.288470 0.220678 0.736663 -0.499817
H47   H     H_    0.271459 0.277001 0.705507 0.076703
H48   H     H_    0.253444 0.243960 0.785868 0.160674
C53   C     C_2   0.543345 0.290961 0.768048 0.589398
H49   H     H_    0.538810 0.347766 0.733615 0.006951
O29   O     O_2   0.612704 0.301541 0.826541 -0.537783
N7    N     N_3   0.425759 0.144804 0.864312 -0.498472
H50   H     H_    0.482380 0.102462 0.900344 0.191193
H51   H     H_    0.305839 0.124963 0.861591 0.181833
N8    N     N_3   0.858045 0.821659 0.325611 -0.494121
H52   H     H_    0.779341 0.875203 0.329306 0.159292
H53   H     H_    0.970387 0.847796 0.344357 0.226943
N9    N     N_3   0.669512 0.679583 0.436491 -0.449335
H54   H     H_    0.586767 0.647353 0.465869 0.190766
H55   H     H_    0.632691 0.677373 0.383035 0.134025
C54   C     C_2   0.465310 0.990483 0.442035 0.456958
H56   H     H_    0.433295 0.032546 0.486392 0.027854
O30   O     O_2   0.388216 0.992443 0.385634 -0.596203
C55   C     C_2   0.732007 0.093865 0.400942 0.529606
H57   H     H_    0.629494 0.135910 0.402003 0.010197
O31   O     O_2   0.780702 0.068876 0.344529 -0.598615
C56   C     C_2   0.554789 0.556412 0.831515 0.573457
H58   H     H_    0.609560 0.606866 0.800508 -0.029348
O32   O     O_2   0.628254 0.534176 0.885258 -0.560200
N10   N     N_3   0.271428 0.651722 0.935636 -0.472492
H59   H     H_    0.342947 0.667357 0.895099 0.167106
H60   H     H_    0.157372 0.634411 0.913283 0.173821
N11   N     N_3   0.390193 0.322283 0.936702 -0.474978
H61   H     H_    0.504389 0.297786 0.944216 0.248477
H62   H     H_    0.313483 0.278024 0.960594 0.162566
N12   N     N_3   0.493400 0.346480 0.083840 -0.500607
H63   H     H_    0.403204 0.295722 0.081273 0.196531
H64   H     H_    0.592085 0.319807 0.061109 0.186727
N13   N     N_3   0.036337 0.402101 0.878296 -0.440323
H65   H     H_    0.012024 0.457626 0.912233 0.191785
H66   H     H_    0.085130 0.350569 0.908231 0.180716
C57   C     C_2   0.914069 0.842203 0.130978 0.538363
H67   H     H_    0.809474 0.811077 0.101936 -0.018881
O33   O     O_2   0.035217 0.852998 0.100848 -0.551190
C58   C     C_2   0.636726 0.263579 0.310624 0.450336
H68   H     H_    0.588064 0.289261 0.357692 -0.008242
O34   O     O_2   0.553812 0.219025 0.265068 -0.555812
C59   C     C_2   0.833459 0.383101 0.296391 0.387249
H69   H     H_    0.810108 0.409856 0.244625 -0.073252
O35   O     O_2   0.877513 0.435056 0.346124 -0.521490

loop_
_geom_bond_atom_site_label_1
_geom_bond_atom_site_label_2
_ccdc_geom_bond_type
C34   O7    S    
Ba1   O5    S    
C46   H5    S    
C9    C16   A    
Ba1   O8    S    
C2    H12   S    
N11   H61   S    
C2    C49   S    
C56   H58   S    
C23   H17   S    
O17   P8    S    
C57   H67   S    
C5    C6    S    
N13   H66   S    
O5    P4    S    
C58   H68   S    
O19   P6    D    
C46   H4    S    
C44   C50   S    
C6    H19   S    
C31   C37   A    
C6    N5    S    
C15   C24   A    
C47   O2    S    
Ba2   O13   S    
C56   O32   D    
C35   C36   A    
N7    H51   S    
C32   C33   A    
C4    C51   S    
O3    P3    S    
C35   N11   S    
C3    C4    S    
C1    N3    S    
C22   H23   S    
C45   N1    S    
O9    P5    S    
C49   H33   S    
C2    O21   S    
C44   H2    S    
C47   H7    S    
C59   H69   S    
C3    H13   S    
Ba1   Ba2   S    
O8    P7    S    
C4    H14   S    
Ba2   O8    S    
C17   C24   A    
C50   H34   S    
C40   P7    S    
C5    H18   S    
C54   H56   S    
Ba2   P4    S    
C27   H28   S    
C17   C18   A    
C59   O35   D    
C14   C15   A    
C49   O25   D    
C12   N8    S    
C21   C22   A    
C24   C55   S    
C34   C59   S    
C7    C8    S    
N9    H55   S    
C45   H3    S    
C8    H21   S    
C14   C54   S    
N8    H52   S    
C54   O30   D    
C45   O20   S    
C19   C20   A    
N10   H60   S    
N11   H62   S    
N10   H59   S    
C29   H29   S    
Ba1   O18   S    
C53   O29   D    
N12   H64   S    
C53   H49   S    
C58   O34   D    
C5    O11   S    
N5    H45   S    
C9    C18   A    
C30   P3    S    
C18   C22   A    
Ba2   O12   S    
C31   C32   A    
N7    H50   S    
C52   O28   D    
C12   H27   S    
C23   C57   S    
Ba1   O12   S    
O4    P4    D    
C44   H1    S    
O21   P6    S    
C40   C43   A    
C55   O31   D    
N4    H42   S    
C41   C42   A    
N3    H40   S    
C27   C28   A    
C4    H15   S    
C38   N13   S    
C51   H43   S    
C31   H26   S    
C45   C46   S    
C25   H31   S    
C28   C29   A    
Ba1   O13   S    
C10   C16   A    
C15   C16   A    
N9    H54   S    
O20   P1    S    
Ba2   O6    S    
C33   C42   S    
Ba1   O22   S    
N1    H35   S    
O11   P5    S    
C38   C39   A    
Ba1   P1    S    
O18   P6    S    
O12   P1    S    
C11   C13   A    
C8    H22   S    
C23   H32   S    
N6    H48   S    
O14   P7    D    
C1    H16   S    
C40   C41   A    
C48   H9    S    
O15   P7    S    
C1    C2    S    
O22   P2    D    
Ba2   O5    S    
N12   H63   S    
C33   C35   A    
N2    H38   S    
O23   P3    S    
C26   C27   A    
C39   C43   A    
C17   C19   A    
C25   C30   A    
C20   C21   A    
C13   P6    S    
C29   C30   A    
C12   O3    S    
C3    O15   S    
C52   H44   S    
C46   N2    S    
C10   P1    S    
C57   O33   D    
C7    N6    S    
O10   P5    D    
C36   N12   S    
Ba1   O1    S    
C47   H6    S    
C6    H20   S    
C48   H10   S    
C55   H57   S    
Ba2   O14   S    
N4    H41   S    
C5    C52   S    
N13   H65   S    
C9    H25   S    
C21   P8    S    
C34   C44   S    
N5    H46   S    
C36   C37   A    
C26   P2    S    
C13   C14   A    
O7    P4    S    
C7    C53   S    
O2    P2    S    
O1    P1    D    
C28   C37   S    
Ba2   O4    S    
C43   H30   S    
N8    H53   S    
C12   C23   S    
O6    P8    S    
Ba2   O9    S    
C50   O26   D    
C11   N9    S    
N1    H36   S    
O16   P8    D    
O13   P2    S    
Ba1   P2    S    
C1    H8    S    
C3    N4    S    
C38   C42   A    
C10   C11   A    
C7    O17   S    
C47   C48   S    
C39   P5    S    
Ba1   O23   S    
C25   C26   A    
C51   O27   D    
C48   H11   S    
C20   H24   S    
N6    H47   S    
C19   P4    S    
C34   C58   S    
C32   N10   S    
N3    H39   S    
C8    N7    S    
N2    H37   S    
O24   P3    D    
C41   C56   S    
