data_mof_unit_42655.cif
_audit_creation_date              2013-03-05T15:45:30-0500
_audit_creation_method            fapswitch 2.2
_symmetry_space_group_name_H-M    P1
_symmetry_Int_Tables_number       1
_space_group_crystal_system       triclinic
_cell_length_a                    20.713503
_cell_length_b                    7.098674
_cell_length_c                    20.337712
_cell_angle_alpha                 90.001579
_cell_angle_beta                  101.7318
_cell_angle_gamma                 89.999338
_cell_volume                      2927.95509244

loop_
_atom_site_label
_atom_site_type_symbol
_atom_site_description
_atom_site_fract_x
_atom_site_fract_y
_atom_site_fract_z
_atom_type_partial_charge
O1    O     O_R   0.423690 0.494470 0.435930 -0.583068
O2    O     O_R   0.576310 0.994470 0.564070 -0.583073
O3    O     O_R   0.556070 0.822310 0.435760 -0.568876
O4    O     O_R   0.443930 0.322310 0.564240 -0.568858
C1    C     C_R   0.575327 0.655338 0.420453 0.971885
C2    C     C_R   0.424673 0.155345 0.579548 0.971887
O5    O     O_R   0.422940 0.824080 0.428040 -0.588536
O6    O     O_R   0.577060 0.324080 0.571960 -0.588537
O7    O     O_R   0.442240 0.995960 0.556300 -0.579391
O8    O     O_R   0.557760 0.495960 0.443700 -0.579395
C3    C     C_R   0.397752 0.656598 0.411520 0.993904
C4    C     C_R   0.602249 0.156599 0.588480 0.993894
O9    O     O_3   0.506490 0.661310 0.542090 -0.271496
O10   O     O_3   0.493510 0.161310 0.457910 -0.271504
V1    V     V_3+5 0.498800 0.935560 0.492190 1.270243
V2    V     V_3+5 0.501200 0.435560 0.507810 1.270261
C5    C     C_R   0.836998 0.076893 0.857870 -0.170751
C6    C     C_R   0.163002 0.576897 0.142128 -0.170728
C7    C     C_R   0.664686 0.155660 0.640473 -0.218508
C8    C     C_R   0.335314 0.655655 0.359527 -0.218508
C9    C     C_R   0.766791 0.310932 0.695635 -0.130915
C10   C     C_R   0.233208 0.810927 0.304369 -0.130925
C11   C     C_R   0.714305 0.293605 0.640057 -0.052415
C12   C     C_R   0.285695 0.793597 0.359947 -0.052428
C13   C     C_R   0.672111 0.029101 0.694754 -0.119658
C14   C     C_R   0.327890 0.529100 0.305243 -0.119653
C15   C     C_R   0.727131 0.039560 0.749010 0.029568
C16   C     C_R   0.272870 0.539561 0.250987 0.029571
C17   C     C_R   0.773528 0.187053 0.750133 0.169916
C18   C     C_R   0.226472 0.687052 0.249868 0.169926
C19   C     C_R   0.827397 0.206287 0.804739 -0.214259
C20   C     C_R   0.172602 0.706288 0.195263 -0.214272
C21   C     C_R   0.790959 0.930723 0.856608 -0.233116
C22   C     C_R   0.209043 0.430730 0.143387 -0.233128
C23   C     C_R   0.736544 0.909666 0.803091 0.335481
C24   C     C_R   0.263458 0.409672 0.196902 0.335491
H1    H     H_    0.863343 0.317228 0.804548 0.140446
H2    H     H_    0.136656 0.817226 0.195457 0.140447
H3    H     H_    0.798474 0.828088 0.896903 0.173892
H4    H     H_    0.201529 0.328097 0.103089 0.173842
H5    H     H_    0.803891 0.418712 0.695507 0.147161
H6    H     H_    0.196107 0.918705 0.304501 0.147167
H7    H     H_    0.633281 0.927656 0.695293 0.175553
H8    H     H_    0.366721 0.427656 0.304702 0.175554
C25   C     C_3   0.271911 0.221383 0.825168 -0.493236
C26   C     C_3   0.728023 0.721263 0.174788 -0.493240
C27   C     C_3   0.231329 0.902890 0.775751 0.164559
C28   C     C_3   0.768673 0.402896 0.224234 0.164500
C29   C     C_3   0.273894 0.913830 0.719619 -0.409787
C30   C     C_3   0.726145 0.413810 0.280399 -0.409738
H9    H     H_    0.265735 0.851879 0.821557 0.160174
H10   H     H_    0.734250 0.351876 0.178438 0.159856
H11   H     H_    0.320956 0.840660 0.740571 0.183553
H12   H     H_    0.679099 0.340506 0.259492 0.183508
C31   C     C_1   0.379443 0.146230 0.625263 -0.152871
C32   C     C_1   0.620558 0.646198 0.374739 -0.152883
C33   C     C_3   0.208621 0.104450 0.792924 0.077759
C34   C     C_3   0.791350 0.604472 0.207044 0.077738
C35   C     C_3   0.323802 0.215641 0.777942 0.145216
C36   C     C_3   0.676152 0.715468 0.222042 0.145423
C37   C     C_3   0.292271 0.125112 0.707929 -0.016723
C38   C     C_3   0.707720 0.625072 0.292062 -0.016875
C39   C     C_3   0.227930 0.244477 0.681386 -0.279211
C40   C     C_3   0.772032 0.744575 0.318573 -0.279258
C41   C     C_3   0.176212 0.204967 0.726070 -0.393933
C42   C     C_3   0.823747 0.705068 0.273887 -0.393996
C43   C     C_1   0.340600 0.137366 0.662583 0.099222
C44   C     C_1   0.659399 0.637311 0.337417 0.099189
C45   C     C_1   0.160201 0.096516 0.838315 0.143762
C46   C     C_1   0.839780 0.596559 0.161664 0.144345
C47   C     C_1   0.121343 0.089072 0.875675 -0.192877
C48   C     C_1   0.878647 0.589099 0.124314 -0.192657
H13   H     H_    0.153934 0.340683 0.737062 0.221950
H14   H     H_    0.846013 0.840785 0.262885 0.222016
H15   H     H_    0.134480 0.119904 0.698970 0.262476
H16   H     H_    0.865486 0.620036 0.300994 0.262493
H17   H     H_    0.241550 0.395373 0.689422 0.148122
H18   H     H_    0.758378 0.895440 0.310509 0.148118
H19   H     H_    0.255456 0.370054 0.826253 0.185832
H20   H     H_    0.744427 0.869972 0.173657 0.185645
H21   H     H_    0.335219 0.365488 0.768142 0.126323
H22   H     H_    0.664702 0.865306 0.231821 0.126273
O11   O     O_R   0.942280 0.741210 0.056360 -0.587530
O12   O     O_R   0.057720 0.241210 0.943640 -0.587532
O13   O     O_R   0.077070 0.409690 0.071960 -0.597678
O14   O     O_R   0.922930 0.909690 0.928040 -0.597673
C49   C     C_R   0.101838 0.577400 0.088933 0.961504
C50   C     C_R   0.898162 0.077399 0.911066 0.961527
O15   O     O_R   0.943940 0.411580 0.064250 -0.569796
O16   O     O_R   0.056060 0.911580 0.935750 -0.569799
O17   O     O_R   0.923670 0.239840 0.935920 -0.586402
O18   O     O_R   0.076330 0.739840 0.064080 -0.586415
C51   C     C_R   0.924260 0.580107 0.078932 0.958836
C52   C     C_R   0.075738 0.080101 0.921067 0.958832
O19   O     O_3   0.993540 0.572620 0.957940 -0.275770
O20   O     O_3   0.006460 0.072620 0.042060 -0.275773
V3    V     V_3+5 0.001200 0.298330 0.007800 1.212965
V4    V     V_3+5 0.998800 0.798330 0.992200 1.212970
C53   C     C_2   0.247799 0.805496 0.655097 1.040973
O21   O     O_2   0.283416 0.689448 0.635671 -0.628239
O22   O     O_R   0.184808 0.837869 0.616985 -0.720312
H23   H     H_    0.174493 0.756312 0.575232 0.348602
C54   C     C_2   0.752319 0.305635 0.344935 1.040973
O23   O     O_2   0.716748 0.189610 0.364438 -0.628205
O24   O     O_R   0.815335 0.338122 0.382971 -0.720324
H24   H     H_    0.825706 0.256662 0.424744 0.348610
C55   C     C_2   0.199538 0.235672 0.606262 1.124303
O25   O     O_2   0.141582 0.195667 0.585095 -0.569124
O26   O     O_R   0.238766 0.287904 0.560888 -0.789023
H25   H     H_    0.214227 0.281303 0.512445 0.352988
C56   C     C_2   0.800440 0.735902 0.393697 1.124318
O27   O     O_2   0.858411 0.696061 0.414859 -0.569195
O28   O     O_R   0.761205 0.788070 0.439073 -0.788929
H26   H     H_    0.785753 0.781555 0.487515 0.352967
N1    N     N_R   0.693445 0.751196 0.803590 0.236846
O29   O     O_R   0.678392 0.697039 0.859731 -0.338634
O30   O     O_R   0.679512 0.640701 0.751580 -0.399831
N2    N     N_R   0.306558 0.251202 0.196400 0.236854
O31   O     O_R   0.321613 0.197053 0.140258 -0.338692
O32   O     O_R   0.320490 0.140700 0.248406 -0.399808
C57   C     C_2   0.714805 0.415180 0.580829 1.018287
O33   O     O_2   0.735632 0.576620 0.588526 -0.631948
O34   O     O_R   0.694118 0.342425 0.516099 -0.776395
H27   H     H_    0.700298 0.435277 0.480067 0.329542
C58   C     C_2   0.285194 0.915165 0.419179 1.018292
O35   O     O_2   0.264367 0.076607 0.411487 -0.631961
O36   O     O_R   0.305880 0.842402 0.483906 -0.776454
H28   H     H_    0.299701 0.935249 0.519942 0.329522
N3    N     N_R   0.387178 0.127661 0.809133 0.255035
O37   O     O_R   0.441663 0.221251 0.811782 -0.309909
O38   O     O_R   0.390021 0.963209 0.837875 -0.361850
N4    N     N_R   0.612788 0.627340 0.190893 0.255187
O39   O     O_R   0.558284 0.720829 0.188256 -0.309739
O40   O     O_R   0.609973 0.462839 0.162186 -0.362149
C59   C     C_2   0.301858 0.179330 0.898375 1.166293
O41   O     O_2   0.285282 0.040950 0.926754 -0.612674
O42   O     O_R   0.349118 0.302953 0.933557 -0.713719
H29   H     H_    0.365862 0.262488 0.981824 0.370964
C60   C     C_2   0.698052 0.678976 0.101600 1.166404
O43   O     O_2   0.714932 0.541226 0.073132 -0.613228
O44   O     O_R   0.650415 0.801659 0.066537 -0.713375
H30   H     H_    0.633686 0.761102 0.018277 0.371001
N5    N     N_R   0.176892 0.765438 0.763162 0.227740
O45   O     O_R   0.124700 0.791589 0.716396 -0.350857
O46   O     O_R   0.174466 0.637285 0.808284 -0.442536
N6    N     N_R   0.823119 0.265470 0.236792 0.227776
O47   O     O_R   0.875355 0.291732 0.283493 -0.350885
O48   O     O_R   0.825495 0.137223 0.191687 -0.442608

loop_
_geom_bond_atom_site_label_1
_geom_bond_atom_site_label_2
_geom_bond_distance
_ccdc_geom_bond_type
C18   C20   1.411774 A    
C39   C41   1.564629 S    
O22   H23   1.013964 S    
C15   C17   1.418249 A    
C5    C50   1.489352 S    
C1    C32   1.449328 S    
C56   O27   1.223501 D    
O1    C3    1.323337 A    
C2    C31   1.449337 S    
O2    C4    1.323336 A    
C13   H7    1.081301 S    
C2    O7    1.306136 A    
O19   V4    1.741725 S    
C14   H8    1.081302 S    
O34   H27   1.012927 S    
C11   C57   1.483581 S    
C47   C52   1.450263 S    
O5    C3    1.314264 A    
C25   C33   1.577363 S    
C30   H12   1.110263 S    
O24   H24   1.013959 S    
C22   H4    1.083886 S    
O12   V3    1.964405 S    
N3    O37   1.301256 A    
O14   C50   1.314410 A    
C27   C33   1.567559 S    
N1    O29   1.301337 A    
C42   H14   1.110379 S    
C27   N5    1.473655 S    
C41   H13   1.110406 S    
C36   C38   1.577538 S    
C35   C37   1.577585 S    
C45   C47   1.215165 T    
N2    O31   1.301337 A    
C38   C40   1.578862 S    
C36   H22   1.116384 S    
C34   C42   1.561184 S    
N5    O46   1.300404 A    
C56   O28   1.397930 S    
C8    C12   1.420850 A    
N4    O39   1.301256 A    
N1    O30   1.301228 A    
O11   V4    1.964425 S    
C28   N6    1.473639 S    
C55   O25   1.223503 D    
C23   N1    1.437444 S    
C20   H2    1.084328 S    
C24   N2    1.437443 S    
C28   C30   1.579865 S    
C30   C54   1.522164 S    
O6    V2    1.990934 S    
C49   O18   1.325039 A    
C26   C34   1.577451 S    
C55   O26   1.397929 S    
C36   N4    1.475529 S    
C5    C21   1.405981 A    
C7    C13   1.407306 A    
O16   C52   1.317545 A    
N6    O48   1.300401 A    
O13   C49   1.314411 A    
C3    C8    1.494876 S    
C25   C59   1.521517 S    
C29   C37   1.577241 S    
N6    O47   1.299860 A    
O18   V4    1.983369 S    
C59   O41   1.223342 D    
C27   C29   1.579852 S    
C34   C46   1.495933 S    
C40   C56   1.522756 S    
C27   H9    1.112152 S    
C15   C23   1.418037 A    
C32   C44   1.214788 T    
C9    C17   1.399417 A    
C19   H1    1.084330 S    
O20   V4    2.186115 S    
C40   C42   1.564579 S    
O4    V2    1.980994 S    
C7    C11   1.420854 A    
C25   H19   1.110637 S    
C29   C53   1.522187 S    
C37   C43   1.495217 S    
C53   O21   1.223715 D    
C50   O17   1.325036 A    
O6    C4    1.314262 A    
C42   H16   1.105401 S    
O20   V3    1.741757 S    
C37   C39   1.578913 S    
C54   O24   1.394522 S    
O1    V2    1.983722 S    
C21   H3    1.083888 S    
O17   V3    1.983362 S    
O2    V1    1.983714 S    
C6    C22   1.405983 A    
C57   O33   1.223311 D    
N4    O40   1.301538 A    
C9    H5    1.084795 S    
C48   C51   1.450258 S    
O12   C52   1.314407 A    
C53   O22   1.394529 S    
C9    C11   1.405347 A    
C58   O35   1.223316 D    
C5    C19   1.401262 A    
C10   C12   1.405348 A    
O4    C2    1.308180 A    
C6    C20   1.401260 A    
C39   C55   1.522734 S    
O36   H28   1.012926 S    
O3    V1    1.980955 S    
O28   H26   1.013690 S    
C39   H17   1.111279 S    
C59   O42   1.398405 S    
C35   N3    1.475515 S    
C10   C18   1.399417 A    
C26   C36   1.581022 S    
C40   H18   1.111285 S    
C35   H21   1.116386 S    
C33   C41   1.561183 S    
O3    C1    1.308196 A    
C31   C43   1.214791 T    
C60   O43   1.223082 D    
O19   V3    2.186162 S    
C28   C34   1.567552 S    
C13   C15   1.417937 A    
O42   H29   1.013902 S    
C14   C16   1.417938 A    
C6    C49   1.489351 S    
C41   H15   1.105384 S    
C38   C44   1.495213 S    
C16   C18   1.418250 A    
O7    V1    1.969151 S    
C1    O8    1.306122 A    
C17   C19   1.411771 A    
O8    V2    1.969170 S    
O44   H30   1.013900 S    
C26   H20   1.110647 S    
C60   O44   1.398017 S    
C10   H6    1.084796 S    
C8    C14   1.407303 A    
C30   C38   1.577253 S    
C4    C7    1.494880 S    
O5    V1    1.990920 S    
C21   C23   1.406589 A    
C22   C24   1.406589 A    
O15   C51   1.317559 A    
O14   V4    1.990833 S    
N2    O32   1.301228 A    
C57   O34   1.397840 S    
C29   H11   1.110267 S    
O13   V3    1.990815 S    
C28   H10   1.112194 S    
C16   C24   1.418033 A    
C25   C35   1.580918 S    
O9    V2    1.742133 S    
O15   V3    1.981095 S    
C54   O23   1.223702 D    
C58   O36   1.397847 S    
O10   V1    1.742166 S    
C46   C48   1.215164 T    
C33   C45   1.495923 S    
C12   C58   1.483577 S    
O26   H25   1.013692 S    
O16   V4    1.981132 S    
N5    O45   1.299866 A    
C26   C60   1.521597 S    
N3    O38   1.301538 A    
O11   C51   1.314394 A    
