data_mof_unit_38845.cif
_audit_creation_date              2012-12-10T18:31:56-0500
_audit_creation_method            fapswitch 2.2
_symmetry_space_group_name_H-M    P1
_symmetry_Int_Tables_number       1
_space_group_crystal_system       triclinic
_cell_length_a                    10.650835
_cell_length_b                    14.938695
_cell_length_c                    15.371881
_cell_angle_alpha                 82.001385
_cell_angle_beta                  89.651208
_cell_angle_gamma                 104.261035
_cell_volume                      2345.30395715

loop_
_atom_site_label
_atom_site_type_symbol
_atom_type_description
_atom_site_fract_x
_atom_site_fract_y
_atom_site_fract_z
_atom_type_partial_charge
C1    C     C_R   0.477668 0.441545 0.662547 0.871564
C2    C     C_3   0.120738 0.498924 0.503107 -0.003922
C3    C     C_3   0.070760 0.493389 0.408928 -0.508393
C4    C     C_3   0.102458 0.592779 0.530526 0.239522
C5    C     C_R   0.446482 0.405663 0.755646 -0.086569
C6    C     C_R   0.504974 0.593128 0.245183 -0.229083
C7    C     C_R   0.394995 0.279405 0.877486 -0.122943
C8    C     C_R   0.422762 0.310331 0.787974 -0.140094
C9    C     C_R   0.434869 0.468722 0.812306 -0.222345
C10   C     C_R   0.404305 0.438998 0.901713 0.084265
C11   C     C_R   0.389544 0.343599 0.935040 0.096192
C12   C     C_R   0.741999 0.500439 0.500726 0.886746
C13   C     C_R   0.398549 0.503415 0.959625 -0.006239
C14   C     C_R   0.409039 0.476124 0.050119 0.067811
C15   C     C_R   0.379941 0.379465 0.083732 0.501852
C16   C     C_R   0.370211 0.313933 0.025306 -0.316402
C17   C     C_R   0.382340 0.593768 0.930586 -0.206100
C18   C     C_R   0.385652 0.657156 0.989379 -0.113384
C19   C     C_R   0.418602 0.635636 0.076456 -0.010091
C20   C     C_R   0.441982 0.546760 0.104333 -0.027997
C21   C     C_R   0.431734 0.700769 0.136182 0.407780
C22   C     C_R   0.468599 0.676989 0.221559 -0.295111
C23   C     C_R   0.517590 0.558434 0.337471 0.932883
C24   C     C_R   0.505571 0.533629 0.182876 0.417070
C25   C     C_R   0.680360 0.839404 0.644766 -0.258148
C26   C     C_R   0.658070 0.752662 0.616942 0.028963
C27   C     C_R   0.511024 0.793116 0.512295 0.015612
C28   C     C_R   0.527591 0.882049 0.538491 0.026417
C29   C     C_R   0.614292 0.904088 0.606317 0.090060
C30   C     C_R   0.461232 0.948827 0.500460 -0.019399
C31   C     C_R   0.488868 0.038959 0.527184 0.013966
C32   C     C_R   0.563663 0.053533 0.603034 0.355435
C33   C     C_R   0.629055 0.988191 0.638714 -0.203044
C34   C     C_R   0.257615 0.499005 0.501684 0.876570
C35   C     C_R   0.365134 0.927054 0.438801 -0.268463
C36   C     C_R   0.300633 0.991808 0.400655 0.461650
C37   C     C_R   0.336788 0.084746 0.418567 -0.004326
C38   C     C_R   0.436916 0.109163 0.478811 -0.101965
C39   C     C_R   0.278095 0.154641 0.377916 0.386958
C40   C     C_R   0.324024 0.246068 0.395704 -0.057336
C41   C     C_R   0.486297 0.204367 0.485038 0.024393
C42   C     C_3   0.897132 0.419712 0.571821 -0.471337
C43   C     C_3   0.040132 0.414510 0.568715 0.298059
C44   C     C_3   0.925009 0.488279 0.410000 -0.375012
C45   C     C_3   0.959783 0.594714 0.526718 -0.453155
C46   C     C_3   0.878451 0.500913 0.502328 0.035650
H1    H     H_    0.831870 0.352100 0.560356 0.220886
H2    H     H_    0.157617 0.652132 0.481933 0.165467
H3    H     H_    0.905746 0.543452 0.359074 0.199678
H4    H     H_    0.123453 0.556298 0.363387 0.184406
H5    H     H_    0.351291 0.240183 0.050519 0.175002
H6    H     H_    0.467782 0.723665 0.269456 0.208524
H7    H     H_    0.368072 0.724303 0.964951 0.204319
H8    H     H_    0.380555 0.205815 0.901928 0.173065
H9    H     H_    0.427422 0.260159 0.744490 0.221677
H10   H     H_    0.455889 0.542050 0.786533 0.167818
H11   H     H_    0.870136 0.431585 0.638596 0.150964
H12   H     H_    0.360127 0.615056 0.863566 0.160117
H13   H     H_    0.687406 0.001446 0.695337 0.193609
H14   H     H_    0.573655 0.229703 0.518349 0.182648
H15   H     H_    0.278503 0.300367 0.368363 0.157514
H16   H     H_    0.746284 0.855007 0.697168 0.160545
H17   H     H_    0.705668 0.700972 0.647658 0.133580
H18   H     H_    0.448737 0.769692 0.460896 0.119837
H19   H     H_    0.078179 0.419028 0.635543 0.131865
H20   H     H_    0.333788 0.858273 0.420594 0.168776
H21   H     H_    0.871215 0.419558 0.392813 0.211204
H22   H     H_    0.089088 0.432039 0.382300 0.210292
H23   H     H_    0.949759 0.653615 0.476381 0.193503
H24   H     H_    0.923759 0.607646 0.590840 0.196869
N1    N     N_R   0.573860 0.731700 0.552730 -0.105661
N2    N     N_R   0.426060 0.268290 0.447230 -0.118923
O1    O     O_R   0.462770 0.383110 0.605620 -0.590032
O2    O     O_R   0.510160 0.531900 0.639510 -0.622611
O3    O     O_R   0.661510 0.425600 0.483070 -0.618694
O4    O     O_R   0.708900 0.574390 0.516960 -0.629015
O5    O     O_R   0.489840 0.468100 0.360490 -0.558149
O6    O     O_R   0.537230 0.616890 0.394380 -0.628380
O7    O     O_R   0.291100 0.425610 0.483040 -0.589668
O8    O     O_R   0.338490 0.574400 0.516930 -0.600046
Zn1   Zn    Zn3+2 0.468350 0.400660 0.477370 1.015056
Zn2   Zn    Zn3+2 0.531650 0.599340 0.522630 0.963827
Cl1   Cl    Cl    0.610706 0.457240 0.195699 -0.568445
O9    O     O_3   0.352170 0.350429 0.172680 -0.750780
H25   H     H_    0.333897 0.281396 0.184750 0.349095
Cl2   Cl    Cl    0.396024 0.810153 0.109009 -0.557528
Cl3   Cl    Cl    0.179673 0.950280 0.327543 -0.485861
Cl4   Cl    Cl    0.558001 0.139648 0.669927 -0.670853
O10   O     O_3   0.175735 0.133416 0.323361 -0.686170
H26   H     H_    0.147127 0.190671 0.301950 0.333952
O11   O     O_3   0.051219 0.327825 0.547482 -0.725066
H27   H     H_    0.002309 0.315157 0.493989 0.349299
O12   O     O_3   0.151561 0.608284 0.613730 -0.743760
H28   H     H_    0.092522 0.564961 0.659821 0.327692

loop_
_geom_bond_atom_site_label_1
_geom_bond_atom_site_label_2
_ccdc_geom_bond_type
C44   H3    S    
O12   H28   S    
C3    H22   S    
C16   H5    S    
C7    C8    A    
C45   C46   S    
C7    C11   A    
C30   C35   A    
C1    C5    S    
C1    O2    A    
C28   C29   A    
C19   C21   A    
C24   Cl1   S    
C30   C31   A    
C15   C16   A    
C32   Cl4   S    
C29   C33   A    
C42   H11   S    
C18   C19   A    
C42   C46   S    
C20   C24   A    
C18   H7    S    
C34   O8    A    
C19   C20   A    
C9    C10   A    
N2    Zn1   S    
C17   H12   S    
C25   H16   S    
N1    Zn2   S    
C2    C34   S    
C33   H13   S    
C21   C22   A    
C26   N1    A    
O2    Zn2   S    
C8    H9    S    
O1    Zn1   S    
C3    H4    S    
C44   C46   S    
C4    C45   S    
C36   Cl3   S    
C25   C29   A    
C3    C44   S    
C45   H23   S    
C14   C20   A    
O9    H25   S    
C38   C41   A    
O8    Zn2   S    
C10   C11   A    
O4    Zn2   S    
O11   H27   S    
O7    Zn1   S    
O3    Zn1   S    
C35   H20   S    
C25   C26   A    
C43   O11   S    
C40   H15   S    
C35   C36   A    
C2    C4    S    
C26   H17   S    
C5    C9    A    
C37   C38   A    
C34   O7    A    
C11   C16   A    
O6    Zn2   S    
C31   C32   A    
O5    Zn1   S    
C2    C43   S    
C43   H19   S    
C6    C24   A    
C17   C18   A    
C9    H10   S    
C23   O5    A    
C41   N2    A    
C12   C46   S    
C12   O4    A    
C42   C43   S    
C39   C40   A    
C27   N1    A    
C22   H6    S    
C4    H2    S    
C21   Cl2   S    
C36   C37   A    
C40   N2    A    
C45   H24   S    
C41   H14   S    
C10   C13   A    
C5    C8    A    
C15   O9    S    
C31   C38   A    
C13   C17   A    
C1    O1    A    
C32   C33   A    
C28   C30   A    
C2    C3    S    
C37   C39   A    
C6    C23   S    
C42   H1    S    
C23   O6    A    
C27   H18   S    
C4    O12   S    
C12   O3    A    
C27   C28   A    
C14   C15   A    
C44   H21   S    
C7    H8    S    
O10   H26   S    
C13   C14   A    
C39   O10   S    
C6    C22   A    
