data_mof_unit_32878.cif
_audit_creation_date              2012-12-10T17:46:21-0500
_audit_creation_method            fapswitch 2.2
_symmetry_space_group_name_H-M    P1
_symmetry_Int_Tables_number       1
_space_group_crystal_system       triclinic
_cell_length_a                    14.149734
_cell_length_b                    10.643766
_cell_length_c                    9.932114
_cell_angle_alpha                 89.991158
_cell_angle_beta                  89.977828
_cell_angle_gamma                 91.604884
_cell_volume                      1495.25360284

loop_
_atom_site_label
_atom_site_type_symbol
_atom_type_description
_atom_site_fract_x
_atom_site_fract_y
_atom_site_fract_z
_atom_type_partial_charge
C1    C     C_R   0.501303 0.260678 0.500080 0.963672
C2    C     C_R   0.430499 0.061460 0.443074 0.507847
C3    C     C_R   0.430833 0.932909 0.442548 0.549935
C4    C     C_R   0.329301 0.499675 0.500051 0.924637
C5    C     C_R   0.506763 0.871843 0.499811 -0.357746
C6    C     C_R   0.376303 0.335165 0.139781 -0.110499
C7    C     C_R   0.315692 0.253493 0.069792 -0.134836
C8    C     C_R   0.315791 0.253274 0.930488 -0.208309
C9    C     C_R   0.376462 0.334770 0.860280 -0.139548
C10   C     C_R   0.439258 0.418560 0.927762 0.168742
C11   C     C_R   0.439227 0.418681 0.072232 0.139817
C12   C     C_1   0.772187 0.500100 0.500001 -0.202461
C13   C     C_R   0.558213 0.577906 0.071373 -0.088044
C14   C     C_R   0.558180 0.577897 0.928399 -0.099987
C15   C     C_R   0.501882 0.739365 0.499957 0.984821
C16   C     C_R   0.670704 0.500403 0.499956 0.843643
C17   C     C_1   0.227804 0.499383 0.500115 -0.151369
C18   C     C_1   0.142532 0.499245 0.500170 0.013361
C19   C     C_1   0.042618 0.499273 0.500214 0.021587
C20   C     C_1   0.957349 0.499446 0.500203 0.014216
C21   C     C_1   0.857445 0.499779 0.500116 -0.010179
C22   C     C_R   0.664213 0.137137 0.608395 -0.107718
C23   C     C_R   0.741184 0.074513 0.660996 -0.131728
C24   C     C_R   0.741286 0.943798 0.660997 -0.134731
C25   C     C_R   0.664440 0.875261 0.608328 -0.122753
C26   C     C_R   0.585338 0.937348 0.555735 0.023841
C27   C     C_R   0.585189 0.069049 0.555800 0.030041
C28   C     C_R   0.506359 0.128511 0.500149 -0.337719
F1    F     F_    0.354877 0.120989 0.391501 -0.666803
F2    F     F_    0.355878 0.867270 0.389543 -0.622913
H1    H     H_    0.268352 0.189767 0.876265 0.168704
H2    H     H_    0.268169 0.190167 0.124179 0.200968
H3    H     H_    0.371738 0.329281 0.753538 0.206198
H4    H     H_    0.605670 0.641687 0.874743 0.144721
H5    H     H_    0.667849 0.238677 0.608162 0.136935
H6    H     H_    0.801226 0.127609 0.700927 0.140710
H7    H     H_    0.801403 0.895331 0.700928 0.140017
H8    H     H_    0.668234 0.773937 0.607938 0.126232
H9    H     H_    0.605748 0.641675 0.124868 0.145492
H10   H     H_    0.371498 0.330151 0.246450 0.234509
N1    N     N_R   0.499190 0.498800 0.142780 -0.115889
N2    N     N_R   0.499160 0.498720 0.857170 -0.115154
O1    O     O_R   0.500000 0.316780 0.614690 -0.642108
O2    O     O_R   0.499990 0.316750 0.385360 -0.611058
O3    O     O_R   0.373720 0.500010 0.614690 -0.621190
O4    O     O_R   0.373710 0.499990 0.385360 -0.603518
O5    O     O_R   0.500010 0.683250 0.614640 -0.614561
O6    O     O_R   0.500000 0.683220 0.385310 -0.578185
O7    O     O_R   0.626290 0.500010 0.614640 -0.612850
O8    O     O_R   0.626280 0.499990 0.385310 -0.599784
Zn1   Zn    Zn3+2 0.500010 0.500020 0.653130 0.938245
Zn2   Zn    Zn3+2 0.499990 0.499980 0.346870 0.972748

loop_
_geom_bond_atom_site_label_1
_geom_bond_atom_site_label_2
_ccdc_geom_bond_type
C14   H4    S    
C3    F2    S    
O8    Zn2   S    
C23   C24   A    
C24   C25   A    
C6    C7    A    
C25   H8    S    
C1    C28   S    
C9    C10   A    
C1    O2    A    
C19   C20   T    
C15   O5    A    
N2    Zn1   S    
C14   N2    A    
C5    C15   S    
O2    Zn2   S    
C13   N1    A    
C24   H7    S    
C7    C8    A    
C4    O4    A    
C13   C14   A    
C20   C21   S    
C9    H3    S    
C22   H5    S    
O1    Zn1   S    
C26   C27   A    
C15   O6    A    
C2    F1    S    
C4    C17   S    
C16   O8    A    
C11   N1    A    
C2    C3    A    
C22   C27   A    
C6    C11   A    
C6    H10   S    
C13   H9    S    
C10   N2    A    
C10   C11   A    
O3    Zn1   S    
C4    O3    A    
C5    C26   A    
O4    Zn2   S    
O6    Zn2   S    
C16   O7    A    
C17   C18   T    
C23   H6    S    
C27   C28   A    
C22   C23   A    
C18   C19   S    
C2    C28   A    
C7    H2    S    
N1    Zn2   S    
C3    C5    A    
C25   C26   A    
C8    H1    S    
C12   C21   T    
C1    O1    A    
O5    Zn1   S    
C12   C16   S    
C8    C9    A    
O7    Zn1   S    
