data_mof_unit_8742.cif
_audit_creation_date              2012-12-10T16:50:13-0500
_audit_creation_method            fapswitch 2.2
_symmetry_space_group_name_H-M    P1
_symmetry_Int_Tables_number       1
_space_group_crystal_system       triclinic
_cell_length_a                    7.798275
_cell_length_b                    8.562375
_cell_length_c                    10.598459
_cell_angle_alpha                 91.154873
_cell_angle_beta                  85.532812
_cell_angle_gamma                 93.678837
_cell_volume                      703.992319603

loop_
_atom_site_label
_atom_site_type_symbol
_atom_type_description
_atom_site_fract_x
_atom_site_fract_y
_atom_site_fract_z
_atom_type_partial_charge
C1    C     C_R   0.545709 0.794621 0.496879 0.908144
C2    C     C_R   0.454301 0.205372 0.503213 0.952708
C3    C     C_R   0.498984 0.502744 0.260736 0.849214
C4    C     C_R   0.422873 0.788806 0.877436 -0.179027
C5    C     C_R   0.380610 0.922255 0.947823 -0.137129
C6    C     C_R   0.375954 0.920939 0.079366 -0.122331
C7    C     C_R   0.413533 0.786173 0.140923 -0.164876
C8    C     C_R   0.455751 0.649606 0.070889 0.090749
C9    C     C_R   0.460525 0.650979 0.938544 0.095609
C10   C     C_R   0.507159 0.514410 0.871303 -0.078145
C11   C     C_R   0.553966 0.381981 0.930471 -0.212231
C12   C     C_R   0.549397 0.380627 0.059530 -0.185458
C13   C     C_R   0.498201 0.511740 0.128563 -0.077127
C14   C     C_2   0.569680 0.958194 0.494996 -0.372764
C15   C     C_2   0.430303 0.041771 0.505076 -0.393277
C16   C     C_R   0.502254 0.504022 0.739203 0.838967
F1    F     F_    0.029674 0.357936 0.386804 -0.536386
H1    H     H_    0.590202 0.278544 0.876580 0.149376
H2    H     H_    0.986834 0.618460 0.594635 0.135419
H3    H     H_    0.428115 0.795411 0.775416 0.140923
H4    H     H_    0.352562 0.027244 0.900138 0.141208
H5    H     H_    0.344247 0.024901 0.133854 0.150670
H6    H     H_    0.410965 0.790784 0.243008 0.145866
H7    H     H_    0.583828 0.276616 0.106034 0.154907
H8    H     H_    0.701305 0.009279 0.485313 0.203690
H9    H     H_    0.298678 0.990669 0.514732 0.191942
N1    N     N_2   0.950330 0.457950 0.466250 0.204664
N2    N     N_2   0.049670 0.542050 0.533750 -0.088519
O1    O     O_R   0.389250 0.738570 0.508280 -0.633960
O2    O     O_R   0.678390 0.711630 0.486650 -0.640902
O3    O     O_R   0.355400 0.513470 0.694050 -0.624753
O4    O     O_R   0.644540 0.486530 0.672420 -0.640594
O5    O     O_R   0.321610 0.288370 0.513350 -0.564553
O6    O     O_R   0.610750 0.261430 0.491720 -0.600892
O7    O     O_R   0.355460 0.513470 0.327580 -0.563035
O8    O     O_R   0.644600 0.486530 0.305950 -0.592548
Zn1   Zn    Zn3+2 0.306930 0.517990 0.514440 1.025134
Zn2   Zn    Zn3+2 0.693070 0.482010 0.485560 1.029316

loop_
_geom_bond_atom_site_label_1
_geom_bond_atom_site_label_2
_ccdc_geom_bond_type
C11   C12   A    
C11   H1    S    
C6    C7    A    
H2    N2    S    
O4    Zn2   S    
C16   O4    A    
C9    C10   A    
C12   H7    S    
F1    N1    S    
C3    C13   S    
C3    O7    A    
C2    O6    A    
O8    Zn2   S    
C7    C8    A    
C10   C16   S    
C16   O3    A    
C2    C15   S    
C8    C13   A    
N2    Zn1   S    
C7    H6    S    
C3    O8    A    
C2    O5    A    
C1    O1    A    
C1    O2    A    
O7    Zn1   S    
C14   H8    S    
C5    C6    A    
C10   C11   A    
N1    Zn2   S    
C6    H5    S    
C5    H4    S    
C12   C13   A    
O2    Zn2   S    
O1    Zn1   S    
N1    N2    D    
C14   C15   D    
C8    C9    A    
C15   H9    S    
C1    C14   S    
C4    C9    A    
O6    Zn2   S    
O5    Zn1   S    
O3    Zn1   S    
C4    C5    A    
C4    H3    S    
