data_mof_unit_58062.cif
_audit_creation_date              2012-12-11T16:00:56-0500
_audit_creation_method            fapswitch 2.2
_symmetry_space_group_name_H-M    P1
_symmetry_Int_Tables_number       1
_space_group_crystal_system       triclinic
_cell_length_a                    23.771604
_cell_length_b                    32.09152
_cell_length_c                    19.905399
_cell_angle_alpha                 90.07735
_cell_angle_beta                  126.025168
_cell_angle_gamma                 89.960039
_cell_volume                      12281.1275279

loop_
_atom_site_label
_atom_site_type_symbol
_atom_type_description
_atom_site_fract_x
_atom_site_fract_y
_atom_site_fract_z
_atom_type_partial_charge
C1    C     C_R   0.957392 0.884938 0.069131 0.295492
C2    C     C_R   0.957707 0.115168 0.069243 0.312331
C3    C     C_R   0.459185 0.384569 0.069624 0.295934
C4    C     C_R   0.459427 0.615516 0.069741 0.394865
C5    C     C_R   0.071309 0.903434 0.932618 0.833580
C6    C     C_R   0.071154 0.096721 0.932653 0.827745
C7    C     C_R   0.572440 0.405087 0.932664 0.833038
C8    C     C_R   0.572386 0.595011 0.932747 0.831448
C9    C     C_R   0.136627 0.099100 0.070376 -0.193559
C10   C     C_R   0.136787 0.901095 0.070309 -0.124802
C11   C     C_R   0.639268 0.595708 0.070920 -0.099947
C12   C     C_R   0.639332 0.404397 0.070817 -0.102304
C13   C     C_R   0.240329 0.000036 0.247531 -0.007606
C14   C     C_R   0.729846 0.500006 0.271678 -0.001589
C15   C     C_R   0.950399 0.999894 0.722302 -0.353518
C16   C     C_R   0.448074 0.499863 0.721425 -0.351343
C17   C     C_R   0.134705 0.891308 0.002022 -0.206922
C18   C     C_R   0.134410 0.109010 0.002077 -0.191016
C19   C     C_R   0.637360 0.394905 0.002296 -0.215725
C20   C     C_R   0.637252 0.605278 0.002441 -0.215459
C21   C     C_3   0.839565 0.011262 0.339158 0.757913
C22   C     C_3   0.942756 0.956791 0.417201 0.731885
C23   C     C_3   0.338887 0.506952 0.338189 0.743585
C24   C     C_3   0.449817 0.458330 0.423365 0.729861
C25   C     C_3   0.924087 0.954636 0.480032 1.174833
C26   C     C_3   0.838396 0.013862 0.417534 1.140449
C27   C     C_3   0.430489 0.455343 0.485481 1.175383
C28   C     C_3   0.336273 0.509670 0.415494 1.161892
C29   C     C_1   0.924990 0.999788 0.637649 0.251610
C30   C     C_1   0.422539 0.499728 0.636687 0.242731
C31   C     C_3   0.917401 0.001081 0.369296 -0.953413
C32   C     C_3   0.418235 0.500982 0.370424 -0.953361
C33   C     C_3   0.910245 0.999836 0.495956 -1.032555
C34   C     C_3   0.409534 0.499665 0.495943 -1.049413
C35   C     C_R   0.885577 0.113902 0.931549 0.833349
C36   C     C_R   0.885331 0.886173 0.931421 0.840817
C37   C     C_R   0.388937 0.615149 0.932234 0.867817
C38   C     C_R   0.388797 0.384888 0.932090 0.884649
C39   C     C_3   0.970418 0.030004 0.514091 1.157287
C40   C     C_3   0.465242 0.532916 0.511391 1.164866
C41   C     C_3   0.969319 0.036904 0.434342 0.433175
C42   C     C_3   0.464163 0.539523 0.431530 0.429343
C43   C     C_1   0.911790 0.999725 0.569979 0.592741
C44   C     C_1   0.410014 0.499605 0.569312 0.592877
C45   C     C_1   0.923383 0.000913 0.300797 0.536843
C46   C     C_1   0.424882 0.500820 0.302468 0.536567
C47   C     C_1   0.938653 0.000536 0.253523 0.067100
C48   C     C_1   0.440073 0.500496 0.255135 0.067727
C49   C     C_3   0.750394 0.241416 0.946125 0.044630
C50   C     C_3   0.749569 0.757880 0.942548 0.017975
C51   C     C_3   0.256197 0.738078 0.957943 0.041598
C52   C     C_3   0.255357 0.262289 0.957258 0.027002
C53   C     C_3   0.857653 0.257799 0.089118 -0.672554
C54   C     C_3   0.854264 0.744070 0.088587 -0.659599
C55   C     C_3   0.367548 0.761809 0.090983 -0.682972
C56   C     C_3   0.366468 0.238840 0.090641 -0.645000
C57   C     C_3   0.327318 0.798414 0.097191 0.694878
C58   C     C_3   0.326148 0.202283 0.096595 0.752204
C59   C     C_3   0.818870 0.295268 0.095330 0.695860
C60   C     C_3   0.815363 0.706639 0.094469 0.763977
C61   C     C_1   0.186070 0.868978 0.002979 0.242663
C62   C     C_1   0.185479 0.131540 0.002907 0.241520
C63   C     C_1   0.688702 0.372443 0.003223 0.244822
C64   C     C_1   0.688491 0.627857 0.003454 0.247176
C65   C     C_3   0.830841 0.249634 0.997709 -0.536346
C66   C     C_3   0.830412 0.750640 0.997931 -0.537607
C67   C     C_3   0.334283 0.749957 0.998918 -0.531912
C68   C     C_3   0.333510 0.250413 0.998598 -0.547004
C69   C     C_R   0.805052 0.965462 0.774797 0.771220
C70   C     C_R   0.805120 0.034473 0.774681 0.776733
C71   C     C_R   0.299435 0.465441 0.803828 0.769926
C72   C     C_R   0.299352 0.534522 0.803585 0.753696
C73   C     C_3   0.215271 0.777077 0.951735 1.196614
C74   C     C_3   0.214299 0.223294 0.950580 1.208647
C75   C     C_3   0.712489 0.281751 0.941168 1.198220
C76   C     C_3   0.712105 0.717366 0.937560 1.211317
C77   C     C_3   0.267512 0.813612 0.003252 -0.815028
C78   C     C_3   0.266561 0.186883 0.002666 -0.844782
C79   C     C_3   0.767483 0.315043 0.003070 -0.819088
C80   C     C_3   0.767127 0.685256 0.003252 -0.849593
C81   C     C_3   0.301669 0.826895 0.957397 0.748659
C82   C     C_3   0.301097 0.173358 0.957327 0.753663
C83   C     C_3   0.810952 0.328499 0.968890 0.753868
C84   C     C_3   0.813938 0.671258 0.973898 0.758831
C85   C     C_3   0.341952 0.788171 0.956323 1.235213
C86   C     C_3   0.341584 0.211998 0.956537 1.233302
C87   C     C_3   0.848831 0.288685 0.966835 1.230115
C88   C     C_3   0.851768 0.711071 0.971885 1.229611
C89   C     C_1   0.226264 0.846572 0.003784 0.437632
C90   C     C_1   0.225398 0.154005 0.003398 0.442982
C91   C     C_1   0.727996 0.349182 0.003891 0.442501
C92   C     C_1   0.727692 0.651153 0.004119 0.448494
C93   C     C_1   0.864996 0.212283 0.997618 0.401702
C94   C     C_1   0.864315 0.787998 0.997555 0.354159
C95   C     C_1   0.370174 0.713504 0.999159 0.386407
C96   C     C_1   0.369397 0.286784 0.998769 0.354172
C97   C     C_1   0.887102 0.178813 0.998974 0.240619
C98   C     C_1   0.886305 0.821442 0.998663 0.193094
C99   C     C_1   0.392589 0.680208 0.000386 0.275527
C100  C     C_1   0.391891 0.320008 0.999950 0.199728
C101  C     C_3   0.481045 0.964560 0.377690 1.170327
C102  C     C_3   0.479087 0.043304 0.398560 1.157831
C103  C     C_3   0.950261 0.455124 0.489562 1.158859
C104  C     C_3   0.959046 0.533415 0.471770 1.138386
C105  C     C_3   0.558657 0.047152 0.474785 0.443522
C106  C     C_3   0.562203 0.962354 0.447431 0.437528
C107  C     C_3   0.036873 0.538830 0.550512 0.445792
C108  C     C_3   0.029722 0.453195 0.564710 0.435682
C109  C     C_1   0.708630 0.999898 0.648425 0.301473
C110  C     C_1   0.185328 0.499774 0.728759 0.315091
C111  C     C_R   0.988613 0.034869 0.188521 -0.054160
C112  C     C_R   0.988987 0.965335 0.189172 0.038680
C113  C     C_R   0.489009 0.534867 0.189008 -0.058301
C114  C     C_R   0.489431 0.465322 0.189698 0.035480
C115  C     C_3   0.448696 0.999793 0.399064 -0.904706
C116  C     C_3   0.920238 0.498825 0.486333 -0.904025
C117  C     C_3   0.582430 0.000451 0.512938 -0.638045
C118  C     C_3   0.052027 0.499112 0.609366 -0.640578
C119  C     C_3   0.543120 0.990768 0.552421 -0.661334
C120  C     C_3   0.007251 0.505978 0.642814 -0.635887
C121  C     C_3   0.464175 0.990559 0.485238 1.370025
C122  C     C_3   0.928565 0.506204 0.569173 1.385787
C123  C     C_1   0.654290 0.000019 0.582566 0.447778
C124  C     C_1   0.124334 0.499374 0.678179 0.419863
C125  C     C_1   0.374264 0.999946 0.340286 0.513992
C126  C     C_1   0.848031 0.499496 0.415973 0.517815
C127  C     C_1   0.312834 0.000022 0.297637 0.093502
C128  C     C_1   0.792100 0.499886 0.351829 0.106421
C129  C     C_R   0.906248 0.863007 0.000174 -0.352276
C130  C     C_R   0.906775 0.137169 0.000382 -0.375032
C131  C     C_R   0.410508 0.361775 0.000967 -0.354600
C132  C     C_R   0.410884 0.638349 0.001207 -0.378661
C133  C     C_R   0.767798 0.999941 0.730596 -0.479357
C134  C     C_R   0.257969 0.499957 0.780923 -0.456674
C135  C     C_R   0.966973 0.000198 0.208026 -0.065458
C136  C     C_R   0.467826 0.500185 0.209051 -0.060098
C137  C     C_R   0.199327 0.965204 0.214742 -0.022037
C138  C     C_R   0.199332 0.034850 0.214647 -0.010339
C139  C     C_R   0.692936 0.465261 0.227511 -0.022954
C140  C     C_R   0.692980 0.534763 0.227577 -0.024800
C141  C     C_R   0.958872 0.034385 0.767912 0.509847
C142  C     C_R   0.958951 0.965490 0.767953 0.499890
C143  C     C_R   0.457332 0.534382 0.767451 0.527566
C144  C     C_R   0.457381 0.465452 0.767514 0.521614
H1    H     H_    0.743183 0.218350 0.982071 0.175446
H2    H     H_    0.739757 0.781347 0.975656 0.179510
H3    H     H_    0.256799 0.716180 0.001574 0.175813
H4    H     H_    0.255736 0.284144 0.000884 0.178319
H5    H     H_    0.914823 0.262667 0.128208 0.309729
H6    H     H_    0.911590 0.739979 0.130338 0.298722
H7    H     H_    0.423378 0.769379 0.122812 0.302307
H8    H     H_    0.422368 0.231340 0.122835 0.300904
H9    H     H_    0.851343 0.228895 0.114910 0.224243
H10   H     H_    0.845590 0.773333 0.111441 0.234496
H11   H     H_    0.368644 0.733768 0.124566 0.227339
H12   H     H_    0.367291 0.266927 0.124109 0.232333
H13   H     H_    0.560338 0.961385 0.587793 0.271236
H14   H     H_    0.557445 0.012000 0.603879 0.264519
H15   H     H_    0.018516 0.482625 0.689704 0.271814
H16   H     H_    0.022318 0.534153 0.681604 0.272043
H17   H     H_    0.979180 0.066757 0.195938 0.177787
H18   H     H_    0.980039 0.933516 0.197461 0.185079
H19   H     H_    0.479391 0.566747 0.196198 0.176163
H20   H     H_    0.480495 0.433502 0.197999 0.188194
H21   H     H_    0.215357 0.933573 0.235520 0.162509
H22   H     H_    0.215368 0.066513 0.235286 0.157996
H23   H     H_    0.703166 0.433580 0.250281 0.176597
H24   H     H_    0.703261 0.566460 0.250413 0.171605
H25   H     H_    0.177020 0.107483 0.133577 0.198392
H26   H     H_    0.177268 0.892795 0.133481 0.194636
H27   H     H_    0.681982 0.600799 0.135141 0.187207
H28   H     H_    0.682089 0.399343 0.135003 0.191144
N1    N     N_R   0.965130 0.921700 0.043220 -0.147091
N2    N     N_R   0.965130 0.078300 0.043220 -0.146887
N3    N     N_R   0.465130 0.421700 0.043220 -0.151543
N4    N     N_R   0.465130 0.578300 0.043220 -0.158893
N5    N     N_R   0.921910 0.078350 0.956780 -0.167442
N6    N     N_R   0.921910 0.921650 0.956780 -0.166608
N7    N     N_R   0.421910 0.578350 0.956780 -0.182274
N8    N     N_R   0.421910 0.421650 0.956780 -0.178240
N9    N     N_R   0.865180 0.978440 0.843320 -0.192156
N10   N     N_R   0.865180 0.021560 0.843320 -0.194508
N11   N     N_R   0.365180 0.478440 0.843320 -0.181787
N12   N     N_R   0.365180 0.521560 0.843320 -0.181477
N13   N     N_R   0.021860 0.021610 0.156680 -0.039788
N14   N     N_R   0.021860 0.978390 0.156680 -0.051200
N15   N     N_R   0.521860 0.521610 0.156680 -0.042745
N16   N     N_R   0.521860 0.478390 0.156680 -0.054376
N17   N     N_R   0.134850 0.978410 0.156700 -0.058036
N18   N     N_R   0.134850 0.021590 0.156700 -0.054631
N19   N     N_R   0.634850 0.478410 0.156700 -0.064407
N20   N     N_R   0.634850 0.521590 0.156700 -0.062191
N21   N     N_R   0.978150 0.021580 0.843300 -0.165795
N22   N     N_R   0.978150 0.978420 0.843300 -0.165717
N23   N     N_R   0.478150 0.521580 0.843300 -0.166392
N24   N     N_R   0.478150 0.478420 0.843300 -0.165271
N25   N     N_R   0.034930 0.921670 0.956860 -0.138181
N26   N     N_R   0.034930 0.078330 0.956860 -0.138468
N27   N     N_R   0.534930 0.421670 0.956860 -0.138218
N28   N     N_R   0.534930 0.578330 0.956860 -0.138424
N29   N     N_R   0.078070 0.078320 0.043140 -0.094572
N30   N     N_R   0.078070 0.921680 0.043140 -0.092560
N31   N     N_R   0.578070 0.578320 0.043140 -0.091143
N32   N     N_R   0.578070 0.421680 0.043140 -0.092781
Ni1   Ni    Ni4+2 0.049540 0.950510 0.099060 0.314508
Ni2   Ni    Ni4+2 0.049540 0.049490 0.099060 0.293861
Ni3   Ni    Ni4+2 0.549540 0.450510 0.099060 0.299811
Ni4   Ni    Ni4+2 0.549540 0.549490 0.099060 0.295518
Ni5   Ni    Ni4+2 0.950480 0.049520 0.900940 0.321432
Ni6   Ni    Ni4+2 0.950480 0.950480 0.900940 0.324507
Ni7   Ni    Ni4+2 0.450480 0.549520 0.900940 0.328836
Ni8   Ni    Ni4+2 0.450480 0.450480 0.900940 0.325060
S1    S     S_3+6 0.022859 0.861319 0.164193 0.041168
O1    O     O_2   0.045322 0.821153 0.147660 -0.182293
O2    O     O_2   0.084732 0.889704 0.213425 -0.239505
O3    O     O_3   0.991619 0.851127 0.219410 -0.432588
H29   H     H_    0.952464 0.831585 0.184530 0.341203
S2    S     S_3+6 0.023736 0.138873 0.163910 0.023998
O4    O     O_2   0.995170 0.149783 0.211893 -0.196954
O5    O     O_2   0.084822 0.110085 0.214792 -0.276896
O6    O     O_3   0.050049 0.182900 0.144390 -0.421744
H30   H     H_    0.066490 0.173884 0.111041 0.359687
S3    S     S_3+6 0.525063 0.361874 0.165654 0.039221
O7    O     O_2   0.549350 0.321976 0.150770 -0.184051
O8    O     O_2   0.585824 0.391028 0.214715 -0.251034
O9    O     O_3   0.493401 0.351346 0.220295 -0.433563
H31   H     H_    0.454258 0.331864 0.184988 0.339725
S4    S     S_3+6 0.525690 0.638327 0.165383 -0.006848
O10   O     O_2   0.496681 0.649494 0.212798 -0.248325
O11   O     O_2   0.585610 0.608721 0.215623 -0.297356
O12   O     O_3   0.553708 0.681932 0.146905 -0.471515
H32   H     H_    0.589053 0.693760 0.202533 0.408780
S5    S     S_3+6 0.770559 0.978006 0.258982 0.138937
O13   O     O_2   0.702420 0.997668 0.230432 -0.141454
O14   O     O_2   0.773773 0.976059 0.185855 -0.219411
O15   O     O_3   0.771826 0.929653 0.291943 -0.402465
H33   H     H_    0.731772 0.915236 0.242822 0.403587
S6    S     S_3+6 0.921166 0.909535 0.354617 0.131161
O16   O     O_2   0.871509 0.917402 0.263054 -0.283005
O17   O     O_2   0.987232 0.892698 0.370953 -0.126434
O18   O     O_3   0.887928 0.872208 0.381129 -0.373192
H34   H     H_    0.880205 0.847989 0.345707 0.389818
S7    S     S_3+6 0.275659 0.470002 0.261413 0.146875
O19   O     O_2   0.204544 0.485906 0.229701 -0.111297
O20   O     O_2   0.280222 0.468070 0.189295 -0.225864
O21   O     O_3   0.283801 0.421987 0.299587 -0.402280
H35   H     H_    0.247160 0.405226 0.251601 0.405332
S8    S     S_3+6 0.436237 0.409956 0.366542 0.134518
O22   O     O_2   0.385982 0.414772 0.274160 -0.283121
O23   O     O_2   0.504922 0.396924 0.385291 -0.123736
O24   O     O_3   0.408748 0.371025 0.397164 -0.369223
H36   H     H_    0.405265 0.346381 0.364881 0.390986
F1    F     F_    0.014251 0.955272 0.467863 -0.541732
F2    F     F_    0.819346 0.049259 0.299261 -0.551785
F3    F     F_    0.521238 0.460724 0.474942 -0.540292
F4    F     F_    0.313349 0.543637 0.294015 -0.548274
F5    F     F_    0.978584 0.936638 0.554052 -0.520506
F6    F     F_    0.823950 0.053790 0.429279 -0.560936
F7    F     F_    0.486974 0.440428 0.561714 -0.517776
F8    F     F_    0.315588 0.548710 0.422337 -0.537380
S9    S     S_3+6 0.942632 0.091224 0.397400 0.144915
O25   O     O_2   0.002963 0.119870 0.453547 -0.118263
O26   O     O_2   0.923005 0.095035 0.310733 -0.246483
O27   O     O_3   0.876769 0.109501 0.398141 -0.332191
H37   H     H_    0.867112 0.137731 0.373582 0.405243
S10   S     S_3+6 0.058508 0.035385 0.458302 0.172387
O28   O     O_2   0.113802 0.041259 0.549662 -0.066064
O29   O     O_2   0.074835 0.996248 0.431265 -0.186209
O30   O     O_3   0.069237 0.074373 0.410101 -0.393389
H38   H     H_    0.049466 0.063957 0.353499 0.350016
S11   S     S_3+6 0.429677 0.592123 0.388307 0.145337
O31   O     O_2   0.485291 0.623942 0.441564 -0.120851
O32   O     O_2   0.410477 0.594644 0.301685 -0.245021
O33   O     O_3   0.360745 0.606901 0.385970 -0.328444
H39   H     H_    0.347163 0.634467 0.358344 0.408766
S12   S     S_3+6 0.553643 0.542644 0.456613 0.175196
O34   O     O_2   0.607304 0.551427 0.547353 -0.055162
O35   O     O_2   0.575988 0.504466 0.434118 -0.188275
O36   O     O_3   0.559257 0.581957 0.404723 -0.395504
H40   H     H_    0.541306 0.570505 0.349330 0.350095
F9    F     F_    0.965250 0.067701 0.544460 -0.564052
F10   F     F_    0.032808 0.012454 0.578264 -0.557680
F11   F     F_    0.453900 0.570253 0.537014 -0.560603
F12   F     F_    0.529756 0.518903 0.577975 -0.553733
F13   F     F_    0.665018 0.272873 0.958096 -0.577840
F14   F     F_    0.661733 0.726256 0.949757 -0.579403
F15   F     F_    0.174991 0.767634 0.979029 -0.578400
F16   F     F_    0.173305 0.232739 0.976908 -0.585946
S13   S     S_3+6 0.773339 0.275528 0.138404 0.095943
O37   O     O_2   0.726257 0.308426 0.133892 -0.194160
O38   O     O_2   0.731012 0.237230 0.093985 -0.206141
O39   O     O_3   0.830135 0.261797 0.238673 -0.378150
H41   H     H_    0.853158 0.236240 0.237962 0.362502
S14   S     S_3+6 0.766387 0.727021 0.132541 0.056718
O40   O     O_2   0.721299 0.763509 0.082684 -0.213931
O41   O     O_2   0.722069 0.693380 0.131763 -0.248089
O42   O     O_3   0.821686 0.744616 0.230482 -0.445411
H42   H     H_    0.791900 0.752195 0.248303 0.400394
S15   S     S_3+6 0.292997 0.779220 0.153813 0.095965
O43   O     O_2   0.244305 0.810618 0.149996 -0.195444
O44   O     O_2   0.255321 0.738443 0.120103 -0.206482
O45   O     O_3   0.357558 0.770661 0.254535 -0.377828
H43   H     H_    0.382862 0.746019 0.254942 0.362617
S16   S     S_3+6 0.291867 0.221645 0.153105 0.058742
O46   O     O_2   0.252133 0.261647 0.117564 -0.217927
O47   O     O_2   0.245748 0.189477 0.152675 -0.255142
O48   O     O_3   0.357706 0.232339 0.252321 -0.435703
H44   H     H_    0.335088 0.239457 0.279668 0.405705
F17   F     F_    0.850557 0.129403 0.853654 -0.546656
F18   F     F_    0.850379 0.870562 0.853549 -0.561916
F19   F     F_    0.358718 0.631871 0.855900 -0.539197
F20   F     F_    0.358734 0.368059 0.855788 -0.563490
S17   S     S_3+6 0.389515 0.840193 0.162191 0.127418
O49   O     O_2   0.352607 0.881352 0.141744 -0.201356
O50   O     O_2   0.425292 0.831985 0.253044 -0.139644
O51   O     O_3   0.452652 0.844198 0.148246 -0.397184
H45   H     H_    0.480670 0.868637 0.181852 0.424798
S18   S     S_3+6 0.388309 0.160605 0.161962 0.139995
O52   O     O_2   0.423416 0.168939 0.252690 -0.123609
O53   O     O_2   0.351539 0.119388 0.141246 -0.207534
O54   O     O_3   0.451925 0.156642 0.148819 -0.388509
H46   H     H_    0.479881 0.132233 0.182506 0.428259
S19   S     S_3+6 0.883831 0.332947 0.172083 0.118325
O55   O     O_2   0.852346 0.375691 0.155449 -0.216104
O56   O     O_2   0.910796 0.320959 0.259106 -0.146774
O57   O     O_3   0.953431 0.335288 0.169720 -0.392358
H47   H     H_    0.982548 0.358118 0.208415 0.415681
S20   S     S_3+6 0.880171 0.670349 0.175248 0.124997
O58   O     O_2   0.903247 0.683713 0.260273 -0.141346
O59   O     O_2   0.850130 0.627243 0.159715 -0.222466
O60   O     O_3   0.952225 0.668275 0.177838 -0.389114
H48   H     H_    0.981353 0.646193 0.218677 0.422137
F21   F     F_    0.319492 0.777558 0.876880 -0.579839
F22   F     F_    0.319704 0.222310 0.877261 -0.609384
F23   F     F_    0.832054 0.281099 0.888691 -0.581890
F24   F     F_    0.837996 0.717252 0.894895 -0.612225
F25   F     F_    0.411971 0.797980 0.999088 -0.562582
F26   F     F_    0.411660 0.202193 0.999938 -0.553204
F27   F     F_    0.920257 0.295020 0.018315 -0.560873
F28   F     F_    0.923255 0.705695 0.026814 -0.552787
S21   S     S_3+6 0.244206 0.850776 0.854855 0.181900
O61   O     O_2   0.204757 0.819406 0.785941 -0.101243
O62   O     O_2   0.193394 0.879864 0.852261 -0.204692
O63   O     O_3   0.294319 0.878733 0.837511 -0.370740
H49   H     H_    0.261268 0.892666 0.783456 0.406656
S22   S     S_3+6 0.243898 0.149351 0.854725 0.180748
O64   O     O_2   0.192331 0.120746 0.851499 -0.205875
O65   O     O_2   0.205311 0.180683 0.785702 -0.097707
O66   O     O_3   0.294071 0.120803 0.838197 -0.369233
H50   H     H_    0.261101 0.106890 0.784027 0.404839
S23   S     S_3+6 0.764179 0.357152 0.870853 0.180364
O67   O     O_2   0.725566 0.329269 0.795825 -0.098414
O68   O     O_2   0.713942 0.387612 0.866187 -0.212522
O69   O     O_3   0.823426 0.384111 0.868051 -0.372260
H51   H     H_    0.795979 0.400620 0.816168 0.404956
S24   S     S_3+6 0.771063 0.640985 0.877851 0.178894
O70   O     O_2   0.719871 0.610776 0.871560 -0.215314
O71   O     O_2   0.734417 0.667660 0.801174 -0.095856
O72   O     O_3   0.832946 0.613613 0.881004 -0.371345
H52   H     H_    0.807475 0.596351 0.829951 0.402493
S25   S     S_3+6 0.708446 0.215726 0.846069 0.139289
O73   O     O_2   0.735505 0.172010 0.858140 -0.239326
O74   O     O_2   0.631662 0.213546 0.806003 -0.116797
O75   O     O_3   0.720664 0.241158 0.781950 -0.346999
H53   H     H_    0.695355 0.224510 0.730102 0.405733
S26   S     S_3+6 0.710014 0.782217 0.841832 0.152730
O76   O     O_2   0.632450 0.782649 0.796768 -0.073134
O77   O     O_2   0.734124 0.826659 0.853385 -0.254427
O78   O     O_3   0.727815 0.756929 0.782368 -0.343270
H54   H     H_    0.760842 0.775071 0.781029 0.411236
S27   S     S_3+6 0.210377 0.708074 0.862057 0.139037
O79   O     O_2   0.241096 0.665133 0.878659 -0.248082
O80   O     O_2   0.135600 0.703876 0.830585 -0.112571
O81   O     O_3   0.212962 0.730703 0.787921 -0.347767
H55   H     H_    0.186455 0.711757 0.739459 0.405862
S28   S     S_3+6 0.209996 0.292445 0.861711 0.137106
O82   O     O_2   0.134560 0.295621 0.827893 -0.093596
O83   O     O_2   0.239111 0.335907 0.879858 -0.262234
O84   O     O_3   0.214873 0.270879 0.788296 -0.349436
H56   H     H_    0.248058 0.288446 0.786188 0.414227
F29   F     F_    0.167454 0.788681 0.869920 -0.567233
F30   F     F_    0.167074 0.211573 0.868681 -0.566104
F31   F     F_    0.672147 0.297096 0.861095 -0.563349
F32   F     F_    0.675062 0.700720 0.858510 -0.560104
F33   F     F_    0.348764 0.858498 0.002137 -0.542842
F34   F     F_    0.348101 0.141775 0.002341 -0.543378
F35   F     F_    0.860663 0.357123 0.022939 -0.544623
F36   F     F_    0.863673 0.643590 0.031164 -0.543684
S29   S     S_3+6 0.607800 0.962109 0.398647 0.157876
O85   O     O_2   0.685105 0.960796 0.464166 -0.171127
O86   O     O_2   0.587719 0.923924 0.345290 -0.144276
O87   O     O_3   0.586664 0.002462 0.334555 -0.382441
H57   H     H_    0.617171 0.999828 0.316084 0.418785
S30   S     S_3+6 0.615243 0.071172 0.448947 0.151906
O88   O     O_2   0.576469 0.080642 0.357987 -0.132487
O89   O     O_2   0.645700 0.111832 0.493796 -0.126284
O90   O     O_3   0.684590 0.041485 0.479526 -0.468805
H58   H     H_    0.709037 0.056238 0.459931 0.426210
S31   S     S_3+6 0.078658 0.434146 0.526172 0.145300
O91   O     O_2   0.154988 0.431836 0.595685 -0.192135
O92   O     O_2   0.054389 0.390987 0.491386 -0.115583
O93   O     O_3   0.065153 0.462874 0.447542 -0.384615
H59   H     H_    0.094479 0.449880 0.432961 0.403600
S32   S     S_3+6 0.100704 0.545882 0.525011 0.145199
O94   O     O_2   0.066060 0.545974 0.432997 -0.105585
O95   O     O_2   0.138449 0.586780 0.557464 -0.128285
O96   O     O_3   0.164445 0.510216 0.568923 -0.500562
H60   H     H_    0.194134 0.517592 0.550887 0.410679
F37   F     F_    0.465488 0.971988 0.299758 -0.554582
F38   F     F_    0.469497 0.047783 0.323411 -0.556829
F39   F     F_    0.939410 0.447301 0.414063 -0.561579
F40   F     F_    0.955483 0.522569 0.402106 -0.565125
F41   F     F_    0.439587 0.074708 0.400082 -0.568417
F42   F     F_    0.448714 0.926976 0.369780 -0.557171
F43   F     F_    0.922532 0.570634 0.451570 -0.570388
F44   F     F_    0.912088 0.424631 0.495704 -0.555273
F45   F     F_    0.791121 0.926083 0.745042 -0.546313
F46   F     F_    0.791470 0.073755 0.744600 -0.527513
F47   F     F_    0.276728 0.425787 0.781894 -0.561711
F48   F     F_    0.276529 0.574113 0.781043 -0.555469
S33   S     S_3+6 0.565493 0.085735 0.549242 0.111678
O97   O     O_2   0.515571 0.079030 0.571085 -0.160775
O98   O     O_2   0.638271 0.085927 0.627963 -0.217878
O99   O     O_3   0.547288 0.133516 0.506204 -0.364496
H61   H     H_    0.562098 0.153119 0.552335 0.402663
S34   S     S_3+6 0.584965 0.910642 0.499090 0.119257
O100  O     O_2   0.659289 0.910620 0.574661 -0.224394
O101  O     O_2   0.539011 0.898194 0.524465 -0.153130
O102  O     O_3   0.576108 0.872853 0.434831 -0.374275
H62   H     H_    0.595096 0.847419 0.469528 0.403689
S35   S     S_3+6 0.044465 0.589528 0.600853 0.114435
O103  O     O_2   0.989076 0.597449 0.613496 -0.154461
O104  O     O_2   0.114353 0.592347 0.683587 -0.219543
O105  O     O_3   0.037359 0.628636 0.539893 -0.365749
H63   H     H_    0.053301 0.653853 0.575377 0.400772
S36   S     S_3+6 0.044024 0.411804 0.638510 0.130153
O106  O     O_2   0.115832 0.415458 0.718239 -0.231378
O107  O     O_2   0.991945 0.413417 0.658197 -0.154741
O108  O     O_3   0.036536 0.364097 0.598873 -0.355611
H64   H     H_    0.053852 0.344625 0.645807 0.415330
F49   F     F_    0.437420 0.952051 0.484690 -0.574188
F50   F     F_    0.431874 0.019657 0.503429 -0.580606
F51   F     F_    0.894698 0.475272 0.581264 -0.565771
F52   F     F_    0.897665 0.543422 0.565836 -0.573528
S37   S     S_3+6 0.914432 0.081424 0.719275 0.110499
O109  O     O_2   0.840750 0.071669 0.647675 -0.226902
O110  O     O_2   0.914379 0.109646 0.779438 -0.160272
O111  O     O_3   0.953928 0.105334 0.682289 -0.358389
H65   H     H_    0.923983 0.129576 0.650739 0.418454
S38   S     S_3+6 0.914030 0.918586 0.719074 0.111075
O112  O     O_2   0.948726 0.896856 0.685497 -0.100679
O113  O     O_2   0.913761 0.890512 0.779142 -0.164548
O114  O     O_3   0.831754 0.930010 0.639249 -0.479694
H66   H     H_    0.810084 0.902811 0.613239 0.433219
S39   S     S_3+6 0.409710 0.580568 0.719598 0.108065
O115  O     O_2   0.334258 0.569635 0.657441 -0.239783
O116  O     O_2   0.416876 0.610185 0.782543 -0.163544
O117  O     O_3   0.439380 0.603255 0.669958 -0.365067
H67   H     H_    0.406721 0.626487 0.638251 0.420808
S40   S     S_3+6 0.409105 0.419453 0.719542 0.105677
O118  O     O_2   0.433850 0.399102 0.673213 -0.109641
O119  O     O_2   0.417011 0.389719 0.782642 -0.172309
O120  O     O_3   0.324736 0.432260 0.651832 -0.497397
H68   H     H_    0.300119 0.405371 0.628855 0.427048
F53   F     F_    0.051853 0.899025 0.854334 -0.613916
F54   F     F_    0.051763 0.101059 0.854397 -0.613918
F55   F     F_    0.552044 0.400167 0.853916 -0.612298
F56   F     F_    0.552017 0.599930 0.854035 -0.611626
F57   F     F_    0.786079 0.989215 0.407853 -0.577062
F58   F     F_    0.866654 0.929801 0.451628 -0.560238
F59   F     F_    0.287527 0.482351 0.407840 -0.565765
F60   F     F_    0.376883 0.427514 0.459178 -0.560442

loop_
_geom_bond_atom_site_label_1
_geom_bond_atom_site_label_2
_ccdc_geom_bond_type
C67   C95   S    
C21   C26   S    
C40   F11   S    
C11   H27   S    
C9    H25   S    
S3    O7    D    
C111  H17   S    
C24   C27   S    
N3    Ni3   S    
C61   C89   T    
S3    O9    S    
C39   C41   S    
C77   C89   S    
C3    C131  A    
C103  F39   S    
C16   C144  A    
C1    C129  A    
C117  C119  S    
C76   F32   S    
C95   C99   T    
S11   O31   D    
C14   C128  S    
O33   H39   S    
C88   F28   S    
N26   Ni5   S    
C2    S2    S    
C17   C61   S    
C21   F2    S    
C104  C116  S    
N18   Ni2   S    
S16   O48   S    
C19   C63   S    
C7    F55   S    
N29   Ni2   S    
O57   H47   S    
C5    F53   S    
S28   O84   S    
C42   S12   S    
S4    O12   S    
C119  C121  S    
C30   C44   T    
C73   F29   S    
S4    O11   D    
S4    O10   D    
S8    O23   D    
C65   C87   S    
C45   C47   T    
S25   O75   S    
C46   C48   T    
C11   C20   A    
C67   C85   S    
C109  C133  S    
S19   O55   D    
C37   F19   S    
C71   N11   A    
O24   H36   S    
C38   F20   S    
C72   N12   A    
C12   H28   S    
S1    O1    D    
S24   O72   S    
C78   C90   S    
O51   H45   S    
C80   C92   S    
N11   N12   A    
C24   C32   S    
C54   H10   S    
C50   C76   S    
C15   C142  A    
C78   C82   S    
C142  N22   A    
C118  C124  S    
C139  H23   S    
C10   N30   A    
N2    N5    A    
C25   F58   S    
S40   O119  D    
C7    C19   A    
C55   C57   S    
N27   N32   A    
C101  C115  S    
C23   S7    S    
S36   O106  D    
S9    O26   D    
S31   O92   D    
S18   O54   S    
C40   F12   S    
C121  F50   S    
N19   Ni3   S    
C18   C62   S    
C84   C88   S    
C97   C130  S    
C5    N25   A    
C50   C66   S    
C55   H7    S    
C59   S13   S    
O111  H65   S    
N4    Ni4   S    
C103  C116  S    
S14   O40   D    
C98   C129  S    
S37   O109  D    
N19   N20   A    
C118  C120  S    
S30   O88   D    
N23   N24   A    
C13   C127  S    
O54   H46   S    
C63   C91   T    
O72   H52   S    
C125  C127  T    
C73   C77   S    
C49   S25   S    
C87   F27   S    
C104  C107  S    
S7    O19   D    
C69   N9    A    
S38   O113  D    
N16   Ni3   S    
C53   H9    S    
O66   H50   S    
C115  C121  S    
N24   Ni8   S    
S23   O67   D    
C101  F37   S    
C56   H12   S    
C87   F23   S    
C72   F48   S    
S23   O69   S    
C4    C132  A    
O102  H62   S    
C55   H11   S    
C21   C31   S    
C1    N1    A    
C52   S28   S    
C52   C74   S    
C66   C88   S    
S9    O25   D    
S17   O50   D    
S38   O114  S    
N22   Ni6   S    
C16   C30   S    
S31   O91   D    
O75   H53   S    
N6    Ni6   S    
O18   H34   S    
N8    Ni8   S    
O81   H55   S    
S18   O53   D    
S22   O65   D    
C33   C39   S    
O27   H37   S    
C22   C25   S    
S29   O87   S    
C49   C75   S    
N25   Ni6   S    
C51   H3    S    
C53   C65   S    
S5    O13   D    
C107  C118  S    
C79   C91   S    
C82   S22   S    
S36   O108  S    
C25   F5    S    
S7    O21   S    
C40   C42   S    
C52   H4    S    
C53   H5    S    
C76   F14   S    
C122  F51   S    
C107  S35   S    
S28   O83   D    
S21   O62   D    
N28   Ni7   S    
O117  H67   S    
C4    N4    A    
C36   N6    A    
S32   O94   D    
S17   O49   D    
C109  C123  T    
C141  N21   A    
N11   Ni8   S    
C56   C68   S    
C108  S31   S    
N9    Ni6   S    
S19   O56   D    
C85   F25   S    
S37   O111  S    
O6    H30   S    
C113  H19   S    
S5    O14   D    
C26   C33   S    
C114  H20   S    
S35   O103  D    
S26   O78   S    
C119  H13   S    
S27   O81   S    
S24   O71   D    
S13   O37   D    
N25   N30   A    
C51   C67   S    
C23   C28   S    
C35   C130  A    
S10   O29   D    
O99   H61   S    
C14   C140  A    
N21   N22   A    
S33   O99   S    
C31   C45   S    
C110  C134  S    
C60   S20   S    
C93   C97   T    
C50   S26   S    
C108  S36   S    
N12   Ni7   S    
S39   O116  D    
O93   H59   S    
S2    O6    S    
O21   H35   S    
C60   C80   S    
C126  C128  T    
C31   C41   S    
C47   C135  S    
C32   C46   S    
N13   Ni2   S    
C48   C136  S    
C76   C80   S    
S20   O58   D    
C57   S15   S    
S10   O30   S    
S9    O27   S    
S3    O8    D    
N3    N8    A    
C144  N24   A    
C82   F34   S    
N31   Ni4   S    
C96   C100  T    
C138  H22   S    
C13   C138  A    
C85   F21   S    
O90   H58   S    
C75   C79   S    
N1    N6    A    
C70   F46   S    
C56   C58   S    
C12   N32   A    
S5    O15   S    
C8    N28   A    
C84   S24   S    
C9    C18   A    
S12   O34   D    
O9    H31   S    
S39   O117  S    
C81   C85   S    
C25   C33   S    
C35   N5    A    
S11   O33   S    
C83   C87   S    
S26   O77   D    
C57   S17   S    
S32   O96   S    
C80   C84   S    
C83   S23   S    
C71   C134  A    
C137  H21   S    
O105  H63   S    
S2    O4    D    
O84   H56   S    
N9    N10   A    
C104  F40   S    
S25   O74   D    
S6    O18   S    
C68   C96   S    
C116  C122  S    
C99   C132  S    
S22   O66   S    
C101  F42   S    
C139  N19   A    
C27   F60   S    
C5    C17   A    
S34   O100  D    
C94   C98   T    
C39   F10   S    
S27   O79   D    
C113  N15   A    
C101  C106  S    
S13   O39   S    
C114  N16   A    
C102  C105  S    
N27   Ni8   S    
S26   O76   D    
C22   F1    S    
C102  C115  S    
C110  C124  T    
C15   C141  A    
C122  F52   S    
C70   N10   A    
C21   S5    S    
N17   Ni1   S    
C28   F8    S    
N30   Ni1   S    
C3    S3    S    
O36   H40   S    
C6    F54   S    
C56   H8    S    
C143  S39   S    
C50   H2    S    
S1    O2    D    
C28   C34   S    
S39   O115  D    
O30   H38   S    
C29   C43   T    
C105  C117  S    
C41   S10   S    
C74   F30   S    
S20   O60   S    
S36   O107  D    
C15   C29   S    
S6    O17   D    
C142  S38   S    
C37   N7    A    
C38   N8    A    
C121  F49   S    
O48   H44   S    
C57   C77   S    
C16   C143  A    
S14   O42   S    
C54   H6    S    
C59   C79   S    
C23   F4    S    
N2    Ni2   S    
C82   C86   S    
O120  H68   S    
O108  H64   S    
C72   C134  A    
C26   F6    S    
N32   Ni3   S    
C77   C81   S    
C143  N23   A    
C75   F13   S    
C49   H1    S    
C11   N31   A    
S30   O89   D    
C26   F57   S    
C54   C66   S    
C3    N3    A    
C106  C117  S    
C1    S1    S    
C64   C92   T    
C112  H18   S    
S8    O22   D    
S1    O3    S    
S6    O16   D    
C59   S19   S    
C105  S30   S    
C144  S40   S    
C106  S29   S    
O87   H57   S    
S30   O90   S    
S23   O68   D    
C10   H26   S    
S2    O5    D    
C23   C32   S    
N4    N7    A    
C41   S9    S    
N15   N16   A    
O60   H48   S    
C36   C129  A    
C79   C83   S    
C111  C135  A    
N13   N14   A    
C12   C19   A    
C65   C93   S    
C2    C130  A    
C4    S4    S    
S33   O97   D    
N17   N18   A    
C81   S21   S    
C58   C78   S    
S40   O118  D    
C74   C78   S    
S29   O86   D    
C32   C42   S    
N1    Ni1   S    
C10   C17   A    
C84   F36   S    
C22   S6    S    
C140  H24   S    
S31   O93   S    
C83   F35   S    
C71   F47   S    
C68   C86   S    
O42   H42   S    
C81   F33   S    
S15   O43   D    
C20   C64   S    
C53   C59   S    
C100  C131  S    
C54   C60   S    
S21   O61   D    
O15   H33   S    
C8    C20   A    
C49   C65   S    
C34   C40   S    
O39   H41   S    
S32   O95   D    
C119  H14   S    
C112  N14   A    
C104  F43   S    
N7    Ni7   S    
N5    Ni5   S    
C42   S11   S    
S37   O110  D    
C60   S14   S    
S27   O80   D    
C113  C136  A    
N15   Ni4   S    
C120  H15   S    
O96   H60   S    
S12   O36   S    
C103  C108  S    
C120  H16   S    
C52   C68   S    
S8    O24   S    
C66   C94   S    
S38   O112  D    
S33   O98   D    
C114  C136  A    
C107  S32   S    
N20   Ni4   S    
C138  N18   A    
S15   O45   S    
C120  C122  S    
S35   O105  S    
C75   F31   S    
C27   C34   S    
C6    C18   A    
C111  N13   A    
C36   F18   S    
C22   C31   S    
C33   C43   S    
C108  C118  S    
C34   C44   S    
O3    H29   S    
S20   O59   D    
C6    N26   A    
S17   O51   S    
S7    O20   D    
S35   O104  D    
C8    F56   S    
N10   Ni5   S    
C86   F26   S    
C105  S33   S    
C13   C137  A    
C58   S18   S    
C24   F3    S    
N23   Ni7   S    
S18   O52   D    
C70   C133  A    
C73   F15   S    
N21   Ni5   S    
S40   O120  S    
C74   F16   S    
N26   N29   A    
C102  F41   S    
O63   H49   S    
S15   O44   D    
C35   F17   S    
C9    N29   A    
C88   F24   S    
C137  N17   A    
S16   O46   D    
S12   O35   D    
O69   H51   S    
C140  N20   A    
C103  F44   S    
C24   S8    S    
C112  C135  A    
S28   O82   D    
O78   H54   S    
S21   O63   S    
S11   O32   D    
O45   H43   S    
C69   C133  A    
N14   Ni1   S    
C51   C73   S    
C69   F45   S    
C55   C67   S    
C27   F7    S    
S25   O73   D    
C102  F38   S    
C115  C125  S    
C37   C132  A    
S19   O57   S    
C38   C131  A    
C86   F22   S    
C28   F59   S    
C117  C123  S    
C2    N2    A    
S14   O41   D    
C106  S34   S    
S22   O64   D    
S29   O85   D    
S34   O101  D    
C39   F9    S    
N28   N31   A    
C62   C90   T    
S16   O47   D    
S24   O70   D    
S13   O38   D    
C7    N27   A    
O114  H66   S    
C58   S16   S    
S10   O28   D    
C141  S37   S    
C14   C139  A    
O12   H32   S    
C116  C126  S    
C51   S27   S    
S34   O102  S    
