data_mof_unit_23204.cif
_audit_creation_date              2012-12-10T18:57:42-0500
_audit_creation_method            fapswitch 2.2
_symmetry_space_group_name_H-M    P1
_symmetry_Int_Tables_number       1
_space_group_crystal_system       triclinic
_cell_length_a                    10.936671
_cell_length_b                    10.808688
_cell_length_c                    9.542955
_cell_angle_alpha                 89.873211
_cell_angle_beta                  89.975946
_cell_angle_gamma                 90.537093
_cell_volume                      1128.03043511

loop_
_atom_site_label
_atom_site_type_symbol
_atom_type_description
_atom_site_fract_x
_atom_site_fract_y
_atom_site_fract_z
_atom_type_partial_charge
C1    C     C_R   0.501859 0.262310 0.500006 0.794364
C2    C     C_R   0.514271 0.129376 0.498873 -0.088220
C3    C     C_R   0.517290 0.064788 0.371142 -0.185764
C4    C     C_R   0.518880 0.935979 0.371032 -0.219566
C5    C     C_R   0.516705 0.870766 0.498705 -0.029804
C6    C     C_R   0.531648 0.936553 0.623527 0.035168
C7    C     C_3   0.467185 0.926422 0.761683 0.192719
C8    C     C_3   0.462350 0.067607 0.760396 0.251309
C9    C     C_R   0.564420 0.587940 0.073190 0.126991
C10   C     C_R   0.425761 0.422426 0.075293 -0.132654
C11   C     C_R   0.422383 0.424363 0.925314 0.554891
C12   C     C_R   0.265314 0.499418 0.499839 0.896022
C13   C     C_R   0.564619 0.587717 0.925906 0.100178
C14   C     C_3   0.698886 0.610892 0.919647 0.429912
C15   C     C_3   0.699008 0.610823 0.078522 -0.507231
C16   C     C_R   0.503193 0.737657 0.499808 0.837156
C17   C     C_R   0.734594 0.497305 0.500374 0.882555
C18   C     C_2   0.932684 0.479993 0.387063 -0.228841
C19   C     C_2   0.866344 0.489123 0.504292 -0.401118
C20   C     C_2   0.066318 0.473395 0.387299 0.633517
C21   C     C_2   0.133254 0.502844 0.500769 -0.431521
C22   C     C_R   0.531088 0.063896 0.623371 -0.114336
Cu1   Cu    Cu3+1 0.499990 0.499980 0.640670 1.005692
Cu2   Cu    Cu3+1 0.500010 0.500020 0.359330 0.968645
H1    H     H_    0.888142 0.474484 0.285951 0.183112
H2    H     H_    0.369893 0.356995 0.133046 0.186567
H3    H     H_    0.751824 0.534150 0.872638 0.092926
H4    H     H_    0.749189 0.530975 0.122197 0.164129
H5    H     H_    0.722246 0.702118 0.125422 0.220444
H6    H     H_    0.907053 0.486545 0.607565 0.150793
H7    H     H_    0.092438 0.532659 0.598100 0.097462
H8    H     H_    0.511743 0.112860 0.271685 0.176165
H9    H     H_    0.514640 0.888183 0.271457 0.165545
H10   H     H_    0.527674 0.884997 0.843029 0.143122
H11   H     H_    0.368363 0.103722 0.746272 0.166265
N1    N     N_R   0.500780 0.500930 0.147930 -0.209382
N2    N     N_R   0.500780 0.500890 0.852020 -0.262212
O1    O     O_R   0.500000 0.319640 0.618810 -0.543581
O2    O     O_R   0.500010 0.319680 0.381230 -0.594484
O3    O     O_R   0.321940 0.499980 0.618760 -0.576987
O4    O     O_R   0.321950 0.500020 0.381180 -0.516745
O5    O     O_R   0.499990 0.680320 0.618770 -0.537663
O6    O     O_R   0.500000 0.680360 0.381190 -0.599585
O7    O     O_R   0.678050 0.499980 0.618820 -0.594353
O8    O     O_R   0.678060 0.500020 0.381240 -0.582945
O9    O     O_3   0.520440 0.121878 0.879665 -0.571096
C23   C     C_3   0.648493 0.137448 0.866159 0.097494
H12   H     H_    0.670402 0.205799 0.782324 0.164393
H13   H     H_    0.693405 0.047779 0.843209 0.158696
C24   C     C_3   0.700073 0.187195 0.003119 -0.790202
H14   H     H_    0.681748 0.120364 0.089296 0.249158
H15   H     H_    0.800427 0.201250 0.993187 0.199013
H16   H     H_    0.657372 0.277155 0.028899 0.241979
O10   O     O_3   0.348569 0.342247 0.851845 -0.542102
C25   C     C_3   0.224192 0.351753 0.892397 0.041723
H17   H     H_    0.169290 0.371322 0.797203 0.163288
H18   H     H_    0.204381 0.428101 0.967449 0.156636
C26   C     C_3   0.179278 0.229113 0.953491 -0.764916
H19   H     H_    0.236063 0.201966 0.044619 0.251865
H20   H     H_    0.082858 0.238037 0.988272 0.219976
H21   H     H_    0.183860 0.155402 0.872924 0.231427
F1    F     F_    0.725725 0.726313 0.863919 -0.671843
F2    F     F_    0.120831 0.438179 0.265637 -0.682726
O11   O     O_3   0.350496 0.870757 0.746499 -0.578390
C27   C     C_3   0.303164 0.840991 0.880025 0.071510
H22   H     H_    0.291466 0.926177 0.943963 0.149003
H23   H     H_    0.364177 0.775565 0.936287 0.143835
C28   C     C_3   0.179093 0.778149 0.862861 -0.743158
H24   H     H_    0.188754 0.691951 0.800736 0.244665
H25   H     H_    0.140907 0.754161 0.967405 0.208309
H26   H     H_    0.115035 0.841171 0.808261 0.252811

loop_
_geom_bond_atom_site_label_1
_geom_bond_atom_site_label_2
_ccdc_geom_bond_type
C2    C22   A    
C9    N1    A    
C8    C22   S    
Cu1   Cu2   S    
C12   O3    A    
C6    C7    S    
C14   H3    S    
Cu1   O1    S    
C21   H7    S    
C13   N2    A    
C23   H12   S    
C14   C15   S    
C25   H17   S    
C27   C28   S    
O11   C27   S    
C10   H2    S    
C20   F2    S    
C2    C3    A    
C9    C15   S    
C17   O7    A    
C7    C8    S    
C23   H13   S    
C13   C14   S    
C27   H22   S    
Cu2   O4    S    
Cu1   O5    S    
C16   O6    A    
C15   H4    S    
Cu2   N1    S    
C18   H1    S    
C1    O1    A    
C26   H21   S    
C28   H26   S    
C5    C6    A    
Cu2   O8    S    
C11   O10   S    
C17   C19   S    
C17   O8    A    
C15   H5    S    
C23   C24   S    
C18   C20   S    
C25   H18   S    
C3    H8    S    
C7    H10   S    
C8    O9    S    
C7    O11   S    
C24   H16   S    
C10   C11   A    
C1    O2    A    
C26   H20   S    
Cu1   O3    S    
C14   F1    S    
C16   O5    A    
C4    C5    A    
Cu2   O2    S    
C20   C21   D    
C12   O4    A    
C28   H25   S    
C1    C2    S    
O9    C23   S    
C25   C26   S    
C24   H15   S    
C11   N2    A    
Cu2   O6    S    
C9    C13   A    
O10   C25   S    
C18   C19   D    
C5    C16   S    
C10   N1    A    
C4    H9    S    
C24   H14   S    
C26   H19   S    
Cu1   N2    S    
C19   H6    S    
C12   C21   S    
Cu1   O7    S    
C3    C4    A    
C28   H24   S    
C27   H23   S    
C8    H11   S    
C6    C22   A    
