data_mof_unit_29083.cif
_audit_creation_date              2012-10-26T19:52:28-0400
_audit_creation_method            fapswitch 2.2
_symmetry_space_group_name_H-M    P1
_symmetry_Int_Tables_number       1
_space_group_crystal_system       triclinic
_cell_length_a                    9.554502
_cell_length_b                    10.843815
_cell_length_c                    13.441308
_cell_angle_alpha                 90.770417
_cell_angle_beta                  72.612322
_cell_angle_gamma                 90.774786
_cell_volume                      1328.7947666

loop_
_atom_site_label
_atom_site_type_symbol
_atom_type_description
_atom_site_fract_x
_atom_site_fract_y
_atom_site_fract_z
_atom_type_partial_charge
C1    C     C_R   0.499601 0.737519 0.503133 0.553468
C2    C     C_R   0.373265 0.486738 0.814676 -0.000222
C3    C     C_R   0.366619 0.933811 0.526819 0.020845
C4    C     C_R   0.421437 0.493344 0.699956 0.538424
C5    C     C_R   0.496306 0.870331 0.515631 0.008087
C6    C     C_R   0.621348 0.937279 0.519874 -0.159321
C7    C     C_R   0.620450 0.065976 0.519019 -0.163907
C8    C     C_R   0.494728 0.128763 0.513556 0.006990
C9    C     C_R   0.365515 0.060790 0.525729 0.022705
C10   C     C_3   0.258177 0.060822 0.464588 -0.278756
C11   C     C_3   0.259010 0.921252 0.466685 -0.262107
C12   C     C_R   0.431964 0.477843 0.979717 0.035087
C13   C     C_R   0.961574 0.459519 0.414700 0.133095
C14   C     C_R   0.895145 0.559727 0.576478 0.193276
C15   C     C_R   0.043836 0.556958 0.577278 -0.014657
C16   C     C_R   0.498587 0.262100 0.502159 0.540750
C17   C     C_R   0.108897 0.461487 0.413957 0.146736
C18   C     C_3   0.135834 0.338774 0.361745 -0.278972
C19   C     C_3   0.975846 0.335445 0.364210 -0.279545
C20   C     C_R   0.578380 0.498123 0.300037 0.543803
C21   C     C_R   0.786856 0.398960 0.027614 -0.139341
C22   C     C_R   0.621937 0.481819 0.186713 -0.002233
C23   C     C_R   0.469589 0.450881 0.871429 0.027717
C24   C     C_R   0.231697 0.527288 0.868706 -0.134720
C25   C     C_R   0.188214 0.538996 0.976435 -0.147276
C26   C     C_R   0.287300 0.517203 0.031579 -0.124187
C27   C     C_R   0.540314 0.463539 0.031735 0.029513
C28   C     C_R   0.678119 0.411488 0.977770 0.048425
C29   C     C_R   0.704847 0.370224 0.875375 -0.153475
C30   C     C_R   0.601263 0.387583 0.823494 -0.126334
C31   C     C_R   0.516838 0.501298 0.135482 -0.137385
C32   C     C_R   0.758718 0.433668 0.131789 -0.141510
Cu1   Cu    Cu3+1 0.359330 0.500020 0.500010 0.929472
Cu2   Cu    Cu3+1 0.640670 0.499980 0.499990 0.961990
H1    H     H_    0.841675 0.418807 0.170086 0.117953
H2    H     H_    0.961653 0.337819 0.285299 0.120450
H3    H     H_    0.806746 0.324849 0.834857 0.107402
H4    H     H_    0.910426 0.263380 0.416469 0.141599
H5    H     H_    0.892454 0.359765 0.986642 0.110700
H6    H     H_    0.416799 0.545766 0.178969 0.116914
H7    H     H_    0.154863 0.552527 0.827477 0.123833
H8    H     H_    0.245881 0.529294 0.114899 0.097436
H9    H     H_    0.078175 0.569057 0.017316 0.120462
H10   H     H_    0.625326 0.348253 0.746062 0.149008
H11   H     H_    0.721853 0.890952 0.517990 0.135774
H12   H     H_    0.720391 0.115326 0.517217 0.125619
H13   H     H_    0.827497 0.721118 0.649752 0.193889
H14   H     H_    0.792204 0.596762 0.727866 0.211214
H15   H     H_    0.150712 0.099239 0.510596 0.129568
H16   H     H_    0.306347 0.098031 0.384783 0.133928
H17   H     H_    0.153088 0.880359 0.514037 0.134651
H18   H     H_    0.306832 0.878342 0.388417 0.143964
H19   H     H_    0.074789 0.601529 0.640186 0.111254
H20   H     H_    0.213649 0.344165 0.281696 0.127658
H21   H     H_    0.162077 0.270009 0.412642 0.147591
N1    N     N_R   0.852320 0.499070 0.499340 -0.203221
N2    N     N_R   0.148230 0.499110 0.499340 -0.244503
N3    N     N_3   0.791534 0.629271 0.655142 -0.555932
O1    O     O_R   0.381190 0.680360 0.500000 -0.504110
O2    O     O_R   0.618780 0.680320 0.499990 -0.480731
O3    O     O_R   0.323230 0.500000 0.650990 -0.514845
O4    O     O_R   0.560820 0.499960 0.650980 -0.468883
O5    O     O_R   0.381220 0.319680 0.500010 -0.498470
O6    O     O_R   0.618810 0.319640 0.500000 -0.519143
O7    O     O_R   0.439180 0.500040 0.349020 -0.505482
O8    O     O_R   0.676770 0.500000 0.349010 -0.501985

loop_
_geom_bond_atom_site_label_1
_geom_bond_atom_site_label_2
_ccdc_geom_bond_type
C2    C4    S    
C23   C30   A    
C4    O3    A    
H14   N3    S    
C6    C7    A    
C3    C9    A    
C6    H11   S    
C9    C10   S    
C14   N1    A    
C21   H5    S    
C13   C17   A    
Cu1   O5    S    
C13   N1    A    
C30   H10   S    
C22   C31   A    
C25   H9    S    
Cu2   O6    S    
C17   C18   S    
Cu1   O7    S    
C7    C8    A    
Cu1   O1    S    
C24   C25   A    
H13   N3    S    
Cu2   N1    S    
C24   H7    S    
C15   N2    A    
C12   C23   A    
Cu2   O8    S    
C29   C30   A    
C22   C32   A    
C18   H21   S    
C1    C5    S    
C15   H19   S    
C20   O8    A    
C28   C29   A    
C16   O5    A    
C21   C28   A    
C20   C22   S    
Cu1   Cu2   S    
C19   H2    S    
C1    O1    A    
C2    C24   A    
C5    C6    A    
C14   N3    S    
C21   C32   A    
C11   H17   S    
C10   C11   S    
C13   C19   S    
C12   C27   A    
C27   C31   A    
C10   H16   S    
C7    H12   S    
C4    O4    A    
C20   O7    A    
Cu2   O4    S    
C19   H4    S    
C3    C11   S    
C31   H6    S    
C26   H8    S    
C2    C23   A    
Cu1   O3    S    
C18   C19   S    
C8    C16   S    
C1    O2    A    
C29   H3    S    
C27   C28   A    
C18   H20   S    
C14   C15   A    
Cu1   N2    S    
C11   H18   S    
C16   O6    A    
C12   C26   A    
C25   C26   A    
C10   H15   S    
Cu2   O2    S    
C32   H1    S    
C17   N2    A    
C8    C9    A    
C3    C5    A    
