data_mof_unit_5842.cif
_audit_creation_date              2012-12-11T14:54:21-0500
_audit_creation_method            fapswitch 2.2
_symmetry_space_group_name_H-M    P1
_symmetry_Int_Tables_number       1
_space_group_crystal_system       triclinic
_cell_length_a                    19.092083
_cell_length_b                    11.023955
_cell_length_c                    18.810358
_cell_angle_alpha                 89.828298
_cell_angle_beta                  89.925059
_cell_angle_gamma                 89.71567
_cell_volume                      3958.95117636

loop_
_atom_site_label
_atom_site_type_symbol
_atom_type_description
_atom_site_fract_x
_atom_site_fract_y
_atom_site_fract_z
_atom_type_partial_charge
C1    C     C_R   0.729569 0.374763 0.645248 0.563612
C2    C     C_R   0.269480 0.375489 0.354045 0.545048
C3    C     C_R   0.229569 0.874763 0.645248 0.563612
C4    C     C_R   0.769480 0.875489 0.354045 0.545048
C5    C     C_3   0.470058 0.385304 0.458472 0.171602
C6    C     C_3   0.496809 0.393840 0.536258 0.111375
C7    C     C_3   0.970058 0.885304 0.458472 0.171602
C8    C     C_3   0.996809 0.893840 0.536258 0.111376
C9    C     C_R   0.700396 0.853339 0.539564 0.226780
C10   C     C_R   0.306996 0.861139 0.462377 0.192423
C11   C     C_R   0.200396 0.353339 0.539564 0.226780
C12   C     C_R   0.806996 0.361139 0.462377 0.192423
C13   C     C_R   0.707272 0.833057 0.466638 -0.111176
C14   C     C_R   0.303855 0.858363 0.536723 -0.133349
C15   C     C_R   0.207272 0.333057 0.466638 -0.111176
C16   C     C_R   0.803855 0.358363 0.536723 -0.133349
C17   C     C_R   0.746057 0.913217 0.423933 -0.048375
C18   C     C_R   0.244906 0.903792 0.571842 0.002011
C19   C     C_R   0.246057 0.413217 0.423933 -0.048375
C20   C     C_R   0.744906 0.403792 0.571841 0.002011
C21   C     C_R   0.770885 0.020058 0.452150 -0.116897
C22   C     C_R   0.190546 0.953559 0.533036 -0.097594
C23   C     C_R   0.270886 0.520058 0.452150 -0.116896
C24   C     C_R   0.690546 0.453559 0.533036 -0.097594
C25   C     C_R   0.766926 0.039168 0.524361 -0.108197
C26   C     C_R   0.193888 0.963366 0.461325 -0.145722
C27   C     C_R   0.266926 0.539168 0.524361 -0.108197
C28   C     C_R   0.693888 0.463366 0.461325 -0.145722
C29   C     C_R   0.737617 0.951577 0.569283 0.050872
C30   C     C_R   0.251939 0.920619 0.424332 0.001099
C31   C     C_R   0.237617 0.451577 0.569283 0.050872
C32   C     C_R   0.751939 0.420619 0.424331 0.001099
C33   C     C_R   0.480314 0.060548 0.956894 -0.134678
C34   C     C_R   0.473382 0.056948 0.029455 -0.133729
C35   C     C_R   0.980311 0.560550 0.956893 -0.134677
C36   C     C_R   0.973379 0.556949 0.029454 -0.133728
C37   C     C_R   0.483952 0.161752 0.070293 0.033010
C38   C     C_R   0.502090 0.167212 0.923634 0.031343
C39   C     C_R   0.983951 0.661752 0.070292 0.033010
C40   C     C_R   0.002089 0.667213 0.923634 0.031343
C41   C     C_R   0.500732 0.271418 0.036847 -0.143169
C42   C     C_R   0.510387 0.274023 0.963481 -0.138435
C43   C     C_R   0.000734 0.771418 0.036847 -0.143170
C44   C     C_R   0.010388 0.774023 0.963482 -0.138435
C45   C     C_R   0.563419 0.151654 0.639104 0.550587
C46   C     C_R   0.469622 0.154660 0.351857 0.562888
C47   C     C_R   0.063418 0.651654 0.639104 0.550587
C48   C     C_R   0.969622 0.654660 0.351857 0.562888
C49   C     C_R   0.815859 0.928216 0.956177 -0.131324
C50   C     C_R   0.222029 0.058547 0.019771 -0.131760
C51   C     C_R   0.315859 0.428217 0.956177 -0.131323
C52   C     C_R   0.722030 0.558548 0.019770 -0.131760
C53   C     C_R   0.821756 0.917717 0.028761 -0.127178
C54   C     C_R   0.214421 0.029221 0.948569 -0.122616
C55   C     C_R   0.321756 0.417718 0.028761 -0.127177
C56   C     C_R   0.714422 0.529222 0.948569 -0.122615
C57   C     C_R   0.762007 0.897944 0.070959 0.032669
C58   C     C_R   0.252720 0.932287 0.919365 0.030393
C59   C     C_R   0.262006 0.397944 0.070959 0.032669
C60   C     C_R   0.752720 0.432286 0.919365 0.030393
C61   C     C_R   0.696488 0.883624 0.039368 -0.151593
C62   C     C_R   0.303486 0.872750 0.960637 -0.139443
C63   C     C_R   0.196488 0.383623 0.039368 -0.151592
C64   C     C_R   0.803485 0.372747 0.960638 -0.139444
C65   C     C_R   0.690376 0.895528 0.966196 -0.139535
C66   C     C_R   0.311426 0.902870 0.031914 -0.132760
C67   C     C_R   0.190376 0.395527 0.966195 -0.139535
C68   C     C_R   0.811425 0.402867 0.031914 -0.132761
C69   C     C_R   0.749926 0.921952 0.924790 0.033085
C70   C     C_R   0.268644 0.992796 0.062527 0.028103
C71   C     C_R   0.249926 0.421952 0.924789 0.033085
C72   C     C_R   0.768644 0.492795 0.062527 0.028103
C73   C     C_R   0.738380 0.977460 0.644714 0.612464
C74   C     C_R   0.259168 0.968138 0.352442 0.587530
C75   C     C_R   0.238380 0.477460 0.644714 0.612464
C76   C     C_R   0.759168 0.468138 0.352442 0.587530
C77   C     C_R   0.730225 0.380094 0.851798 0.554384
C78   C     C_R   0.272571 0.373574 0.145704 0.536597
C79   C     C_R   0.230225 0.880094 0.851798 0.554383
C80   C     C_R   0.772571 0.873574 0.145704 0.536597
C81   C     C_R   0.531911 0.157441 0.852919 0.562698
C82   C     C_R   0.464776 0.156333 0.144948 0.532427
C83   C     C_R   0.031911 0.657441 0.852919 0.562698
C84   C     C_R   0.964775 0.656334 0.144948 0.532426
C85   C     C_R   0.741126 0.970570 0.853917 0.560962
C86   C     C_R   0.272308 0.020203 0.138433 0.545809
C87   C     C_R   0.241126 0.470570 0.853917 0.560962
C88   C     C_R   0.772308 0.520203 0.138433 0.545809
C89   C     C_R   0.508815 0.162252 0.417577 0.036455
C90   C     C_R   0.549128 0.160860 0.562883 0.006763
C91   C     C_R   0.008815 0.662252 0.417577 0.036455
C92   C     C_R   0.049128 0.660860 0.562883 0.006763
C93   C     C_R   0.503545 0.264078 0.459735 -0.017674
C94   C     C_R   0.524825 0.266384 0.528599 -0.016822
C95   C     C_R   0.003545 0.764078 0.459735 -0.017674
C96   C     C_R   0.024825 0.766384 0.528599 -0.016822
C97   C     C_R   0.561211 0.059017 0.519324 -0.154316
C98   C     C_R   0.543435 0.060731 0.446878 -0.106990
C99   C     C_R   0.061211 0.559017 0.519324 -0.154316
C100  C     C_R   0.043435 0.560731 0.446878 -0.106991
Cr1   Cr    Cr6+3 0.771950 0.169480 0.750100 1.054235
Cr2   Cr    Cr6+3 0.228050 0.169480 0.249900 1.043861
Cr3   Cr    Cr6+3 0.271950 0.669480 0.750100 1.054235
Cr4   Cr    Cr6+3 0.728050 0.669480 0.249900 1.043861
Cr5   Cr    Cr6+3 0.614930 0.323340 0.749170 1.088189
Cr6   Cr    Cr6+3 0.385070 0.323340 0.250830 1.125317
Cr7   Cr    Cr6+3 0.114930 0.823340 0.749170 1.088189
Cr8   Cr    Cr6+3 0.885070 0.823340 0.250830 1.125317
Cr9   Cr    Cr6+3 0.616590 0.010620 0.750610 1.098775
Cr10  Cr    Cr6+3 0.383410 0.010620 0.249390 1.112243
Cr11  Cr    Cr6+3 0.116590 0.510620 0.750610 1.098775
Cr12  Cr    Cr6+3 0.883410 0.510620 0.249390 1.112243
H1    H     H_    0.581890 0.976654 0.541673 0.180041
H2    H     H_    0.552890 0.980303 0.415391 0.182270
H3    H     H_    0.081890 0.476653 0.541673 0.180041
H4    H     H_    0.052890 0.480303 0.415391 0.182270
H5    H     H_    0.862349 0.947593 0.925099 0.138519
H6    H     H_    0.189682 0.129789 0.042088 0.131325
H7    H     H_    0.362349 0.447595 0.925100 0.138519
H8    H     H_    0.689684 0.629791 0.042087 0.131325
H9    H     H_    0.873612 0.924077 0.051652 0.139875
H10   H     H_    0.175505 0.077752 0.917565 0.139992
H11   H     H_    0.373612 0.424080 0.051653 0.139874
H12   H     H_    0.675507 0.577754 0.917564 0.139992
H13   H     H_    0.650431 0.864561 0.071117 0.126982
H14   H     H_    0.333738 0.797816 0.939323 0.133402
H15   H     H_    0.150431 0.364558 0.071117 0.126982
H16   H     H_    0.833736 0.297812 0.939324 0.133403
H17   H     H_    0.638644 0.891042 0.942790 0.139259
H18   H     H_    0.348711 0.851897 0.063560 0.135181
H19   H     H_    0.138644 0.391039 0.942790 0.139259
H20   H     H_    0.848709 0.351892 0.063561 0.135181
H21   H     H_    0.912277 0.878718 0.453065 0.172888
H22   H     H_    0.037112 0.962637 0.543387 0.120323
H23   H     H_    0.412277 0.378718 0.453065 0.172888
H24   H     H_    0.537112 0.462636 0.543387 0.120322
H25   H     H_    0.685425 0.751643 0.443764 0.190885
H26   H     H_    0.345343 0.815327 0.566975 0.160029
H27   H     H_    0.185425 0.251643 0.443764 0.190885
H28   H     H_    0.845343 0.315327 0.566975 0.160029
H29   H     H_    0.795851 0.085152 0.418244 0.229718
H30   H     H_    0.144063 0.983396 0.558904 0.215528
H31   H     H_    0.295851 0.585152 0.418244 0.229718
H32   H     H_    0.644063 0.483396 0.558904 0.215527
H33   H     H_    0.787669 0.122082 0.545571 0.185278
H34   H     H_    0.152146 0.012367 0.435887 0.242233
H35   H     H_    0.287670 0.622082 0.545571 0.185279
H36   H     H_    0.652146 0.512367 0.435887 0.242233
H37   H     H_    0.472899 0.977243 0.927444 0.135356
H38   H     H_    0.458517 0.971309 0.053205 0.134296
H39   H     H_    0.972894 0.477246 0.927443 0.135356
H40   H     H_    0.958511 0.471311 0.053204 0.134296
H41   H     H_    0.507074 0.353878 0.067283 0.132876
H42   H     H_    0.527585 0.357539 0.938679 0.136919
H43   H     H_    0.007077 0.853876 0.067284 0.132876
H44   H     H_    0.027589 0.857538 0.938680 0.136920
O1    O     O_R   0.787510 0.042610 0.670410 -0.443083
O2    O     O_R   0.212490 0.042610 0.329590 -0.503771
O3    O     O_R   0.287510 0.542610 0.670410 -0.443083
O4    O     O_R   0.712490 0.542610 0.329590 -0.503771
O5    O     O_R   0.556450 0.252890 0.823790 -0.491038
O6    O     O_R   0.443550 0.252890 0.176210 -0.500694
O7    O     O_R   0.056450 0.752890 0.823790 -0.491039
O8    O     O_R   0.943550 0.752890 0.176210 -0.500694
O9    O     O_R   0.545750 0.051070 0.830560 -0.520809
O10   O     O_R   0.454250 0.051070 0.169440 -0.536791
O11   O     O_R   0.045750 0.551070 0.830560 -0.520809
O12   O     O_R   0.954250 0.551070 0.169440 -0.536790
O13   O     O_R   0.681210 0.959150 0.825320 -0.500423
O14   O     O_R   0.318790 0.959150 0.174680 -0.499627
O15   O     O_R   0.181210 0.459150 0.825320 -0.500422
O16   O     O_R   0.818790 0.459150 0.174680 -0.499628
O17   O     O_3   0.667820 0.167810 0.749960 -0.320089
O18   O     O_3   0.332180 0.167810 0.250040 -0.312534
O19   O     O_3   0.167820 0.667810 0.749960 -0.320089
O20   O     O_3   0.832180 0.667810 0.250040 -0.312534
O21   O     O_R   0.765670 0.292090 0.675090 -0.524476
O22   O     O_R   0.234330 0.292090 0.324910 -0.519791
O23   O     O_R   0.265670 0.792090 0.675090 -0.524476
O24   O     O_R   0.734330 0.792090 0.324910 -0.519791
O25   O     O_R   0.670220 0.409020 0.668560 -0.493785
O26   O     O_R   0.329780 0.409020 0.331440 -0.449456
O27   O     O_R   0.170220 0.909020 0.668560 -0.493785
O28   O     O_R   0.829780 0.909020 0.331440 -0.449456
O29   O     O_R   0.556580 0.251590 0.674980 -0.445055
O30   O     O_R   0.443420 0.251590 0.325020 -0.458780
O31   O     O_R   0.056580 0.751590 0.674980 -0.445055
O32   O     O_R   0.943420 0.751590 0.325020 -0.458780
O33   O     O_R   0.545890 0.049670 0.670030 -0.457446
O34   O     O_R   0.454110 0.049670 0.329970 -0.465872
O35   O     O_R   0.045890 0.549670 0.670030 -0.457447
O36   O     O_R   0.954110 0.549670 0.329970 -0.465872
O37   O     O_R   0.681340 0.957860 0.676500 -0.467351
O38   O     O_R   0.318660 0.957860 0.323500 -0.425362
O39   O     O_R   0.181340 0.457860 0.676500 -0.467351
O40   O     O_R   0.818660 0.457860 0.323500 -0.425362
O41   O     O_R   0.787380 0.044010 0.830940 -0.511832
O42   O     O_R   0.212620 0.044010 0.169060 -0.497462
O43   O     O_R   0.287380 0.544010 0.830940 -0.511832
O44   O     O_R   0.712620 0.544010 0.169060 -0.497461
O45   O     O_R   0.765540 0.293390 0.823910 -0.503806
O46   O     O_R   0.234460 0.293390 0.176090 -0.526870
O47   O     O_R   0.265540 0.793390 0.823910 -0.503806
O48   O     O_R   0.734460 0.793390 0.176090 -0.526870
O49   O     O_R   0.670090 0.410410 0.829090 -0.513478
O50   O     O_R   0.329910 0.410410 0.170910 -0.507524
O51   O     O_R   0.170090 0.910410 0.829090 -0.513478
O52   O     O_R   0.829910 0.910410 0.170910 -0.507524
S1    S     S_3+6 0.509230 0.479037 0.389939 0.027860
O53   O     O_2   0.569909 0.413484 0.356125 -0.326305
O54   O     O_2   0.455818 0.504084 0.333309 -0.195883
O55   O     O_3   0.535975 0.613491 0.420052 -0.489915
H45   H     H_    0.554234 0.656711 0.377712 0.377664
S2    S     S_3+6 0.427438 0.408819 0.599584 0.018964
O56   O     O_2   0.368073 0.327063 0.579439 -0.273351
O57   O     O_2   0.449098 0.379567 0.674269 -0.239647
O58   O     O_3   0.402468 0.554442 0.598260 -0.516752
H46   H     H_    0.439493 0.598283 0.624436 0.336327
S3    S     S_3+6 0.009230 0.979037 0.389939 0.027860
O59   O     O_2   0.069909 0.913484 0.356125 -0.326304
O60   O     O_2   0.955818 0.004084 0.333309 -0.195883
O61   O     O_3   0.035975 0.113491 0.420052 -0.489916
H47   H     H_    0.054234 0.156711 0.377712 0.377665
S4    S     S_3+6 0.927438 0.908819 0.599584 0.018963
O62   O     O_2   0.868073 0.827063 0.579439 -0.273352
O63   O     O_2   0.949098 0.879566 0.674269 -0.239647
O64   O     O_3   0.902468 0.054442 0.598260 -0.516752
H48   H     H_    0.939493 0.098283 0.624436 0.336326
S5    S     S_3+6 0.646589 0.752259 0.589356 -0.018339
O65   O     O_2   0.692257 0.670326 0.633462 -0.247139
O66   O     O_2   0.594626 0.814475 0.637159 -0.289203
O67   O     O_3   0.599135 0.672035 0.532294 -0.568271
H49   H     H_    0.552030 0.666952 0.554060 0.367744
S6    S     S_3+6 0.379438 0.786891 0.422288 0.019621
O68   O     O_2   0.362152 0.738548 0.349786 -0.237094
O69   O     O_2   0.438925 0.873632 0.416294 -0.279873
O70   O     O_3   0.405924 0.671600 0.473865 -0.483963
H50   H     H_    0.440379 0.708100 0.506597 0.369308
S7    S     S_3+6 0.146589 0.252259 0.589356 -0.018339
O71   O     O_2   0.192257 0.170326 0.633462 -0.247139
O72   O     O_2   0.094626 0.314475 0.637159 -0.289203
O73   O     O_3   0.099135 0.172035 0.532294 -0.568272
H51   H     H_    0.052030 0.166952 0.554060 0.367744
S8    S     S_3+6 0.879438 0.286890 0.422288 0.019621
O74   O     O_2   0.862152 0.238548 0.349786 -0.237094
O75   O     O_2   0.938925 0.373632 0.416294 -0.279873
O76   O     O_3   0.905924 0.171600 0.473865 -0.483962
H52   H     H_    0.940379 0.208100 0.506597 0.369308

loop_
_geom_bond_atom_site_label_1
_geom_bond_atom_site_label_2
_ccdc_geom_bond_type
C58   C62   A    
C74   O38   A    
Cr11  O35   S    
C93   C94   A    
C88   O16   A    
C73   O37   A    
C34   C37   A    
C41   C42   A    
C14   C18   A    
Cr1   O17   S    
C95   C96   A    
C8    C96   S    
C87   O43   A    
Cr8   O52   S    
Cr3   O3    S    
S4    O62   D    
Cr2   O2    S    
C3    O27   A    
C97   C98   A    
C34   H38   S    
C7    C8    S    
Cr4   O20   S    
C46   C89   S    
Cr4   O24   S    
C15   C19   A    
Cr8   O8    S    
C64   H16   S    
C50   C54   A    
C35   H39   S    
C37   C41   A    
Cr11  O19   S    
C56   H12   S    
C29   C73   S    
C42   H42   S    
Cr4   O4    S    
C39   C84   S    
C48   O32   A    
S5    O67   S    
C55   C59   A    
Cr2   O42   S    
C2    O26   A    
C5    C6    S    
C30   C74   S    
S2    O57   D    
C98   H2    S    
Cr3   O23   S    
S3    O60   D    
S6    O70   S    
C11   S7    S    
Cr12  O12   S    
Cr7   O31   S    
C92   C96   A    
S1    O55   S    
S8    O74   D    
C46   O34   A    
C3    C18   S    
C9    S5    S    
C63   H15   S    
C47   C92   S    
Cr1   O41   S    
Cr5   O29   S    
C26   H34   S    
C9    C13   A    
Cr6   O26   S    
C3    O23   A    
C76   O40   A    
C11   C15   A    
C78   O46   A    
Cr12  O40   S    
S7    O71   D    
Cr9   O33   S    
Cr11  O39   S    
C12   S8    S    
C48   C91   S    
C100  H4    S    
Cr10  O38   S    
C51   H7    S    
Cr12  O20   S    
Cr9   O37   S    
C23   C27   A    
C91   C100  A    
Cr3   O47   S    
C90   C97   A    
C67   C71   A    
C84   O8    A    
C9    C29   A    
C53   H9    S    
C7    S3    S    
C73   O1    A    
Cr6   O6    S    
C54   H10   S    
C11   C31   A    
Cr5   O17   S    
O70   H50   S    
C12   C32   A    
C47   O35   A    
Cr4   O44   S    
C40   C83   S    
C23   H31   S    
C16   H28   S    
S6    O69   D    
C4    O24   A    
C41   H41   S    
C43   H43   S    
C59   C78   S    
C72   C88   S    
Cr9   O13   S    
C90   C94   A    
C15   H27   S    
Cr10  O18   S    
C25   C29   A    
C12   C16   A    
C55   H11   S    
C60   C77   S    
C28   H36   S    
C10   S6    S    
C62   C66   A    
C27   C31   A    
C44   H44   S    
C14   H26   S    
C28   C32   A    
Cr10  O14   S    
Cr6   O30   S    
C10   C14   A    
S3    O59   D    
C62   H14   S    
C7    H21   S    
C1    O25   A    
S2    O56   D    
C36   H40   S    
C39   C43   A    
C82   O6    A    
C51   C55   A    
C6    C94   S    
O58   H46   S    
C83   O11   A    
Cr10  O34   S    
C17   C21   A    
C56   C60   A    
S4    O63   D    
C68   C72   A    
C35   C36   A    
C68   H20   S    
C19   C23   A    
C43   C44   A    
C78   O50   A    
C63   C67   A    
Cr6   O50   S    
S5    O65   D    
C84   O12   A    
C77   O49   A    
C65   H17   S    
Cr12  O36   S    
C10   C30   A    
C31   C75   S    
O64   H48   S    
C6    S2    S    
C8    H22   S    
C40   C44   A    
C16   C20   A    
C87   O15   A    
C52   C72   A    
C22   H30   S    
Cr3   O19   S    
S1    O53   D    
Cr6   O18   S    
S7    O72   D    
C6    H24   S    
Cr3   O43   S    
C4    O28   A    
C74   O2    A    
C57   C61   A    
Cr12  O16   S    
Cr9   O9    S    
C58   C79   S    
C86   O42   A    
C71   C87   S    
C4    C17   S    
C52   H8    S    
Cr4   O48   S    
C45   O33   A    
C80   O52   A    
C57   C80   S    
C26   C30   A    
C83   O7    A    
C79   O47   A    
C38   C81   S    
Cr2   O22   S    
Cr5   O5    S    
C37   C82   S    
C25   H33   S    
S6    O68   D    
C97   H1    S    
C70   C86   S    
S4    O64   S    
C64   C68   A    
C47   O31   A    
C69   C85   S    
C54   C58   A    
C75   O3    A    
C5    H23   S    
S8    O75   D    
C21   C25   A    
C76   O4    A    
C1    C20   S    
C53   C57   A    
O73   H51   S    
C2    C19   S    
C50   H6    S    
Cr7   O51   S    
Cr8   O32   S    
C36   C39   A    
C67   H19   S    
C24   C28   A    
Cr7   O7    S    
S2    O58   S    
C77   O45   A    
C32   C76   S    
C5    C93   S    
O76   H52   S    
C51   C71   A    
Cr5   O49   S    
Cr8   O28   S    
Cr2   O18   S    
C7    C95   S    
C59   C63   A    
C33   C38   A    
S8    O76   S    
C13   C17   A    
C89   C98   A    
C60   C64   A    
C82   O10   A    
C88   O44   A    
C18   C22   A    
C35   C40   A    
Cr2   O46   S    
C21   H29   S    
S5    O66   D    
Cr1   O45   S    
C99   C100  A    
S3    O61   S    
C81   O5    A    
Cr10  O10   S    
C45   O29   A    
C66   C70   A    
Cr7   O19   S    
C86   O14   A    
C24   H32   S    
C65   C69   A    
Cr8   O20   S    
C99   H3    S    
O67   H49   S    
S1    O54   D    
C33   H37   S    
C33   C34   A    
S7    O73   S    
Cr9   O17   S    
C79   O51   A    
C89   C93   A    
O61   H47   S    
C85   O13   A    
C50   C70   A    
C48   O36   A    
C49   C53   A    
Cr1   O21   S    
Cr1   O1    S    
C38   C42   A    
C61   C65   A    
C61   H13   S    
Cr11  O11   S    
O55   H45   S    
C46   O30   A    
C91   C95   A    
C27   H35   S    
C8    S4    S    
C22   C26   A    
C49   H5    S    
Cr7   O27   S    
C5    S1    S    
C81   O9    A    
C85   O41   A    
C49   C69   A    
C2    O22   A    
Cr5   O25   S    
C80   O48   A    
C1    O21   A    
C20   C24   A    
C45   C90   S    
C52   C56   A    
C92   C99   A    
C13   H25   S    
C66   H18   S    
Cr11  O15   S    
C75   O39   A    
