data_mof_unit_67024.cif
_audit_creation_date              2013-03-05T15:58:14-0500
_audit_creation_method            fapswitch 2.2
_symmetry_space_group_name_H-M    P1
_symmetry_Int_Tables_number       1
_space_group_crystal_system       triclinic
_cell_length_a                    8.188395
_cell_length_b                    12.638859
_cell_length_c                    14.318872
_cell_angle_alpha                 93.094515
_cell_angle_beta                  90.823251
_cell_angle_gamma                 98.163217
_cell_volume                      1464.37028333

loop_
_atom_site_label
_atom_site_type_symbol
_atom_site_description
_atom_site_fract_x
_atom_site_fract_y
_atom_site_fract_z
_atom_type_partial_charge
P1    P     P_3+3 0.054400 0.427280 0.286870 0.467417
O1    O     O_2   0.887370 0.460630 0.272300 -0.371512
O2    O     O_3   0.129410 0.451380 0.388510 -0.412095
O3    O     O_3   0.670210 0.653170 0.329170 -0.376172
O4    O     O_2   0.791066 0.591102 0.166400 -0.403726
O5    O     O_3   0.015010 0.288543 0.263683 -0.538223
O6    O     O_3   0.713817 0.784448 0.175109 -0.519919
H1    H     H_    0.728710 0.888664 0.291510 0.132461
C1    C     C_3   0.594805 0.945949 0.178102 -1.024851
H2    H     H_    0.541311 0.004722 0.224530 0.258160
H3    H     H_    0.706169 0.986821 0.144675 0.277575
P2    P     P_3+3 0.668300 0.742890 0.573060 0.440742
P3    P     P_3+3 0.132893 0.843381 0.377070 0.447045
O7    O     O_2   0.845380 0.761330 0.544970 -0.360374
O8    O     O_3   0.088930 0.704860 0.376040 -0.388927
O9    O     O_2   0.005217 0.889512 0.439837 -0.378631
O10   O     O_3   0.685683 0.767835 0.694566 -0.589640
O11   O     O_3   0.093666 0.886509 0.265994 -0.530238
C2    C     C_3   0.133184 0.810284 0.198322 0.498477
H4    H     H_    0.048309 0.734003 0.201923 0.151729
H5    H     H_    0.262296 0.794890 0.207557 0.006702
C3    C     C_3   0.114108 0.852330 0.101924 -0.977891
H6    H     H_    0.986355 0.869598 0.090547 0.292739
H7    H     H_    0.201599 0.926952 0.094895 0.255891
C4    C     C_3   0.253054 0.761223 0.658081 0.402629
H8    H     H_    0.384369 0.758435 0.673211 0.119638
H9    H     H_    0.216355 0.722966 0.587921 0.116188
C5    C     C_3   0.224639 0.877688 0.658962 -0.908179
H10   H     H_    0.211836 0.909760 0.731636 0.267390
H11   H     H_    0.328720 0.927366 0.626599 0.220915
H12   H     H_    0.109739 0.883989 0.619524 0.276333
Ba1   Ba    Ba6+2 0.855630 0.555280 0.454520 1.541861
C6    C     C_3   0.968192 0.238127 0.345625 0.388785
H13   H     H_    0.851495 0.262979 0.369776 0.088840
H14   H     H_    0.063925 0.257512 0.401704 0.139779
C7    C     C_3   0.944407 0.117950 0.324208 -0.876539
H15   H     H_    0.844842 0.095854 0.270636 0.259773
H16   H     H_    0.910440 0.075149 0.388074 0.230333
H17   H     H_    0.060767 0.093327 0.297487 0.282882
C8    C     C_3   0.729301 0.678931 0.737523 0.486679
H18   H     H_    0.827291 0.644765 0.698912 0.092263
H19   H     H_    0.619515 0.616849 0.740919 0.130274
C9    C     C_3   0.793047 0.714998 0.836477 -0.953475
H20   H     H_    0.918702 0.760940 0.834180 0.247269
H21   H     H_    0.796512 0.644943 0.879385 0.218221
H22   H     H_    0.711977 0.767872 0.870975 0.297572
P4    P     P_3+3 0.135310 0.572810 0.713130 0.480126
O12   O     O_2   0.302330 0.539400 0.727760 -0.337177
O13   O     O_3   0.060300 0.548700 0.611500 -0.399348
O14   O     O_3   0.519500 0.346920 0.670840 -0.381251
O15   O     O_3   0.161984 0.712451 0.729584 -0.591933
P5    P     P_3+3 0.061035 0.155528 0.625091 0.465696
O16   O     O_3   0.614310 0.373510 0.452640 -0.395964
O17   O     O_3   0.100780 0.295230 0.623970 -0.355444
O18   O     O_2   0.183972 0.112105 0.557427 -0.371773
O19   O     O_3   0.124901 0.118008 0.734021 -0.494467
Ba2   Ba    Ba6+2 0.334200 0.444810 0.545490 1.564005
P6    P     P_3+3 0.657490 0.653289 0.208073 0.451177
C10   C     C_3   0.639594 0.855248 0.234542 0.458602
H23   H     H_    0.524929 0.817373 0.266880 0.029751
H24   H     H_    0.502685 0.913511 0.122429 0.261659
O20   O     O_3   0.575400 0.626570 0.547370 -0.408207
C11   C     C_3   0.475488 0.306640 0.259343 0.424189
H25   H     H_    0.356245 0.327034 0.285318 0.097744
H26   H     H_    0.574086 0.375876 0.273515 0.120735
C12   C     C_3   0.459247 0.283228 0.153996 -0.952592
H27   H     H_    0.357835 0.216344 0.137357 0.280960
H28   H     H_    0.431367 0.355174 0.119230 0.223084
H29   H     H_    0.576553 0.260835 0.126468 0.264458
P7    P     P_3+3 0.526961 0.241091 0.422773 0.413735
O21   O     O_2   0.344320 0.238700 0.455090 -0.373749
O22   O     O_3   0.515492 0.215629 0.301285 -0.581694
H30   H     H_    0.140093 0.791258 0.048034 0.196582
C13   C     C_3   0.004006 0.132482 0.800074 0.257401
H31   H     H_    0.969320 0.214590 0.799418 0.086833
H32   H     H_    0.893890 0.071346 0.785031 0.044207
C14   C     C_3   0.074671 0.117216 0.897069 -0.569131
H33   H     H_    0.180693 0.181102 0.913779 0.260898
H34   H     H_    0.120444 0.038535 0.897149 0.171506
P8    P     P_3+3 0.534947 0.345956 0.792892 0.481289
C15   C     C_3   0.541466 0.144642 0.761324 0.513083
H35   H     H_    0.672453 0.173556 0.745950 -0.025874
O23   O     O_2   0.401388 0.408285 0.834935 -0.344744
O24   O     O_3   0.475739 0.214870 0.825123 -0.511090
H36   H     H_    0.467017 0.134808 0.695068 0.140694
H37   H     H_    0.618480 0.042622 0.865106 0.244625
C16   C     C_3   0.534265 0.036167 0.803243 -1.024671
H38   H     H_    0.571778 0.976734 0.750837 0.243332
H39   H     H_    0.407601 0.008475 0.826399 0.279678
C17   C     C_R   0.987100 0.444435 0.061128 -0.032572
C18   C     C_R   0.183985 0.496556 0.196661 0.255596
C19   C     C_R   0.339240 0.547044 0.227807 -0.517155
C20   C     C_R   0.451555 0.594927 0.165775 0.243924
C21   C     C_R   0.406382 0.601469 0.073068 -0.293471
C22   C     C_R   0.248344 0.555928 0.038574 0.012749
C23   C     C_R   0.138548 0.497041 0.099290 -0.035798
H40   H     H_    0.375702 0.545514 0.300611 0.177218
C24   C     C_R   0.052241 0.510313 0.904682 -0.092247
C25   C     C_R   0.943622 0.450190 0.965810 0.081082
C26   C     C_R   0.007519 0.505606 0.806148 0.252095
C27   C     C_R   0.855529 0.449208 0.775431 -0.493387
C28   C     C_R   0.742413 0.402717 0.837920 0.219931
C29   C     C_R   0.787703 0.399836 0.932093 -0.258703
C30   C     C_R   0.198509 0.571185 0.945422 -0.042664
H41   H     H_    0.497906 0.641672 0.028681 0.199353
H42   H     H_    0.700481 0.359252 0.979144 0.154279
H43   H     H_    0.820756 0.446382 0.702036 0.164769
H44   H     H_    0.901469 0.397653 0.104887 0.174797
C31   C     C_R   0.761439 0.177266 0.540063 -0.492446
C32   C     C_R   0.431961 0.812950 0.460228 -0.515502
C33   C     C_R   0.406003 0.995049 0.429427 -0.204980
C34   C     C_R   0.342127 0.887397 0.423849 0.217732
C35   C     C_R   0.577058 0.846268 0.512644 0.278699
C36   C     C_R   0.640129 0.957188 0.523838 -0.055919
C37   C     C_R   0.554788 0.031795 0.479089 -0.067664
C38   C     C_R   0.618196 0.141648 0.487166 0.268246
C39   C     C_R   0.849755 0.105120 0.581127 0.174909
C40   C     C_R   0.786781 0.996082 0.576159 -0.210591
H45   H     H_    0.334467 0.048826 0.396793 0.191292
H46   H     H_    0.855791 0.943288 0.611532 0.180344
H47   H     H_    0.810746 0.261530 0.543807 0.168156
H48   H     H_    0.382892 0.728755 0.452878 0.175818
C41   C     C_2   0.947003 0.120077 0.970771 0.510955
H49   H     H_    0.841299 0.057794 0.970102 0.027298
O25   O     O_2   0.963199 0.190536 0.033291 -0.564813
C42   C     C_2   0.276019 0.669296 0.903198 0.567954
H50   H     H_    0.206629 0.735608 0.897566 0.011992
O26   O     O_2   0.416727 0.677289 0.875133 -0.594382

loop_
_geom_bond_atom_site_label_1
_geom_bond_atom_site_label_2
_geom_bond_distance
_ccdc_geom_bond_type
C27   H43   1.082249 S    
C12   H28   1.109654 S    
C16   H38   1.110403 S    
C11   H26   1.110964 S    
C21   H41   1.078987 S    
C20   C21   1.382841 A    
C17   C25   1.413846 A    
C25   C29   1.409436 A    
C33   C34   1.384251 A    
P8    O24   1.747518 S    
C36   C37   1.423919 A    
C31   C39   1.390361 A    
C41   H49   1.083692 S    
P4    O13   1.568784 S    
C14   H33   1.112207 S    
C4    C5    1.521968 S    
C42   H50   1.083053 S    
C13   H32   1.111330 S    
O4    P6    1.543502 D    
C1    H24   1.110029 S    
O1    Ba1   2.842049 S    
C5    H10   1.108080 S    
C2    H5    1.109151 S    
P6    C20   1.823080 S    
O11   C2    1.403051 S    
P3    C34   1.830195 S    
O14   P8    1.751227 S    
H1    C10   1.111044 S    
C41   O25   1.220248 D    
C12   H29   1.110930 S    
C37   C38   1.409559 A    
C6    C7    1.517567 S    
O13   Ba2   2.900152 S    
C33   H45   1.078399 S    
P1    O1    1.502275 D    
C19   C20   1.387241 A    
C31   C38   1.392780 A    
C28   C29   1.397115 A    
C18   C23   1.438421 A    
C35   C36   1.423197 A    
C8    C9    1.526212 S    
C22   C23   1.421389 A    
C13   C14   1.529217 S    
P2    O10   1.751454 S    
P7    O21   1.568511 D    
C1    H2    1.110433 S    
O6    P6    1.748456 S    
P5    O18   1.542975 D    
P5    C39   1.845972 S    
C8    H19   1.109616 S    
C12   H27   1.110920 S    
C11   C12   1.521687 S    
C10   H23   1.110817 S    
P1    C18   1.859742 S    
P2    Ba1   3.395536 S    
O2    Ba1   2.899392 S    
Ba1   Ba2   4.539382 S    
P8    O23   1.546415 D    
O16   P7    1.751991 S    
O6    C10   1.407627 S    
P5    O17   1.750376 S    
C19   H40   1.082187 S    
C15   H35   1.112010 S    
C32   C34   1.391488 A    
C14   H34   1.111465 S    
O19   C13   1.402727 S    
C13   H31   1.114621 S    
P1    O5    1.749968 S    
C27   C28   1.389177 A    
O12   Ba2   2.842572 S    
C2    C3    1.519425 S    
C18   C19   1.394587 A    
O16   Ba2   2.895817 S    
H37   C16   1.107035 S    
P4    O15   1.749932 S    
P7    C38   1.833002 S    
C4    H8    1.099659 S    
C7    H17   1.110363 S    
P1    Ba1   3.386698 S    
P4    C26   1.870876 S    
P8    C28   1.840870 S    
C1    C10   1.520747 S    
O10   C8    1.396691 S    
C9    H20   1.109179 S    
C4    O15   1.394224 S    
C14   C41   1.498729 S    
P4    Ba2   3.387149 S    
P2    O20   1.578387 S    
P4    O12   1.502635 D    
C6    H13   1.101978 S    
O3    Ba1   2.784310 S    
Ba2   O21   2.858099 S    
C9    H21   1.107976 S    
C32   C35   1.396573 A    
C36   C40   1.418341 A    
P3    O11   1.748876 S    
C8    H18   1.105131 S    
P2    O7    1.499837 D    
C24   C26   1.448507 A    
C1    H3    1.110391 S    
C3    H7    1.110543 S    
Ba2   O20   2.807512 S    
O2    Ba2   2.796923 S    
Ba1   O16   2.808179 S    
C15   O24   1.405092 S    
C22   C30   1.420314 A    
P2    C35   1.842389 S    
C7    H15   1.106944 S    
C42   O26   1.218122 D    
O14   Ba2   2.783721 S    
C5    H12   1.105123 S    
O7    Ba1   2.857890 S    
O8    Ba1   2.784194 S    
C33   C37   1.408687 A    
C17   C23   1.409146 A    
C4    H9    1.109491 S    
O5    C6    1.397839 S    
C2    H4    1.109629 S    
P3    O8    1.735805 S    
C17   H44   1.081084 S    
C5    H11   1.107288 S    
C39   C40   1.398835 A    
C32   H48   1.081744 S    
C15   C16   1.519968 S    
C31   H47   1.082222 S    
C24   C30   1.427053 A    
C7    H16   1.106469 S    
C26   C27   1.396042 A    
C6    H14   1.106999 S    
C29   H42   1.083610 S    
C21   C22   1.410421 A    
C9    H22   1.109519 S    
C40   H46   1.075372 S    
Ba1   O13   2.796360 S    
Ba1   O20   2.896595 S    
C11   H25   1.108929 S    
C30   C42   1.474603 S    
C11   O22   1.402511 S    
C24   C25   1.427191 A    
P3    O9    1.544093 D    
O3    P6    1.735699 S    
C16   H39   1.107929 S    
C3    H6    1.110062 S    
P7    O22   1.750651 S    
C3    H30   1.106155 S    
P1    O2    1.568903 S    
C15   H36   1.111871 S    
P5    O19   1.748727 S    
O17   Ba2   2.784780 S    
