data_mof_unit_65525.cif
_audit_creation_date              2012-10-26T21:17:06-0400
_audit_creation_method            fapswitch 2.2
_symmetry_space_group_name_H-M    P1
_symmetry_Int_Tables_number       1
_space_group_crystal_system       triclinic
_cell_length_a                    14.347204
_cell_length_b                    10.943156
_cell_length_c                    9.705792
_cell_angle_alpha                 90.177646
_cell_angle_beta                  90.284837
_cell_angle_gamma                 90.423131
_cell_volume                      1523.77729019

loop_
_atom_site_label
_atom_site_type_symbol
_atom_type_description
_atom_site_fract_x
_atom_site_fract_y
_atom_site_fract_z
_atom_type_partial_charge
Br1   Br    Br    0.357287 0.318306 0.154332 -0.486318
C1    C     C_R   0.498792 0.265358 0.499910 0.565297
C2    C     C_R   0.501090 0.734677 0.500248 0.551849
C3    C     C_R   0.668905 0.500044 0.500238 0.540405
C4    C     C_1   0.228771 0.499828 0.499267 -0.005979
C5    C     C_1   0.143364 0.499780 0.499315 -0.015805
C6    C     C_1   0.042717 0.499785 0.499694 0.015580
C7    C     C_1   0.957310 0.499826 0.500109 0.011762
C8    C     C_1   0.856660 0.499902 0.500539 -0.031331
C9    C     C_1   0.771249 0.499972 0.500663 -0.031620
C10   C     C_2   0.497854 0.932723 0.387130 -0.150647
C11   C     C_2   0.505521 0.866718 0.502718 -0.114727
C12   C     C_2   0.501926 0.066668 0.386887 -0.137430
C13   C     C_2   0.493950 0.133412 0.502096 -0.106387
C14   C     C_2   0.452458 0.422429 0.920835 0.014089
C15   C     C_2   0.447197 0.427763 0.075597 0.259129
C16   C     C_R   0.331101 0.499933 0.499755 0.559996
Cu1   Cu    Cu3+1 0.500020 0.500020 0.638630 0.950422
Cu2   Cu    Cu3+1 0.499980 0.499980 0.361370 1.001131
H1    H     H_    0.489775 0.887678 0.287840 0.158656
H2    H     H_    0.517246 0.908070 0.602728 0.106164
H3    H     H_    0.510451 0.111029 0.287717 0.177029
H4    H     H_    0.412468 0.351680 0.868279 0.170143
H5    H     H_    0.532886 0.570085 0.894881 0.201269
H6    H     H_    0.549356 0.551269 0.106816 0.179266
H7    H     H_    0.481789 0.092670 0.601851 0.105415
N1    N     N_2   0.499070 0.498660 0.846910 -0.362443
N2    N     N_2   0.499040 0.498630 0.153040 -0.321886
O1    O     O_R   0.500010 0.321960 0.617040 -0.499499
O2    O     O_R   0.499990 0.321920 0.382900 -0.450050
O3    O     O_R   0.376070 0.500020 0.617100 -0.479973
O4    O     O_R   0.376040 0.499980 0.382950 -0.427368
O5    O     O_R   0.500010 0.678080 0.617100 -0.492997
O6    O     O_R   0.499990 0.678040 0.382960 -0.495451
O7    O     O_R   0.623960 0.500020 0.617050 -0.473942
O8    O     O_R   0.623930 0.499980 0.382900 -0.483746

loop_
_geom_bond_atom_site_label_1
_geom_bond_atom_site_label_2
_ccdc_geom_bond_type
C15   N2    D    
C10   C11   D    
C3    O8    A    
C5    C6    S    
Cu1   O3    S    
C8    C9    T    
C14   N1    D    
H5    N1    S    
C1    O2    A    
C14   H4    S    
C3    O7    A    
C6    C7    T    
Cu1   O1    S    
C12   C13   D    
C13   H7    S    
H6    N2    S    
Cu2   N2    S    
C10   C12   S    
C1    O1    A    
C1    C13   S    
Cu2   O4    S    
C12   H3    S    
Cu2   O8    S    
C4    C5    T    
C16   O3    A    
Cu1   O5    S    
C10   H1    S    
C4    C16   S    
C2    O5    A    
C3    C9    S    
C14   C15   S    
Cu1   Cu2   S    
Cu1   O7    S    
Br1   C15   S    
C16   O4    A    
C2    C11   S    
C2    O6    A    
Cu2   O2    S    
C11   H2    S    
Cu1   N1    S    
C7    C8    S    
Cu2   O6    S    
