data_mof_unit_56062.cif
_audit_creation_date              2012-10-26T19:23:09-0400
_audit_creation_method            fapswitch 2.2
_symmetry_space_group_name_H-M    P1
_symmetry_Int_Tables_number       1
_space_group_crystal_system       triclinic
_cell_length_a                    17.299439
_cell_length_b                    12.980947
_cell_length_c                    11.639824
_cell_angle_alpha                 99.102139
_cell_angle_beta                  90.647307
_cell_angle_gamma                 90.339155
_cell_volume                      2580.71747262

loop_
_atom_site_label
_atom_site_type_symbol
_atom_type_description
_atom_site_fract_x
_atom_site_fract_y
_atom_site_fract_z
_atom_type_partial_charge
C1    C     C_R   0.497590 0.299902 0.479798 0.577256
C2    C     C_R   0.449065 0.873215 0.505014 0.040024
C3    C     C_R   0.538138 0.021215 0.505960 -0.004771
C4    C     C_R   0.461864 0.978784 0.494038 -0.004769
C5    C     C_R   0.428555 0.399108 0.029187 -0.051314
C6    C     C_R   0.571444 0.600894 0.970813 -0.051315
C7    C     C_R   0.435474 0.410277 0.151272 0.104887
C8    C     C_R   0.564525 0.589724 0.848728 0.104885
C9    C     C_R   0.530177 0.543069 0.154576 0.081802
C10   C     C_R   0.469823 0.456931 0.845424 0.081801
C11   C     C_R   0.525838 0.536615 0.031812 0.018332
C12   C     C_R   0.502410 0.700098 0.520202 0.577260
C13   C     C_R   0.474162 0.463386 0.968188 0.018333
C14   C     C_R   0.350742 0.511282 0.515125 0.561205
C15   C     C_R   0.649258 0.488717 0.484875 0.561199
C16   C     C_R   0.266334 0.532715 0.520952 -0.020336
C17   C     C_R   0.733665 0.467281 0.479049 -0.020339
C18   C     C_R   0.222562 0.536315 0.416355 0.028961
C19   C     C_R   0.777436 0.463675 0.583645 0.028956
C20   C     C_R   0.142471 0.541501 0.420641 -0.123981
C21   C     C_R   0.857527 0.458485 0.579360 -0.123985
C22   C     C_R   0.104325 0.544358 0.525207 -0.009471
C23   C     C_R   0.512462 0.811793 0.527927 0.016914
C24   C     C_R   0.895674 0.455630 0.474795 -0.009471
C25   C     C_R   0.145821 0.549552 0.629090 -0.117077
C26   C     C_R   0.854179 0.450441 0.370911 -0.117077
C27   C     C_R   0.226591 0.546967 0.629118 0.037720
C28   C     C_R   0.773409 0.453030 0.370882 0.037722
C29   C     C_2   0.019752 0.543311 0.525087 0.010192
C30   C     C_2   0.980247 0.456676 0.474917 0.010191
C31   C     C_2   0.256123 0.537330 0.299838 0.582469
C32   C     C_2   0.743874 0.462658 0.700162 0.582475
C33   C     C_3   0.373325 0.318212 0.966953 -0.423613
C34   C     C_R   0.487539 0.188207 0.472072 0.016917
C35   C     C_3   0.626673 0.681792 0.033047 -0.423611
C36   C     C_2   0.734301 0.435098 0.255492 0.590278
C37   C     C_2   0.265700 0.564906 0.744508 0.590276
C38   C     C_3   0.020306 0.357446 0.421847 -0.379931
C39   C     C_3   0.979693 0.642540 0.578157 -0.379930
C40   C     C_2   0.370333 0.825295 0.491128 0.567195
C41   C     C_2   0.629671 0.174702 0.508849 0.567199
C42   C     C_3   0.656408 0.786754 0.560704 -0.379099
C43   C     C_3   0.343593 0.213246 0.439297 -0.379100
C44   C     C_R   0.399978 0.043001 0.472379 -0.085252
C45   C     C_R   0.600023 0.956999 0.527619 -0.085256
C46   C     C_R   0.412141 0.146580 0.460031 -0.045912
C47   C     C_R   0.587860 0.853420 0.539969 -0.045912
C48   C     C_R   0.550937 0.126784 0.494980 0.040025
Cu1   Cu    Cu3+1 0.505800 0.507690 0.615350 1.044663
Cu2   Cu    Cu3+1 0.494200 0.492310 0.384650 1.044668
H1    H     H_    0.599066 0.637947 0.800974 0.131280
H2    H     H_    0.569230 0.597670 0.205995 0.128848
H3    H     H_    0.256482 0.473767 0.130117 0.337292
H4    H     H_    0.743514 0.526219 0.869884 0.337291
H5    H     H_    0.342879 0.275277 0.028576 0.146918
H6    H     H_    0.328975 0.356198 0.918674 0.158753
H7    H     H_    0.405535 0.260534 0.905103 0.151750
H8    H     H_    0.671021 0.643809 0.081331 0.158751
H9    H     H_    0.657120 0.724724 0.971423 0.146918
H10   H     H_    0.594460 0.739472 0.094893 0.151754
H11   H     H_    0.729631 0.468526 0.092235 0.336273
H12   H     H_    0.400932 0.362055 0.199026 0.131280
H13   H     H_    0.270370 0.531490 0.907768 0.336276
H14   H     H_    0.977753 0.293317 0.395849 0.145607
H15   H     H_    0.052036 0.369764 0.342831 0.149611
H16   H     H_    0.061140 0.332104 0.486001 0.146286
H17   H     H_    0.022246 0.706670 0.604155 0.145607
H18   H     H_    0.938859 0.667883 0.514003 0.146287
H19   H     H_    0.947963 0.630221 0.657173 0.149611
H20   H     H_    0.273360 0.797715 0.393093 0.356826
H21   H     H_    0.726654 0.202281 0.606862 0.356814
H22   H     H_    0.711451 0.831943 0.568561 0.134987
H23   H     H_    0.114842 0.557069 0.710465 0.157850
H24   H     H_    0.648593 0.754391 0.642602 0.149670
H25   H     H_    0.661886 0.721606 0.487034 0.130101
H26   H     H_    0.288550 0.168056 0.431437 0.134988
H27   H     H_    0.338114 0.278392 0.512967 0.130099
H28   H     H_    0.351408 0.245611 0.357400 0.149671
H29   H     H_    0.885158 0.442926 0.289537 0.157847
H30   H     H_    0.890965 0.456614 0.658471 0.150891
H31   H     H_    0.109032 0.543369 0.341530 0.150891
H32   H     H_    0.341135 0.014251 0.467588 0.164976
H33   H     H_    0.658867 0.985748 0.532409 0.164982
H34   H     H_    0.430770 0.402330 0.794005 0.128847
N1    N     N_R   0.514530 0.519260 0.788680 -0.226722
N2    N     N_R   0.485470 0.480740 0.211320 -0.226721
O1    O     O_R   0.504120 0.354440 0.581590 -0.498984
O2    O     O_R   0.230308 0.464615 0.205391 -0.715707
O3    O     O_2   0.696527 0.395775 0.714762 -0.465930
O4    O     O_R   0.769689 0.535371 0.794611 -0.715705
O5    O     O_2   0.683821 0.368197 0.234351 -0.444411
O6    O     O_R   0.759029 0.489815 0.168228 -0.721029
O7    O     O_2   0.316181 0.631806 0.765643 -0.444414
O8    O     O_R   0.240971 0.510197 0.831778 -0.721030
O9    O     O_2   0.344522 0.780225 0.567200 -0.485730
O10   O     O_R   0.326580 0.830316 0.390468 -0.673348
O11   O     O_2   0.655474 0.219768 0.432768 -0.485725
O12   O     O_R   0.495880 0.645560 0.418410 -0.498983
O13   O     O_R   0.673434 0.169684 0.609499 -0.673346
O14   O     O_R   0.494320 0.341440 0.386760 -0.491397
O15   O     O_R   0.505680 0.658560 0.613240 -0.491399
O16   O     O_R   0.391870 0.507230 0.608700 -0.483687
O17   O     O_R   0.608130 0.492770 0.391300 -0.483686
O18   O     O_R   0.382070 0.494240 0.413880 -0.492105
O19   O     O_R   0.617930 0.505760 0.586120 -0.492109
O20   O     O_2   0.303469 0.604214 0.285235 -0.465942

loop_
_geom_bond_atom_site_label_1
_geom_bond_atom_site_label_2
_ccdc_geom_bond_type
C33   H5    S    
C10   N1    A    
C1    O1    A    
C22   C29   S    
C39   H18   S    
Cu1   O1    S    
C2    C4    A    
C43   H28   S    
Cu2   O18   S    
C12   C23   S    
C42   H25   S    
C35   H8    S    
C19   C21   A    
C24   C26   A    
H4    O4    S    
C44   H32   S    
Cu1   O15   S    
C43   H27   S    
C14   O16   A    
C7    N2    A    
C3    C48   A    
C6    C35   S    
C30   C38   S    
C18   C20   A    
C35   H9    S    
C8    N1    A    
C32   O4    S    
C38   H16   S    
C22   C25   A    
C5    C33   S    
C41   O13   S    
C34   C46   A    
C14   C16   S    
C5    C13   A    
H11   O6    S    
C36   O6    S    
C33   H6    S    
Cu2   O17   S    
C20   H31   S    
C45   H33   S    
C9    H2    S    
C39   H17   S    
C40   O10   S    
C19   C32   S    
C1    O14   A    
C44   C46   A    
C1    C34   S    
C38   H14   S    
C45   C47   A    
C42   H24   S    
C23   C47   A    
Cu1   N1    S    
Cu2   O12   S    
Cu1   O16   S    
C5    C7    A    
C6    C8    A    
C4    C44   A    
H21   O13   S    
C3    C45   A    
C35   H10   S    
H20   O10   S    
C7    H12   S    
C29   C30   D    
C9    N2    A    
C14   O18   A    
C32   O3    D    
H13   O8    S    
C38   H15   S    
C29   C39   S    
C42   H22   S    
C39   H19   S    
C37   O7    D    
C9    C11   A    
C8    H1    S    
C36   O5    D    
C20   C22   A    
C31   O20   D    
C41   O11   D    
C34   C48   A    
C40   O9    D    
C3    C4    A    
C6    C11   A    
C43   H26   S    
C15   C17   S    
C33   H7    S    
C31   O2    S    
C17   C28   A    
C12   O12   A    
C10   C13   A    
Cu1   O19   S    
C25   C27   A    
C26   C28   A    
C26   H29   S    
C15   O19   A    
C12   O15   A    
C11   C13   A    
C16   C27   A    
C21   H30   S    
C10   H34   S    
C17   C19   A    
C41   C48   S    
C37   O8    S    
H3    O2    S    
C25   H23   S    
C42   C47   S    
C43   C46   S    
C24   C30   S    
Cu2   O14   S    
Cu2   N2    S    
C2    C40   S    
C28   C36   S    
C16   C18   A    
Cu1   Cu2   S    
C21   C24   A    
C2    C23   A    
C18   C31   S    
C15   O17   A    
C27   C37   S    
