data_mof_unit_46601.cif
_audit_creation_date              2013-03-05T15:45:21-0500
_audit_creation_method            fapswitch 2.2
_symmetry_space_group_name_H-M    P1
_symmetry_Int_Tables_number       1
_space_group_crystal_system       triclinic
_cell_length_a                    10.944484
_cell_length_b                    11.092845
_cell_length_c                    9.849037
_cell_angle_alpha                 110.510307
_cell_angle_beta                  97.961674
_cell_angle_gamma                 92.122826
_cell_volume                      1104.40389534

loop_
_atom_site_label
_atom_site_type_symbol
_atom_site_description
_atom_site_fract_x
_atom_site_fract_y
_atom_site_fract_z
_atom_type_partial_charge
O1    O     O_R   0.511700 0.332340 0.577400 -0.586754
O2    O     O_R   0.488300 0.667660 0.422600 -0.554442
O3    O     O_R   0.474680 0.295500 0.332650 -0.510286
O4    O     O_R   0.525320 0.704500 0.667350 -0.525648
C1    C     C_R   0.494333 0.255159 0.441971 0.898150
C2    C     C_R   0.506556 0.745356 0.557493 0.895721
O5    O     O_R   0.338170 0.518410 0.622370 -0.566989
O6    O     O_R   0.661830 0.481590 0.377630 -0.589434
O7    O     O_R   0.301150 0.481570 0.377630 -0.552091
O8    O     O_R   0.698850 0.518430 0.622370 -0.553163
C3    C     C_R   0.263152 0.513113 0.504800 0.789230
C4    C     C_R   0.737336 0.500071 0.498158 0.876890
Cu1   Cu    Cu3+1 0.521920 0.521810 0.644910 1.152245
Cu2   Cu    Cu3+1 0.478080 0.478190 0.355090 1.165253
H1    H     H_    0.038018 0.395841 0.005121 0.248977
H2    H     H_    0.945178 0.887617 0.912664 0.259122
C5    C     C_R   0.142714 0.661634 0.783418 0.242888
C6    C     C_R   0.864217 0.342944 0.244055 0.239926
C7    C     C_R   0.093577 0.766995 0.882105 0.233201
C8    C     C_R   0.914183 0.316363 0.111875 0.232617
C9    C     C_R   0.977207 0.800618 0.840946 -0.197240
C10   C     C_R   0.010281 0.402112 0.108525 -0.215004
C11   C     C_R   0.903904 0.725796 0.707916 0.312675
C12   C     C_R   0.074944 0.491901 0.239820 0.331110
C13   C     C_R   0.947720 0.611366 0.616730 -0.064904
C14   C     C_R   0.046150 0.488208 0.373646 -0.069745
C15   C     C_R   0.075922 0.596941 0.638955 -0.072968
C16   C     C_R   0.924997 0.444145 0.373237 -0.096497
C17   C     C_R   0.870972 0.514152 0.497105 -0.022445
C18   C     C_R   0.128948 0.532624 0.509472 -0.046489
C19   C     C_2   0.494209 0.117727 0.413424 -0.277779
C20   C     C_2   0.513027 0.883795 0.584241 -0.256341
C21   C     C_2   0.548379 0.071711 0.514575 0.233320
C22   C     C_2   0.533834 0.931964 0.480043 0.278706
H3    H     H_    0.504892 0.947581 0.694056 0.210619
H4    H     H_    0.442708 0.052738 0.309326 0.216196
H5    H     H_    0.433649 0.403892 0.842617 0.174766
H6    H     H_    0.581577 0.582040 0.154416 0.177006
N1    N     N_2   0.445130 0.445420 0.137360 -0.068237
N2    N     N_2   0.554870 0.554580 0.862640 -0.076911
C23   C     C_2   0.515841 0.503907 0.079392 0.145066
C24   C     C_2   0.501981 0.479267 0.917314 0.169473
N3    N     N_R   0.236264 0.600497 0.843777 0.155901
O9    O     O_R   0.216818 0.478487 0.823717 -0.338954
O10   O     O_R   0.333642 0.668502 0.932302 -0.267153
N4    N     N_R   0.761551 0.261605 0.249441 0.147183
O11   O     O_R   0.768792 0.211048 0.350746 -0.295606
O12   O     O_R   0.663196 0.232695 0.149304 -0.236517
N5    N     N_R   0.161649 0.842520 0.024041 0.198091
O13   O     O_R   0.106917 0.870550 0.139024 -0.240584
O14   O     O_R   0.265723 0.907774 0.033430 -0.250790
N6    N     N_R   0.871741 0.203005 0.983650 0.194562
O15   O     O_R   0.828735 0.097938 0.997789 -0.218430
O16   O     O_R   0.900491 0.195197 0.857183 -0.241045
N7    N     N_R   0.800255 0.781164 0.653894 0.115434
O17   O     O_R   0.751426 0.874396 0.745576 -0.263361
O18   O     O_R   0.778461 0.765285 0.515113 -0.343892
N8    N     N_R   0.157019 0.595227 0.237279 0.175787
O19   O     O_R   0.205908 0.583737 0.121179 -0.256198
O20   O     O_R   0.177193 0.704676 0.347783 -0.310205
N9    N     N_R   0.541966 0.850198 0.332206 0.129222
O21   O     O_R   0.643136 0.859736 0.279810 -0.224227
O22   O     O_R   0.440493 0.796510 0.241243 -0.256127
N10   N     N_R   0.631767 0.153060 0.643848 0.169228
O23   O     O_R   0.616569 0.156777 0.773761 -0.265071
O24   O     O_R   0.724845 0.222597 0.631209 -0.240261
N11   N     N_R   0.657760 0.637344 0.948331 0.248477
O25   O     O_R   0.672979 0.752358 0.943418 -0.202809
O26   O     O_R   0.751028 0.591847 0.005930 -0.345311
N12   N     N_R   0.376142 0.330113 0.046740 0.257539
O27   O     O_R   0.428872 0.239010 0.956902 -0.285243
O28   O     O_R   0.271921 0.299207 0.080781 -0.289429

loop_
_geom_bond_atom_site_label_1
_geom_bond_atom_site_label_2
_geom_bond_distance
_ccdc_geom_bond_type
C2    C20   1.461512 S    
O7    Cu2   1.979646 S    
C5    N3    1.423720 S    
C11   N7    1.435465 S    
H2    C9    1.081268 S    
C4    C17   1.466994 S    
C13   C15   1.413614 A    
N3    O10   1.298922 A    
C23   C24   1.506661 S    
C7    N5    1.433775 S    
C19   H4    1.086483 S    
C14   C16   1.395065 A    
O6    C4    1.295861 A    
N10   O23   1.299623 A    
N7    O17   1.300299 A    
N2    C24   1.299515 D    
C21   C22   1.463337 S    
Cu2   N1    2.022518 S    
O8    Cu1   1.979645 S    
C8    N6    1.439885 S    
N9    O22   1.300839 A    
Cu1   Cu2   2.692164 S    
C15   C18   1.438843 A    
O5    C3    1.305291 A    
O7    C3    1.308476 A    
C20   C22   1.352970 D    
O2    C2    1.288078 A    
O3    Cu2   1.958422 S    
O8    C4    1.300012 A    
C21   N10   1.442313 S    
O1    C1    1.290640 A    
C6    N4    1.433327 S    
C12   N8    1.439196 S    
C16   C17   1.418086 A    
C5    C7    1.412521 A    
N1    N12   1.394454 S    
N6    O16   1.301141 A    
C14   C18   1.422235 A    
C6    C8    1.421607 A    
N7    O18   1.301561 A    
N3    O9    1.302204 A    
C13   C17   1.423023 A    
N9    O21   1.300531 A    
O2    Cu2   1.963341 S    
C10   C12   1.398853 A    
N12   O27   1.302042 A    
O1    Cu1   1.963342 S    
C19   C21   1.348966 D    
H5    C24   1.081594 S    
N8    O20   1.301892 A    
N11   O25   1.299069 A    
C5    C15   1.425235 A    
C20   H3    1.083253 S    
O5    Cu1   1.989939 S    
C11   C13   1.418926 A    
C6    C16   1.425077 A    
N6    O15   1.300208 A    
H6    C23   1.082844 S    
N1    C23   1.300222 D    
O4    C2    1.306613 A    
C22   N9    1.437747 S    
N5    O14   1.301064 A    
N11   O26   1.302644 A    
O4    Cu1   1.958422 S    
N5    O13   1.301140 A    
N4    O11   1.299936 A    
Cu1   N2    2.022518 S    
N12   O28   1.299437 A    
O6    Cu2   1.989939 S    
O3    C1    1.298625 A    
N8    O19   1.297109 A    
C7    C9    1.386951 A    
C9    C11   1.395211 A    
N4    O12   1.301140 A    
H1    C10   1.082468 S    
C12   C14   1.410751 A    
C3    C18   1.497195 S    
C8    C10   1.403399 A    
C1    C19   1.450019 S    
N2    N11   1.392980 S    
N10   O24   1.300931 A    
