data_mof_unit_49323.cif
_audit_creation_date              2013-03-05T16:46:57-0500
_audit_creation_method            fapswitch 2.2
_symmetry_space_group_name_H-M    P1
_symmetry_Int_Tables_number       1
_space_group_crystal_system       monoclinic
_cell_length_a                    15.065557
_cell_length_b                    8.936077
_cell_length_c                    8.094229
_cell_angle_alpha                 89.989368
_cell_angle_beta                  90.0
_cell_angle_gamma                 90.0
_cell_volume                      1089.70156589

loop_
_atom_site_label
_atom_site_type_symbol
_atom_site_description
_atom_site_fract_x
_atom_site_fract_y
_atom_site_fract_z
_atom_type_partial_charge
O1    O     O_R   0.500000 0.285350 0.636850 -0.627381
O2    O     O_R   0.500000 0.714650 0.363150 -0.627381
O3    O     O_R   0.500000 0.714650 0.636850 -0.610024
O4    O     O_R   0.500000 0.285350 0.363150 -0.610024
H1    H     H_    0.919506 0.372912 0.105179 0.210209
H2    H     H_    0.080494 0.627088 0.894821 0.210209
H3    H     H_    0.919506 0.627088 0.894821 0.210209
H4    H     H_    0.080494 0.372912 0.105179 0.210209
C1    C     C_R   0.500000 0.217947 0.500008 0.918534
C2    C     C_R   0.500000 0.782053 0.499991 0.918534
O5    O     O_R   0.367850 0.500000 0.636890 -0.567536
O6    O     O_R   0.632150 0.500000 0.363110 -0.567536
O7    O     O_R   0.632150 0.500000 0.636890 -0.567536
O8    O     O_R   0.367850 0.500000 0.363110 -0.567536
C3    C     C_R   0.326112 0.500000 0.500000 0.981940
C4    C     C_R   0.673888 0.500000 0.500000 0.981940
Zn1   Zn    Zn3+2 0.500000 0.500000 0.682780 1.093299
Zn2   Zn    Zn3+2 0.500000 0.500000 0.317220 1.093299
N1    N     N_1   0.500000 0.500000 0.073640 0.019064
N2    N     N_1   0.500000 0.500000 0.926360 0.019064
C5    C     C_R   0.815455 0.546881 0.641763 0.522378
C6    C     C_R   0.184545 0.453119 0.358237 0.522378
C7    C     C_R   0.815455 0.453119 0.358237 0.522378
C8    C     C_R   0.184545 0.546881 0.641763 0.522379
C9    C     C_R   0.769659 0.500000 0.500000 -0.363105
C10   C     C_R   0.230341 0.500000 0.500000 -0.363105
C11   C     C_R   0.907471 0.453695 0.357190 -0.008686
C12   C     C_R   0.092528 0.546305 0.642810 -0.008686
C13   C     C_R   0.907471 0.546305 0.642810 -0.008686
C14   C     C_R   0.092528 0.453695 0.357190 -0.008686
C15   C     C_R   0.953701 0.500000 0.500000 -0.031669
C16   C     C_R   0.046299 0.500000 0.500000 -0.031669
C17   C     C_R   0.953987 0.408357 0.215942 -0.152667
C18   C     C_R   0.046013 0.591643 0.784058 -0.152667
C19   C     C_R   0.953987 0.591643 0.784058 -0.152667
C20   C     C_R   0.046013 0.408357 0.215942 -0.152667
C21   C     C_1   0.500000 0.065175 0.500012 -0.142874
C22   C     C_1   0.500000 0.934825 0.499987 -0.142874
F1    F     F_    0.770774 0.595634 0.777663 -0.622590
F2    F     F_    0.229226 0.404366 0.222337 -0.622590
F3    F     F_    0.770774 0.404366 0.222337 -0.622590
F4    F     F_    0.229226 0.595634 0.777663 -0.622590

loop_
_geom_bond_atom_site_label_1
_geom_bond_atom_site_label_2
_geom_bond_distance
_ccdc_geom_bond_type
C21   C22   1.164820 T    
C14   C20   1.400910 A    
O2    Zn2   1.953891 S    
C8    F4    1.361294 S    
O8    Zn2   2.025267 S    
O1    Zn1   1.953892 S    
N1    N2    1.192117 T    
C7    F3    1.361294 S    
O7    Zn1   2.025266 S    
C2    C22   1.365179 S    
O4    Zn2   1.953757 S    
Zn1   N2    1.971592 S    
O5    C3    1.274014 A    
C1    C21   1.365179 S    
C12   C18   1.400910 A    
C13   C15   1.411610 A    
O3    C2    1.260827 A    
C11   C17   1.400910 A    
C14   C16   1.411611 A    
H3    C19   1.083545 S    
C8    C10   1.402982 A    
O3    Zn1   1.953756 S    
C7    C11   1.386320 A    
C7    C9    1.402983 A    
H4    C20   1.083545 S    
C11   C15   1.411612 A    
O2    C2    1.260902 A    
O6    C4    1.274014 A    
C12   C16   1.411611 A    
C17   C20   1.386409 A    
O1    C1    1.260902 A    
C8    C12   1.386320 A    
C18   C19   1.386409 A    
C6    C10   1.402983 A    
O7    C4    1.274014 A    
O6    Zn2   2.025266 S    
C4    C9    1.442843 S    
C13   C19   1.400910 A    
C6    F2    1.361294 S    
Zn2   N1    1.971592 S    
C3    C10   1.442843 S    
C5    C9    1.402982 A    
C6    C14   1.386320 A    
O4    C1    1.260827 A    
O8    C3    1.274014 A    
C5    C13   1.386320 A    
C15   C16   1.395054 A    
O5    Zn1   2.025267 S    
H2    C18   1.083545 S    
H1    C17   1.083545 S    
C5    F1    1.361294 S    
