data_mof_unit_50598.cif
_audit_creation_date              2013-03-05T15:45:55-0500
_audit_creation_method            fapswitch 2.2
_symmetry_space_group_name_H-M    P1
_symmetry_Int_Tables_number       1
_space_group_crystal_system       triclinic
_cell_length_a                    18.288681
_cell_length_b                    18.201006
_cell_length_c                    18.321244
_cell_angle_alpha                 119.84475
_cell_angle_beta                  119.893089
_cell_angle_gamma                 60.418713
_cell_volume                      4334.47141481

loop_
_atom_site_label
_atom_site_type_symbol
_atom_site_description
_atom_site_fract_x
_atom_site_fract_y
_atom_site_fract_z
_atom_type_partial_charge
Zn1   Zn    Zn3+2 0.956630 0.130130 0.543370 1.012966
Zn2   Zn    Zn3+2 0.130140 0.956620 0.543380 0.982651
Zn3   Zn    Zn3+2 0.956630 0.956620 0.369870 1.009467
Zn4   Zn    Zn3+2 0.956610 0.956630 0.543370 0.951684
O1    O     O_3   0.000000 1.000000 0.500000 -0.495258
O2    O     O_R   0.055060 0.884200 0.615800 -0.646814
O3    O     O_R   0.884210 0.176520 0.444920 -0.622155
O4    O     O_R   0.176540 0.055080 0.615800 -0.641335
O5    O     O_R   0.884190 0.884200 0.323480 -0.635828
O6    O     O_R   0.176540 0.884190 0.444930 -0.648528
O7    O     O_R   0.884180 0.055090 0.615790 -0.648457
O8    O     O_R   0.055100 0.884190 0.323490 -0.613218
O9    O     O_R   0.884190 0.176530 0.615790 -0.640404
O10   O     O_R   0.055100 0.176520 0.615800 -0.614431
O11   O     O_R   0.884180 0.884200 0.444920 -0.654190
O12   O     O_R   0.176510 0.884190 0.615800 -0.631314
O13   O     O_R   0.884210 0.055080 0.323480 -0.617602
C1    C     C_R   0.139671 0.857457 0.637557 0.788908
C2    C     C_R   0.859426 0.140148 0.360174 0.869274
C3    C     C_R   0.139737 0.140184 0.640400 0.774511
C4    C     C_R   0.860444 0.859568 0.360116 0.768714
C5    C     C_R   0.140067 0.861756 0.360018 0.796605
C6    C     C_R   0.852587 0.139770 0.632829 0.796084
C7    C     C_R   0.770758 0.065099 0.676665 -0.103945
C8    C     C_R   0.766709 0.024925 0.721803 -0.136790
C9    C     C_R   0.757841 0.074478 0.805670 -0.108007
C10   C     C_R   0.744857 0.165965 0.840642 -0.091118
C11   C     C_R   0.740342 0.209590 0.791715 0.084445
C12   C     C_R   0.766277 0.156179 0.715220 0.088818
C13   C     C_R   0.711860 0.304231 0.817600 -0.199422
C14   C     C_R   0.730279 0.343447 0.780676 0.090723
C15   C     C_R   0.756305 0.289872 0.704346 0.037659
C16   C     C_R   0.785689 0.195381 0.679323 -0.185817
C17   C     C_R   0.725316 0.434498 0.818281 -0.183139
C18   C     C_R   0.728648 0.474459 0.772454 -0.213015
C19   C     C_R   0.737647 0.424832 0.688063 0.349223
C20   C     C_R   0.751269 0.332738 0.654442 -0.208817
H1    H     H_    0.774177 0.024651 0.610221 0.167040
H2    H     H_    0.772125 0.954829 0.692306 0.153480
H3    H     H_    0.759064 0.042494 0.842902 0.156971
H4    H     H_    0.740883 0.201259 0.907210 0.154370
H5    H     H_    0.722593 0.475267 0.884895 0.183003
H6    H     H_    0.723107 0.544626 0.802814 0.189573
H7    H     H_    0.755344 0.295352 0.587974 0.181748
C21   C     C_R   0.685613 0.264388 0.373740 -0.107314
H8    H     H_    0.723750 0.222173 0.414854 0.113868
C22   C     C_R   0.602691 0.325001 0.381352 -0.079159
C23   C     C_R   0.548737 0.379207 0.328232 -0.108924
H9    H     H_    0.483988 0.425559 0.333707 0.147044
C24   C     C_R   0.577224 0.372878 0.266916 -0.150842
H10   H     H_    0.531741 0.414424 0.225184 0.134982
C25   C     C_R   0.661705 0.312823 0.258907 0.099594
C26   C     C_R   0.717123 0.258072 0.313460 0.061262
C27   C     C_R   0.801345 0.196855 0.304564 -0.205652
C28   C     C_R   0.828864 0.188189 0.240218 0.309503
H11   H     H_    0.793618 0.235297 0.136825 0.197029
C29   C     C_R   0.772326 0.240755 0.185494 -0.223115
C30   C     C_R   0.691012 0.303803 0.195742 -0.123321
H12   H     H_    0.693270 0.902605 0.253823 0.147482
C31   C     C_R   0.935010 0.671665 0.346297 -0.253384
H13   H     H_    0.979854 0.710623 0.386400 0.140507
C32   C     C_R   0.969943 0.581945 0.339993 -0.237378
H14   H     H_    0.039945 0.554963 0.375619 0.191208
C33   C     C_R   0.915544 0.527674 0.288565 0.365856
C34   C     C_R   0.825645 0.564379 0.241267 -0.258313
H15   H     H_    0.784588 0.521512 0.200064 0.171181
C35   C     C_R   0.789497 0.654836 0.245787 0.040444
C36   C     C_R   0.844560 0.709433 0.299990 0.111690
C37   C     C_R   0.808102 0.799736 0.303950 -0.037369
C38   C     C_R   0.720495 0.833768 0.251800 -0.203221
H16   H     H_    0.598713 0.807696 0.158270 0.144919
C39   C     C_R   0.666940 0.780003 0.197654 -0.205752
C40   C     C_R   0.700179 0.691798 0.195560 -0.029747
H17   H     H_    0.291253 0.865922 0.771008 0.166479
C41   C     C_R   0.097884 0.699664 0.594253 -0.181951
H18   H     H_    0.055624 0.736305 0.548005 0.156873
C42   C     C_R   0.076955 0.627367 0.577007 -0.126729
H19   H     H_    0.018608 0.612714 0.521828 0.164119
C43   C     C_R   0.131735 0.572844 0.629539 -0.092613
H20   H     H_    0.116463 0.515392 0.614517 0.166702
C44   C     C_R   0.207054 0.591088 0.700572 -0.126959
H21   H     H_    0.248748 0.544236 0.736558 0.195652
C45   C     C_R   0.227841 0.666521 0.722306 0.090631
C46   C     C_R   0.172439 0.721656 0.667943 0.099408
C47   C     C_R   0.195082 0.795318 0.687582 -0.073228
C48   C     C_R   0.273057 0.810501 0.756494 -0.186629
H22   H     H_    0.385397 0.772117 0.864300 0.162257
C49   C     C_R   0.326790 0.756996 0.809588 -0.200006
C50   C     C_R   0.303871 0.686964 0.794952 -0.075774
H23   H     H_    0.124868 0.715499 0.218678 0.160166
C51   C     C_R   0.280241 0.917950 0.387472 -0.144899
H24   H     H_    0.238432 0.963687 0.428592 0.150855
C52   C     C_R   0.348233 0.942893 0.401431 -0.115694
H25   H     H_    0.358749 0.004653 0.453260 0.155138
C53   C     C_R   0.401679 0.889419 0.347889 -0.114144
H26   H     H_    0.453460 0.909850 0.358087 0.151246
C54   C     C_R   0.387684 0.810483 0.280092 -0.165232
H27   H     H_    0.428840 0.773246 0.238283 0.148629
C55   C     C_R   0.320520 0.782438 0.265780 0.098827
C56   C     C_R   0.265815 0.837144 0.320399 0.101725
C57   C     C_R   0.196201 0.811008 0.304025 -0.063522
C58   C     C_R   0.178865 0.734949 0.232259 -0.189136
H28   H     H_    0.218578 0.621801 0.125101 0.158908
C59   C     C_R   0.232216 0.681607 0.179007 -0.194746
C60   C     C_R   0.304109 0.703115 0.196297 -0.064727
H29   H     H_    0.181747 0.225972 0.814025 0.141139
C61   C     C_R   0.209318 0.177046 0.555809 -0.234872
H30   H     H_    0.163406 0.139168 0.513601 0.167611
C62   C     C_R   0.243981 0.191953 0.514090 -0.245125
H31   H     H_    0.224449 0.164785 0.441929 0.219796
C63   C     C_R   0.305377 0.238162 0.563888 0.280312
C64   C     C_R   0.330422 0.272613 0.658352 0.188418
C65   C     C_R   0.290651 0.262794 0.702146 -0.074272
C66   C     C_R   0.231776 0.211574 0.649342 0.076063
C67   C     C_R   0.195144 0.196894 0.691110 -0.009056
C68   C     C_R   0.211079 0.236509 0.782599 -0.190617
H32   H     H_    0.276068 0.320405 0.905602 0.135374
C69   C     C_R   0.264883 0.289739 0.834424 -0.196874
C70   C     C_R   0.305308 0.302659 0.796045 -0.040032
Zn5   Zn    Zn3+2 0.543340 0.369890 0.956600 1.035675
Zn6   Zn    Zn3+2 0.543340 0.543410 0.130100 0.973060
Zn7   Zn    Zn3+2 0.369830 0.543410 0.956590 1.003510
Zn8   Zn    Zn3+2 0.543370 0.543400 0.956600 1.003705
O14   O     O_3   0.499970 0.500030 0.999970 -0.494759
O15   O     O_R   0.615800 0.615830 0.055050 -0.650551
O16   O     O_R   0.444880 0.323510 0.884180 -0.600032
O17   O     O_R   0.615760 0.444950 0.176490 -0.626518
O18   O     O_R   0.323460 0.615830 0.884170 -0.645585
O19   O     O_R   0.444880 0.615840 0.176480 -0.647652
O20   O     O_R   0.615800 0.444940 0.884180 -0.643161
O21   O     O_R   0.323440 0.615840 0.055040 -0.634329
O22   O     O_R   0.615780 0.323500 0.884180 -0.601353
O23   O     O_R   0.615760 0.323500 0.055050 -0.656909
O24   O     O_R   0.444910 0.615830 0.884180 -0.625673
O25   O     O_R   0.615780 0.615830 0.176490 -0.635456
O26   O     O_R   0.323430 0.444950 0.884170 -0.638994
C71   C     C_R   0.640222 0.639726 0.139772 0.767911
C72   C     C_R   0.360325 0.359795 0.857269 0.845375
C73   C     C_R   0.638729 0.359955 0.139853 0.810598
C74   C     C_R   0.360026 0.637507 0.857448 0.827359
C75   C     C_R   0.360018 0.641792 0.140070 0.769660
C76   C     C_R   0.646779 0.360118 0.866272 0.875472
N1    N     N_R   0.735688 0.467015 0.637972 0.212379
O27   O     O_R   0.718251 0.553315 0.667229 -0.373170
O28   O     O_R   0.752050 0.419549 0.563051 -0.374289
H33   H     H_    0.579907 0.329329 0.428171 0.147680
N2    N     N_R   0.951546 0.435523 0.283839 0.216089
O29   O     O_R   0.034514 0.401956 0.328864 -0.349157
O30   O     O_R   0.901400 0.384676 0.235686 -0.392132
N3    N     N_R   0.341329 0.249630 0.517210 0.225081
O31   O     O_R   0.295138 0.251122 0.435960 -0.353955
O32   O     O_R   0.422866 0.250114 0.551451 -0.317102
N4    N     N_R   0.398294 0.313733 0.708279 0.207509
O33   O     O_R   0.378996 0.394917 0.713780 -0.425584
O34   O     O_R   0.481453 0.263529 0.729607 -0.336951
N5    N     N_R   0.914992 0.128549 0.231382 0.230863
O35   O     O_R   0.925025 0.091151 0.153733 -0.367584
O36   O     O_R   0.985643 0.120791 0.301830 -0.391915

loop_
_geom_bond_atom_site_label_1
_geom_bond_atom_site_label_2
_geom_bond_distance
_ccdc_geom_bond_type
C30   C73   1.451951 S    
H22   C49   1.084031 S    
C52   H25   1.082255 S    
C12   C16   1.420411 A    
C53   H26   1.082673 S    
C17   H5    1.079510 S    
C9    H3    1.082534 S    
C66   C67   1.413188 A    
Zn8   O14   1.938053 S    
C42   H19   1.081275 S    
O6    C5    1.278342 A    
C9    C10   1.392495 A    
C57   C58   1.397114 A    
C5    C57   1.459425 S    
C45   C46   1.417983 A    
Zn1   O1    1.941788 S    
C19   C20   1.401486 A    
N2    O30   1.301821 A    
C19   N1    1.440271 S    
Zn6   O17   1.933541 S    
C62   C63   1.395746 A    
O24   C74   1.278774 A    
C13   C14   1.423279 A    
C17   C18   1.392901 A    
C48   C49   1.380399 A    
C41   C46   1.417116 A    
Zn8   O15   1.929226 S    
C34   C35   1.413795 A    
C67   C68   1.389993 A    
O8    C5    1.279943 A    
H11   C29   1.084581 S    
O9    C6    1.284012 A    
C31   C32   1.394255 A    
Zn5   O23   1.936750 S    
O7    C6    1.276108 A    
C69   C70   1.396677 A    
C64   C65   1.434417 A    
Zn6   O14   1.948455 S    
C32   C33   1.401008 A    
Zn3   O8    1.941532 S    
C44   C45   1.417187 A    
C65   C70   1.431053 A    
C46   C47   1.420564 A    
H23   C58   1.083989 S    
N2    O29   1.301871 A    
C36   C37   1.413785 A    
C6    C16   1.484934 S    
C7    H1    1.079919 S    
C61   H30   1.082604 S    
C35   C40   1.414430 A    
C51   C56   1.415590 A    
N4    O34   1.300627 A    
Zn2   O12   1.932130 S    
O21   C75   1.279985 A    
C42   C43   1.386630 A    
C22   H33   1.082690 S    
C21   C26   1.416909 A    
C52   C53   1.389669 A    
O25   C71   1.274540 A    
C61   C62   1.385265 A    
O17   C73   1.275197 A    
C45   C50   1.420071 A    
C59   C60   1.397139 A    
C54   C55   1.415259 A    
Zn5   O22   1.939391 S    
C54   H27   1.080248 S    
C21   C22   1.393656 A    
O22   C76   1.284271 A    
C28   N5    1.441112 S    
O2    C1    1.274735 A    
C1    C47   1.456162 S    
Zn8   O24   1.938196 S    
C35   C36   1.413075 A    
O10   C3    1.275574 A    
C7    C8    1.393001 A    
O26   C72   1.280254 A    
C51   H24   1.080166 S    
C43   C44   1.391408 A    
C39   C40   1.395254 A    
O19   C75   1.278549 A    
O15   C71   1.275474 A    
C8    C9    1.387572 A    
C47   C48   1.396865 A    
C44   H21   1.076937 S    
C4    C37   1.446799 S    
C31   H13   1.081770 S    
C18   C19   1.396565 A    
N5    O35   1.301516 A    
C41   H18   1.077412 S    
C61   C66   1.407683 A    
C32   H14   1.082403 S    
Zn3   O5    1.923984 S    
C51   C52   1.393759 A    
C10   H4    1.080690 S    
C24   C25   1.415060 A    
C22   C23   1.389779 A    
O11   C4    1.276722 A    
C50   C74   1.455010 S    
C24   H10   1.081106 S    
C14   C17   1.416590 A    
O4    C3    1.278153 A    
C15   C20   1.417144 A    
H17   C48   1.084048 S    
Zn4   O7    1.941190 S    
C58   C59   1.384671 A    
C41   C42   1.393121 A    
Zn7   O26   1.924747 S    
C25   C30   1.412719 A    
C2    C27   1.455023 S    
Zn4   O2    1.938251 S    
C23   H9    1.082537 S    
O23   C73   1.276424 A    
O3    C2    1.275213 A    
C64   N4    1.428901 S    
C28   C29   1.390843 A    
Zn8   O20   1.941189 S    
N3    O32   1.300894 A    
Zn2   O1    1.950272 S    
Zn1   O9    1.939347 S    
Zn7   O14   1.950272 S    
Zn2   O6    1.940605 S    
C63   N3    1.442523 S    
Zn7   O21   1.940499 S    
C10   C11   1.417984 A    
C18   H6    1.082612 S    
C25   C26   1.415501 A    
C65   C66   1.421095 A    
N1    O28   1.301522 A    
C27   C28   1.412773 A    
C11   C12   1.409079 A    
C63   C64   1.418298 A    
Zn1   O3    1.936752 S    
C70   C72   1.448861 S    
C14   C15   1.407511 A    
Zn2   O4    1.924748 S    
Zn6   O19   1.941387 S    
Zn4   O1    1.937904 S    
Zn3   O1    1.948456 S    
C3    C67   1.447469 S    
C53   C54   1.393736 A    
C26   C27   1.419714 A    
C13   C76   1.485385 S    
C55   C56   1.420018 A    
C31   C36   1.409825 A    
C15   C16   1.416011 A    
Zn4   O11   1.929225 S    
N5    O36   1.301652 A    
N1    O27   1.301573 A    
O18   C74   1.273449 A    
C11   C13   1.418001 A    
C33   N2    1.440882 S    
H32   C69   1.084585 S    
C8    H2    1.082551 S    
C60   C75   1.459875 S    
O5    C4    1.273744 A    
C29   C30   1.393784 A    
C40   C71   1.445719 S    
C20   H7    1.080356 S    
C33   C34   1.404292 A    
C23   C24   1.393572 A    
C56   C57   1.418602 A    
O16   C72   1.275301 A    
C68   C69   1.379430 A    
Zn3   O13   1.933541 S    
Zn5   O16   1.928763 S    
Zn7   O18   1.931984 S    
C37   C38   1.395342 A    
O20   C76   1.276569 A    
C55   C60   1.418717 A    
H12   C38   1.084102 S    
C43   H20   1.082823 S    
O13   C2    1.276528 A    
C21   H8    1.080526 S    
C7    C12   1.418410 A    
H16   C39   1.084105 S    
C49   C50   1.395559 A    
Zn6   O25   1.923984 S    
O12   C1    1.278275 A    
C34   H15   1.081491 S    
H29   C68   1.084140 S    
H28   C59   1.083979 S    
N3    O31   1.301706 A    
C38   C39   1.382992 A    
Zn1   O10   1.929010 S    
N4    O33   1.300173 A    
C62   H31   1.083058 S    
Zn5   O14   1.941935 S    
