data_mof_unit_27411.cif
_audit_creation_date              2012-12-11T16:18:05-0500
_audit_creation_method            fapswitch 2.2
_symmetry_space_group_name_H-M    P1
_symmetry_Int_Tables_number       1
_space_group_crystal_system       triclinic
_cell_length_a                    14.063862
_cell_length_b                    14.062631
_cell_length_c                    30.086036
_cell_angle_alpha                 97.275786
_cell_angle_beta                  97.231949
_cell_angle_gamma                 61.251153
_cell_volume                      5160.34465836

loop_
_atom_site_label
_atom_site_type_symbol
_atom_type_description
_atom_site_fract_x
_atom_site_fract_y
_atom_site_fract_z
_atom_type_partial_charge
C1    C     C_R   0.385375 0.711285 0.442507 0.545595
C2    C     C_R   0.784204 0.266311 0.376750 0.269546
C3    C     C_3   0.658471 0.539265 0.714129 -0.261199
C4    C     C_3   0.699413 0.610231 0.697303 -0.432350
C5    C     C_3   0.757439 0.557331 0.825436 -0.127325
C6    C     C_3   0.705300 0.155783 0.376089 -0.098777
C7    C     C_R   0.811661 0.245156 0.331829 -0.103871
C8    C     C_R   0.398737 0.380973 0.426535 0.540014
C9    C     C_R   0.815343 0.324858 0.309927 -0.005683
C10   C     C_R   0.802506 0.421826 0.333385 -0.124286
C11   C     C_R   0.778191 0.442902 0.378073 -0.172740
C12   C     C_R   0.847984 0.392586 0.161606 -0.110368
C13   C     C_R   0.874835 0.386200 0.118017 -0.124472
C14   C     C_R   0.871626 0.214228 0.102102 -0.134847
C15   C     C_R   0.845195 0.220540 0.145970 -0.122640
C16   C     C_R   0.344875 0.236220 0.223163 -0.109278
C17   C     C_R   0.837709 0.307724 0.176090 0.041092
C18   C     C_1   0.829144 0.307244 0.222808 -0.027939
C19   C     C_1   0.824088 0.311835 0.262547 -0.026928
C20   C     C_R   0.709916 0.405329 0.442274 0.561796
C21   C     C_R   0.892527 0.294118 0.088595 0.022340
C22   C     C_R   0.360867 0.775263 0.403658 -0.047559
C23   C     C_R   0.445414 0.776946 0.384225 -0.114458
C24   C     C_R   0.427356 0.816987 0.342234 0.274068
C25   C     C_R   0.324357 0.853028 0.318927 0.035520
C26   C     C_R   0.235354 0.862386 0.339817 -0.015594
C27   C     C_R   0.352670 0.244518 0.270043 -0.111915
C28   C     C_R   0.255308 0.823024 0.382530 -0.120786
C29   C     C_R   0.227909 0.863513 0.155658 0.298123
C30   C     C_R   0.227827 0.867928 0.109028 0.279788
C31   C     C_R   0.380693 0.908660 0.122768 -0.045899
C32   C     C_R   0.389750 0.711534 0.568255 0.543561
C33   C     C_R   0.382283 0.898952 0.168571 -0.170251
C34   C     C_R   0.304666 0.881207 0.185064 -0.015872
C35   C     C_1   0.309691 0.874550 0.232400 0.014628
C36   C     C_1   0.314917 0.867580 0.271997 0.012143
C37   C     C_R   0.295785 0.902862 0.092976 0.000298
C38   C     C_R   0.323753 0.345852 0.293542 0.036004
C39   C     C_R   0.369459 0.367353 0.594545 0.043670
C40   C     C_R   0.442982 0.343157 0.633682 -0.008597
C41   C     C_R   0.407170 0.341979 0.674512 -0.108490
C42   C     C_R   0.300590 0.365427 0.677904 0.004580
C43   C     C_R   0.227526 0.387351 0.639946 -0.103241
C44   C     C_R   0.403206 0.383818 0.552866 0.524324
C45   C     C_R   0.260764 0.388686 0.597896 -0.004334
C46   C     C_R   0.220598 0.422366 0.837592 -0.108679
C47   C     C_R   0.230876 0.406063 0.883454 0.009191
C48   C     C_R   0.350266 0.213033 0.865617 -0.126629
C49   C     C_R   0.308895 0.329064 0.199740 0.035680
C50   C     C_R   0.343450 0.230421 0.820451 0.019879
C51   C     C_R   0.274072 0.335355 0.806247 0.030855
C52   C     C_1   0.265343 0.355227 0.760008 -0.032099
C53   C     C_1   0.271911 0.363836 0.721535 -0.037705
C54   C     C_R   0.290878 0.298265 0.897042 0.014958
C55   C     C_1   0.764302 0.377329 0.612172 -0.038348
C56   C     C_R   0.714285 0.407366 0.568189 0.535512
C57   C     C_R   0.751074 0.432751 0.729956 0.040795
C58   C     C_R   0.771385 0.415027 0.776343 0.296507
C59   C     C_R   0.915365 0.231619 0.759051 -0.169567
C60   C     C_1   0.299437 0.318860 0.151644 -0.056753
C61   C     C_R   0.897148 0.248996 0.713489 -0.146436
C62   C     C_R   0.815617 0.348377 0.698674 0.005104
C63   C     C_R   0.852162 0.313325 0.790409 0.032033
C64   C     C_1   0.877350 0.295369 0.837484 -0.023532
C65   C     C_1   0.793274 0.360475 0.651069 -0.069860
C66   C     C_1   0.905800 0.282632 0.876695 -0.011409
C67   C     C_1   0.375773 0.758557 0.613564 -0.020262
C68   C     C_1   0.364490 0.363117 0.381044 -0.028655
C69   C     C_R   0.378169 0.724297 0.726971 -0.114762
C70   C     C_R   0.366456 0.744816 0.773178 -0.103290
C71   C     C_1   0.342602 0.353330 0.341424 -0.069810
C72   C     C_R   0.305674 0.935989 0.766459 -0.119222
C73   C     C_R   0.318866 0.915216 0.720347 -0.113355
C74   C     C_R   0.355046 0.809244 0.700528 0.035169
C75   C     C_R   0.330032 0.850803 0.792983 0.035644
C76   C     C_1   0.312762 0.874530 0.840055 -0.064361
C77   C     C_1   0.365764 0.786380 0.652965 -0.066675
C78   C     C_1   0.293021 0.903009 0.878757 -0.020431
C79   C     C_R   0.950104 0.273552 0.047984 0.540726
C80   C     C_R   0.286590 0.438943 0.270127 -0.103083
C81   C     C_R   0.275278 0.270074 0.065482 0.547404
C82   C     C_1   0.289963 0.302144 0.111613 -0.012648
C83   C     C_R   0.261160 0.953862 0.049223 0.557163
C84   C     C_R   0.952385 0.269023 0.922039 0.545279
C85   C     C_R   0.276412 0.266617 0.939622 0.532617
C86   C     C_R   0.261442 0.950798 0.922902 0.546119
C87   C     C_R   0.278836 0.430640 0.223199 -0.102839
C88   C     C_3   0.059570 0.889348 0.079081 -0.064433
C89   C     C_3   0.070873 0.927155 0.190082 -0.149358
C90   C     C_3   0.123017 0.908490 0.314775 -0.281619
C91   C     C_3   0.029537 0.925880 0.341482 -0.440178
C92   C     C_3   0.472655 0.922039 0.107861 -0.252512
C93   C     C_R   0.764170 0.367979 0.399728 0.031230
C94   C     C_3   0.542490 0.826091 0.076055 -0.411857
C95   C     C_3   0.518593 0.906413 0.331038 -0.134470
C96   C     C_3   0.177804 0.504730 0.916364 -0.271519
C97   C     C_3   0.224644 0.582845 0.916219 -0.439933
C98   C     C_3   0.178990 0.411237 0.557551 -0.273256
C99   C     C_3   0.095276 0.531546 0.558208 -0.419719
C100  C     C_3   0.558200 0.325195 0.634688 -0.258693
C101  C     C_3   0.638186 0.204546 0.626567 -0.401533
C102  C     C_3   0.409378 0.135310 0.788153 -0.275314
C103  C     C_3   0.513793 0.135795 0.779609 -0.425364
Cr1   Cr    Cr6+3 0.581000 0.584320 0.508140 1.010342
Cr2   Cr    Cr6+3 0.339110 0.576430 0.496080 1.010777
Cr3   Cr    Cr6+3 0.579910 0.339270 0.495810 1.029243
Cr4   Cr    Cr6+3 0.082090 0.079210 0.982490 1.017886
Cr5   Cr    Cr6+3 0.082460 0.324610 0.994920 1.014800
Cr6   Cr    Cr6+3 0.323630 0.087860 0.996130 1.001198
H1    H     H_    0.265504 0.517443 0.288151 0.119448
H2    H     H_    0.144984 0.403589 0.643037 0.114925
H3    H     H_    0.398197 0.130689 0.875748 0.134349
H4    H     H_    0.462925 0.324747 0.704413 0.110226
H5    H     H_    0.367446 0.157400 0.205165 0.104913
H6    H     H_    0.979241 0.154175 0.769903 0.123963
H7    H     H_    0.945983 0.184136 0.689634 0.123740
H8    H     H_    0.404802 0.642227 0.711796 0.105913
H9    H     H_    0.384422 0.678585 0.793254 0.123245
H10   H     H_    0.275287 0.018632 0.781389 0.104459
H11   H     H_    0.299645 0.981662 0.700177 0.105922
H12   H     H_    0.835575 0.155359 0.156910 0.095535
H13   H     H_    0.382882 0.171976 0.287895 0.093712
H14   H     H_    0.889155 0.449753 0.108534 0.133279
H15   H     H_    0.841154 0.460890 0.184740 0.114725
H16   H     H_    0.806535 0.483393 0.316545 0.135412
H17   H     H_    0.763198 0.521321 0.394661 0.143839
H18   H     H_    0.033784 0.977116 0.087923 0.098526
H19   H     H_    0.027696 0.857410 0.102031 0.151132
H20   H     H_    0.021868 0.882817 0.044941 0.126444
H21   H     H_    0.027938 0.990581 0.165725 0.091845
H22   H     H_    0.096967 0.963171 0.220937 0.112579
H23   H     H_    0.881364 0.144317 0.079586 0.105439
H24   H     H_    0.011421 0.903809 0.199333 0.132865
H25   H     H_    0.040455 0.846824 0.350431 0.148601
H26   H     H_    0.023941 0.980422 0.372298 0.179330
H27   H     H_    0.951745 0.964653 0.320487 0.132259
H28   H     H_    0.102887 0.988751 0.303456 0.140596
H29   H     H_    0.126104 0.853089 0.284538 0.161635
H30   H     H_    0.578823 0.749309 0.093125 0.154726
H31   H     H_    0.493907 0.818402 0.045123 0.167159
H32   H     H_    0.609270 0.838111 0.066243 0.125124
H33   H     H_    0.441877 0.000212 0.092773 0.195547
H34   H     H_    0.826561 0.168462 0.313522 0.099930
H35   H     H_    0.527657 0.925938 0.137195 0.121659
H36   H     H_    0.532011 0.923540 0.367792 0.110786
H37   H     H_    0.443585 0.975495 0.317039 0.108324
H38   H     H_    0.588277 0.899589 0.314690 0.135396
H39   H     H_    0.314261 0.539696 0.923652 0.165026
H40   H     H_    0.205568 0.618237 0.883271 0.148190
H41   H     H_    0.188543 0.650617 0.942445 0.156381
H42   H     H_    0.088740 0.547894 0.907419 0.140611
H43   H     H_    0.190526 0.482145 0.951385 0.168119
H44   H     H_    0.048369 0.556547 0.588449 0.144857
H45   H     H_    0.190571 0.823548 0.398626 0.147844
H46   H     H_    0.136132 0.582287 0.558233 0.178527
H47   H     H_    0.037679 0.545980 0.527873 0.134820
H48   H     H_    0.219074 0.386503 0.525500 0.149256
H49   H     H_    0.136488 0.362004 0.557681 0.138080
H50   H     H_    0.637351 0.158705 0.653868 0.137197
H51   H     H_    0.616935 0.170311 0.593923 0.179205
H52   H     H_    0.721698 0.193572 0.626295 0.144732
H53   H     H_    0.564419 0.374028 0.610350 0.176025
H54   H     H_    0.582161 0.355113 0.667951 0.125364
H55   H     H_    0.495287 0.212618 0.765610 0.157691
H56   H     H_    0.527306 0.741127 0.400154 0.144077
H57   H     H_    0.565766 0.126941 0.811455 0.155956
H58   H     H_    0.559508 0.066722 0.755218 0.134760
H59   H     H_    0.432106 0.056932 0.802044 0.135185
H60   H     H_    0.360611 0.137393 0.755872 0.146634
H61   H     H_    0.754938 0.625130 0.723347 0.138971
H62   H     H_    0.743046 0.571677 0.666450 0.168843
H63   H     H_    0.629041 0.689778 0.689206 0.146980
H64   H     H_    0.606116 0.522412 0.686952 0.126704
H65   H     H_    0.605177 0.587310 0.741612 0.190874
H66   H     H_    0.765055 0.601290 0.799078 0.108572
H67   H     H_    0.444251 0.906164 0.191960 0.127827
H68   H     H_    0.838660 0.507657 0.842686 0.124953
H69   H     H_    0.705936 0.619355 0.850794 0.144715
H70   H     H_    0.742498 0.094725 0.347746 0.089064
H71   H     H_    0.628495 0.226263 0.364028 0.127556
H72   H     H_    0.683288 0.116218 0.399685 0.147286
H73   H     H_    0.250177 0.502869 0.205308 0.131678
H74   H     H_    0.171228 0.503401 0.826238 0.111101
O1    O     O_R   0.688580 0.499770 0.460490 -0.533800
O2    O     O_R   0.346150 0.177650 0.050510 -0.525944
O3    O     O_R   0.314200 0.996600 0.036060 -0.515448
O4    O     O_R   0.480400 0.672610 0.462660 -0.502784
O5    O     O_R   0.168690 0.969990 0.933130 -0.505671
O6    O     O_R   0.991920 0.175870 0.937430 -0.494540
O7    O     O_R   0.974010 0.342590 0.941330 -0.510801
O8    O     O_R   0.182630 0.317940 0.955040 -0.503411
O9    O     O_R   0.347320 0.174720 0.953250 -0.516543
O10   O     O_R   0.315290 0.993890 0.945900 -0.497779
O11   O     O_3   0.162730 0.163890 0.991180 -0.241760
O12   O     O_R   0.348600 0.476260 0.536540 -0.500871
O13   O     O_R   0.315310 0.685650 0.451800 -0.513266
O14   O     O_R   0.346220 0.474990 0.446280 -0.491206
O15   O     O_R   0.492270 0.312460 0.441630 -0.517658
O16   O     O_R   0.669740 0.350480 0.455640 -0.444168
O17   O     O_R   0.691150 0.501150 0.557860 -0.508987
O18   O     O_R   0.482790 0.673890 0.552920 -0.495624
O19   O     O_R   0.317880 0.687030 0.549170 -0.509523
O20   O     O_3   0.173334 0.825124 0.078220 -0.536035
O21   O     O_3   0.159136 0.833214 0.171731 -0.552247
O22   O     O_3   0.514409 0.807650 0.321767 -0.563160
O23   O     O_R   0.494840 0.313840 0.539010 -0.524069
O24   O     O_3   0.706804 0.493735 0.807589 -0.578416
O25   O     O_3   0.780473 0.187820 0.399130 -0.558822
O26   O     O_R   0.672120 0.351750 0.545910 -0.502862
O27   O     O_3   0.500010 0.500010 0.500010 -0.247454
O28   O     O_R   0.167510 0.972920 0.030390 -0.484680
O29   O     O_R   0.990840 0.178580 0.027590 -0.509096
O30   O     O_R   0.972840 0.345510 0.038590 -0.516678
O31   O     O_R   0.181550 0.320660 0.045200 -0.491199

loop_
_geom_bond_atom_site_label_1
_geom_bond_atom_site_label_2
_ccdc_geom_bond_type
C95   O22   S    
Cr2   O13   S    
C55   C56   S    
C31   C92   S    
C103  H58   S    
C39   C45   A    
C4    H62   S    
C6    H70   S    
C102  C103  S    
C94   H31   S    
C41   C42   A    
C49   C87   A    
C8    O15   A    
C2    C7    A    
C95   H36   S    
Cr1   O27   S    
C20   C93   S    
C87   H73   S    
C7    H34   S    
C81   C82   S    
C90   C91   S    
C57   C62   A    
C14   H23   S    
C85   O9    A    
C48   C54   A    
C30   O20   S    
C103  H55   S    
C49   C60   S    
C4    H61   S    
C14   C21   A    
C76   C78   T    
C18   C19   T    
C80   C87   A    
C45   C98   S    
C42   C53   S    
C13   H14   S    
Cr4   O28   S    
C27   C38   A    
C96   H43   S    
C84   O6    A    
C24   O22   S    
C88   H19   S    
C99   H44   S    
Cr2   O12   S    
C34   C35   S    
C73   C74   A    
C32   O18   A    
C33   H67   S    
C55   C65   T    
C46   C47   A    
C60   C82   T    
C9    C19   S    
C91   H27   S    
C98   H49   S    
C101  H51   S    
C74   C77   S    
C67   C77   T    
C12   C17   A    
C23   C24   A    
C31   C33   A    
Cr5   O8    S    
C84   O7    A    
C10   H16   S    
C92   H33   S    
C9    C10   A    
C6    O25   S    
Cr5   O30   S    
C20   O1    A    
C6    H71   S    
C11   C93   A    
C102  H60   S    
C48   C50   A    
C1    C22   S    
C29   O21   S    
C22   C28   A    
C96   C97   S    
C28   H45   S    
C94   H30   S    
Cr1   O17   S    
Cr5   O7    S    
C8    O14   A    
C69   C70   A    
C95   H37   S    
C43   H2    S    
C88   H20   S    
C72   C75   A    
C81   O2    A    
C90   H29   S    
C27   H13   S    
C3    H64   S    
C17   C18   S    
C1    O4    A    
C79   O29   A    
Cr2   O14   S    
C59   C61   A    
C89   H24   S    
C6    H72   S    
C51   C52   S    
Cr6   O11   S    
C11   H17   S    
C95   H38   S    
C16   C49   A    
Cr2   O19   S    
C39   C40   A    
Cr4   O29   S    
Cr6   O2    S    
C25   C26   A    
C96   H42   S    
C46   C51   A    
C89   H21   S    
C31   C37   A    
C30   C37   A    
C99   H46   S    
C35   C36   T    
C64   C66   T    
C46   H74   S    
C75   C76   S    
C29   C34   A    
C20   O16   A    
C40   C100  S    
C29   C30   A    
C5    O24   S    
C3    H65   S    
C81   O31   A    
C12   H15   S    
C98   H48   S    
C79   O30   A    
C47   C96   S    
C99   H47   S    
C1    O13   A    
C61   H7    S    
C92   C94   S    
C50   C51   A    
C13   C21   A    
C69   C74   A    
C83   O3    A    
C24   C25   A    
Cr6   O10   S    
C43   C45   A    
C5    H68   S    
C5    H66   S    
C32   C67   S    
C3    C57   S    
C40   C41   A    
C48   H3    S    
C8    C68   S    
C47   C54   A    
C21   C79   S    
C97   H39   S    
C2    O25   S    
C42   C43   A    
Cr5   O11   S    
C3    C4    S    
C90   H28   S    
C52   C53   T    
C58   C63   A    
C15   C17   A    
Cr1   O4    S    
C38   C71   S    
C44   O12   A    
C102  H59   S    
C4    H63   S    
C62   C65   S    
Cr1   O1    S    
C14   C15   A    
C94   H32   S    
C59   C63   A    
C2    C93   A    
C41   H4    S    
C72   C73   A    
C16   H5    S    
Cr4   O6    S    
Cr3   O23   S    
C54   C85   S    
C50   C102  S    
C39   C44   S    
Cr6   O3    S    
C26   C90   S    
C88   H18   S    
C44   O23   A    
C26   C28   A    
C89   H22   S    
Cr3   O15   S    
Cr1   O18   S    
C97   H41   S    
C101  H52   S    
C56   O26   A    
C86   O10   A    
C85   O8    A    
Cr3   O26   S    
C78   C86   S    
C57   C58   A    
C91   H25   S    
C38   C80   A    
C58   O24   S    
C16   C27   A    
C68   C71   T    
Cr4   O5    S    
C72   H10   S    
C69   H8    S    
C100  C101  S    
C33   C34   A    
C100  H54   S    
C88   O20   S    
C32   O19   A    
C61   C62   A    
C92   H35   S    
C15   H12   S    
C5    H69   S    
C10   C11   A    
Cr2   O27   S    
C25   C36   S    
C66   C84   S    
C63   C64   S    
C7    C9    A    
C70   H9    S    
C89   O21   S    
C91   H26   S    
C12   C13   A    
C101  H50   S    
C103  H57   S    
C59   H6    S    
C98   C99   S    
C80   H1    S    
C70   C75   A    
C73   H11   S    
C23   H56   S    
C97   H40   S    
C22   C23   A    
C37   C83   S    
C100  H53   S    
Cr6   O9    S    
Cr4   O11   S    
C83   O28   A    
C86   O5    A    
Cr5   O31   S    
Cr3   O16   S    
C56   O17   A    
Cr3   O27   S    
