data_mof_unit_16900.cif
_audit_creation_date              2013-03-05T15:40:04-0500
_audit_creation_method            fapswitch 2.2
_symmetry_space_group_name_H-M    P1
_symmetry_Int_Tables_number       1
_space_group_crystal_system       triclinic
_cell_length_a                    7.782936
_cell_length_b                    8.578902
_cell_length_c                    10.639648
_cell_angle_alpha                 91.075504
_cell_angle_beta                  84.862573
_cell_angle_gamma                 93.755404
_cell_volume                      705.966511882

loop_
_atom_site_label
_atom_site_type_symbol
_atom_site_description
_atom_site_fract_x
_atom_site_fract_y
_atom_site_fract_z
_atom_type_partial_charge
O1    O     O_R   0.389250 0.738570 0.508180 -0.615456
O2    O     O_R   0.678390 0.711630 0.486820 -0.627868
C1    C     C_R   0.545857 0.794769 0.496913 0.962316
O3    O     O_R   0.355470 0.513470 0.691600 -0.591890
O4    O     O_R   0.644610 0.486520 0.670240 -0.578031
C2    C     C_R   0.497186 0.481831 0.736208 0.956174
Zn1   Zn    Zn3+2 0.306940 0.517990 0.514260 0.994536
Zn2   Zn    Zn3+2 0.693060 0.482010 0.485740 1.002439
O5    O     O_R   0.321610 0.288370 0.513180 -0.624211
O6    O     O_R   0.610750 0.261430 0.491820 -0.600075
O7    O     O_R   0.355390 0.513480 0.329760 -0.629893
O8    O     O_R   0.644530 0.486530 0.308400 -0.621925
C3    C     C_R   0.454151 0.205223 0.503139 0.957303
C4    C     C_R   0.500377 0.502682 0.262223 0.804058
C5    C     C_2   0.599982 0.403241 0.062587 -0.251007
C6    C     C_2   0.505785 0.508562 0.127995 0.265987
H1    H     H_    0.668248 0.318975 0.111106 0.151944
C7    C     C_2   0.619996 0.399167 0.925803 0.345221
C8    C     C_2   0.485206 0.436708 0.865408 -0.343011
H2    H     H_    0.357927 0.442269 0.915982 0.214901
C9    C     C_2   0.569949 0.958317 0.495211 -0.339804
H3    H     H_    0.701978 0.009566 0.485769 0.191518
C10   C     C_2   0.430085 0.041704 0.505123 -0.354875
H4    H     H_    0.298056 0.990468 0.514621 0.186149
N1    N     N_2   0.950320 0.457950 0.466680 -0.153588
H5    H     H_    0.013602 0.381323 0.406134 0.195467
N2    N     N_2   0.049680 0.542050 0.533320 -0.149416
H6    H     H_    0.986355 0.618521 0.593987 0.209289
O9    O     O_3   0.432859 0.628499 0.070354 -0.761669
H7    H     H_    0.377084 0.696056 0.136641 0.344419
N3    N     N_R   0.779329 0.351095 0.862155 0.222595
O10   O     O_R   0.924474 0.386745 0.910962 -0.382038
O11   O     O_R   0.775919 0.245707 0.772618 -0.379559

loop_
_geom_bond_atom_site_label_1
_geom_bond_atom_site_label_2
_geom_bond_distance
_ccdc_geom_bond_type
O4    Zn2   1.965607 S    
C10   H4    1.087761 S    
N3    O11   1.301808 A    
O9    H7    0.992230 S    
C2    C8    1.428458 S    
N1    N2    1.275610 D    
C5    C7    1.449714 S    
C8    H2    1.087604 S    
Zn2   O8    1.958726 S    
O2    C1    1.287594 A    
C6    O9    1.385452 S    
C9    H3    1.087793 S    
Zn1   O7    1.965607 S    
Zn2   N1    2.018052 S    
O3    Zn1   1.958727 S    
Zn2   O6    1.958028 S    
O8    C4    1.280998 A    
C9    C10   1.336576 D    
O4    C2    1.289007 A    
O7    C4    1.290056 A    
C4    C6    1.426730 S    
C1    C9    1.403547 S    
C5    C6    1.345351 D    
Zn1   O5    1.980405 S    
Zn1   N2    2.018052 S    
C3    C10   1.403352 S    
O3    C2    1.285794 A    
C7    C8    1.337876 D    
N2    H6    1.029284 S    
C5    H1    1.088494 S    
O5    C3    1.287683 A    
C7    N3    1.439646 S    
N1    H5    1.029263 S    
O1    Zn1   1.958027 S    
O2    Zn2   1.980405 S    
N3    O10   1.301214 A    
O1    C1    1.277290 A    
O6    C3    1.277265 A    
