data_mof_unit_37442.cif
_audit_creation_date              2013-03-05T15:54:44-0500
_audit_creation_method            fapswitch 2.2
_symmetry_space_group_name_H-M    P1
_symmetry_Int_Tables_number       1
_space_group_crystal_system       triclinic
_cell_length_a                    12.423538
_cell_length_b                    13.190349
_cell_length_c                    15.010366
_cell_angle_alpha                 75.305851
_cell_angle_beta                  101.542731
_cell_angle_gamma                 116.651501
_cell_volume                      2115.88664628

loop_
_atom_site_label
_atom_site_type_symbol
_atom_site_description
_atom_site_fract_x
_atom_site_fract_y
_atom_site_fract_z
_atom_type_partial_charge
O1    O     O_R   0.972510 0.318130 0.526570 -0.542360
O2    O     O_R   0.806530 0.359650 0.490890 -0.554377
C1    C     C_R   0.855005 0.286112 0.508086 0.871151
O3    O     O_R   0.082980 0.479210 0.647590 -0.589567
O4    O     O_R   0.917000 0.520730 0.611900 -0.508441
C2    C     C_R   0.000395 0.499798 0.670730 0.825450
Cu1   Cu    Cu3+1 0.098270 0.475420 0.521130 0.981753
Cu2   Cu    Cu3+1 0.901730 0.524580 0.478870 0.980183
O5    O     O_R   0.193470 0.640350 0.509110 -0.599977
O6    O     O_R   0.027490 0.681870 0.473430 -0.551767
O7    O     O_R   0.083000 0.479270 0.388100 -0.552865
O8    O     O_R   0.917020 0.520790 0.352410 -0.629110
C3    C     C_R   0.144566 0.714215 0.487147 0.814759
C4    C     C_R   0.002995 0.504801 0.328589 0.893696
C5    C     C_R   0.034302 0.611921 0.166551 0.379194
C6    C     C_R   0.004812 0.507124 0.231326 -0.276815
C7    C     C_R   0.981229 0.403942 0.204568 0.378626
C8    C     C_R   0.987830 0.404750 0.112316 0.040219
C9    C     C_R   0.007463 0.507123 0.045577 -0.153741
C10   C     C_R   0.029777 0.611375 0.071977 -0.092158
C11   C     C_R   0.974511 0.304625 0.085546 -0.167467
C12   C     C_R   0.976957 0.304241 0.993440 -0.242750
C13   C     C_R   0.992013 0.403560 0.926409 0.147172
C14   C     C_R   0.007220 0.505405 0.952234 0.114348
C15   C     C_R   0.023359 0.605661 0.884498 0.041014
C16   C     C_R   0.044921 0.707947 0.910136 -0.325865
C17   C     C_R   0.047019 0.712097 0.002835 0.555176
C18   C     C_R   0.992583 0.403049 0.833746 -0.267245
C19   C     C_R   0.002949 0.501382 0.766845 -0.042545
C20   C     C_R   0.018460 0.602338 0.791676 -0.215229
C21   C     C_R   0.272522 0.040845 0.417079 -0.304683
C22   C     C_R   0.226220 0.838260 0.475666 -0.164136
C23   C     C_R   0.812099 0.077779 0.567750 0.398364
C24   C     C_R   0.728453 0.968706 0.603855 -0.283043
C25   C     C_R   0.604697 0.939138 0.586568 0.418644
C26   C     C_R   0.560970 0.013673 0.519321 -0.025507
C27   C     C_R   0.645902 0.126546 0.484305 -0.047166
C28   C     C_R   0.435748 0.982292 0.488465 0.093160
C29   C     C_R   0.396093 0.067444 0.437906 0.097191
C30   C     C_R   0.480280 0.176505 0.403076 -0.206344
C31   C     C_R   0.602443 0.202029 0.419726 -0.140744
C32   C     C_R   0.349959 0.867747 0.500440 -0.264445
C33   C     C_R   0.185106 0.925673 0.436054 0.507651
C34   C     C_R   0.771352 0.161776 0.516144 -0.236641
H1    H     H_    0.661061 0.282506 0.380902 0.155132
C35   C     C_R   0.313258 0.290183 0.610570 -0.285170
H2    H     H_    0.147393 0.281394 0.639084 0.169564
N1    N     N_R   0.246280 0.438190 0.553160 -0.207647
C36   C     C_R   0.766973 0.656523 0.381751 0.000451
C37   C     C_R   0.672343 0.689417 0.350990 -0.330791
C38   C     C_R   0.561196 0.625682 0.387738 0.529942
C39   C     C_R   0.546288 0.530228 0.461970 -0.184359
C40   C     C_R   0.645154 0.495579 0.489474 0.115752
C41   C     C_R   0.437385 0.466699 0.509321 -0.024582
C42   C     C_R   0.417715 0.357306 0.564535 0.091997
C43   C     C_R   0.505833 0.317513 0.580387 -0.350816
C44   C     C_R   0.624475 0.392434 0.559470 0.547099
C45   C     C_R   0.346650 0.505599 0.506344 0.089667
C46   C     C_R   0.228934 0.333151 0.604754 0.089119
N2    N     N_R   0.754320 0.561190 0.447410 -0.187159
H3    H     H_    0.353904 0.588912 0.468563 0.190871
H4    H     H_    0.684383 0.763928 0.296141 0.155297
O9    O     O_3   0.089237 0.716175 0.197112 -0.539229
C47   C     C_3   0.002610 0.744271 0.220156 -0.230818
H5    H     H_    0.019948 0.746290 0.294851 0.188463
H6    H     H_    0.906270 0.685520 0.202774 0.119572
H7    H     H_    0.017072 0.832976 0.183777 0.186467
H8    H     H_    0.451476 0.240372 0.358338 0.136235
H9    H     H_    0.245717 0.110344 0.384616 0.145259
H10   H     H_    0.379536 0.799342 0.523306 0.239109
O10   O     O_3   0.933486 0.105317 0.594278 -0.582707
C48   C     C_3   0.978200 0.076060 0.529898 -0.279978
H11   H     H_    0.973127 0.129104 0.459856 0.183720
H12   H     H_    0.929444 0.982362 0.527080 0.181638
H13   H     H_    0.074852 0.094627 0.551970 0.183387
O11   O     O_3   0.529555 0.839233 0.639871 -0.583664
C49   C     C_3   0.505768 0.868922 0.715410 -0.327154
H14   H     H_    0.458290 0.926809 0.691972 0.157466
H15   H     H_    0.590509 0.909748 0.760069 0.157085
H16   H     H_    0.445338 0.788815 0.758251 0.199007
H17   H     H_    0.760360 0.908667 0.651304 0.182292
H18   H     H_    0.484338 0.231792 0.621293 0.150334
H19   H     H_    0.298158 0.205840 0.652687 0.138749
O12   O     O_3   0.959621 0.303894 0.270553 -0.583485
C50   C     C_3   0.833408 0.240689 0.272534 -0.362938
H20   H     H_    0.815626 0.163400 0.328419 0.186524
H21   H     H_    0.789426 0.210099 0.206327 0.170538
H22   H     H_    0.791650 0.292629 0.287565 0.152376
H23   H     H_    0.851071 0.706980 0.351701 0.153894
O13   O     O_3   0.468147 0.657686 0.347820 -0.598012
C51   C     C_3   0.400375 0.592094 0.278571 -0.314957
H24   H     H_    0.360417 0.497896 0.307755 0.161463
H25   H     H_    0.456441 0.610702 0.222179 0.159052
H26   H     H_    0.324324 0.616381 0.247618 0.213665
O14   O     O_3   0.721289 0.373850 0.612495 -0.523079
C52   C     C_3   0.694683 0.275619 0.684387 -0.333890
H27   H     H_    0.645888 0.194533 0.656263 0.154216
H28   H     H_    0.645132 0.279678 0.736469 0.165479
H29   H     H_    0.781089 0.274460 0.720617 0.169805
H30   H     H_    0.962330 0.226058 0.135707 0.173742
H31   H     H_    0.966088 0.225906 0.974523 0.138975
H32   H     H_    0.982417 0.325818 0.813207 0.130952
H33   H     H_    0.028967 0.678599 0.738771 0.138272
H34   H     H_    0.061531 0.785643 0.857933 0.158708
O15   O     O_3   0.071310 0.815996 0.026003 -0.529452
C53   C     C_3   0.974368 0.847436 0.988649 -0.348077
H35   H     H_    0.987364 0.921924 0.017805 0.179502
H36   H     H_    0.885670 0.776034 0.007721 0.146469
H37   H     H_    0.972831 0.875874 0.912299 0.166446
O16   O     O_3   0.060803 0.895299 0.419738 -0.575742
C54   C     C_3   0.029417 0.965722 0.340969 -0.400629
H38   H     H_    0.931760 0.920383 0.318798 0.179376
H39   H     H_    0.079982 0.982477 0.281522 0.165180
H40   H     H_    0.042770 0.047867 0.358165 0.183264

loop_
_geom_bond_atom_site_label_1
_geom_bond_atom_site_label_2
_geom_bond_distance
_ccdc_geom_bond_type
C42   C43   1.370564 A    
C35   C46   1.377411 A    
C8    C11   1.406991 A    
C3    C22   1.474374 S    
O14   C52   1.414849 S    
Cu1   Cu2   2.716019 S    
C49   H14   1.113283 S    
Cu1   O7    1.957419 S    
C16   C17   1.400943 A    
C12   H31   1.083889 S    
C21   C33   1.411582 A    
C18   C19   1.395879 A    
C28   C32   1.394737 A    
O3    Cu1   1.960293 S    
C38   O13   1.380521 S    
C28   C29   1.412285 A    
O7    C4    1.300626 A    
C49   H16   1.109261 S    
C53   H35   1.109270 S    
C17   O15   1.385251 S    
C5    C6    1.413059 A    
C52   H29   1.106884 S    
C32   H10   1.075537 S    
C43   C44   1.403125 A    
C24   C25   1.391778 A    
O5    C3    1.309582 A    
O16   C54   1.412843 S    
C16   H34   1.083731 S    
O12   C50   1.409942 S    
C54   H38   1.108529 S    
C6    C7    1.404278 A    
C52   H28   1.111922 S    
C20   H33   1.085339 S    
C13   C14   1.413427 A    
C24   H17   1.083541 S    
C45   H3    1.073696 S    
C49   H15   1.113467 S    
C11   C12   1.390285 A    
C48   H13   1.108914 S    
C40   N2    1.414033 A    
C39   C41   1.450332 A    
C23   C24   1.389975 A    
C50   H21   1.112343 S    
C22   C32   1.400352 A    
C5    C10   1.411157 A    
C25   O11   1.381509 S    
C1    C34   1.484923 S    
C38   C39   1.422238 A    
C47   H7    1.107256 S    
C14   C15   1.408665 A    
O3    C2    1.299046 A    
C29   C30   1.387136 A    
C11   H30   1.082968 S    
C40   C44   1.445746 A    
C8    C9    1.415103 A    
C37   C38   1.394941 A    
C15   C16   1.392149 A    
C50   H20   1.109084 S    
O9    C47   1.409624 S    
O1    C1    1.315561 A    
C25   C26   1.427158 A    
C47   H6    1.116538 S    
C35   C42   1.401137 A    
C19   C20   1.393627 A    
C51   H25   1.113142 S    
Cu2   O8    1.960293 S    
C52   H27   1.111136 S    
C7    C8    1.400535 A    
C54   H39   1.113307 S    
C13   C18   1.394084 A    
O11   C49   1.410520 S    
N1    C45   1.370518 A    
C36   N2    1.353974 A    
C48   H12   1.113922 S    
C30   C31   1.382634 A    
C33   O16   1.395945 S    
O8    C4    1.306291 A    
C30   H8    1.084436 S    
C37   H4    1.083068 S    
C4    C6    1.456986 S    
C51   H24   1.113406 S    
C39   C40   1.446681 A    
N1    C46   1.349222 A    
C41   C45   1.422339 A    
C50   H22   1.110640 S    
C15   C20   1.393386 A    
Cu1   O5    1.934447 S    
C41   C42   1.409497 A    
C26   C27   1.421915 A    
C31   H1    1.076689 S    
O1    Cu1   1.951723 S    
C23   C34   1.412332 A    
O2    Cu2   1.934448 S    
C36   H23   1.072602 S    
C48   H11   1.112977 S    
O6    C3    1.306905 A    
O4    Cu2   1.957420 S    
C43   H18   1.081350 S    
C10   C17   1.422045 A    
O15   C53   1.413056 S    
C7    O12   1.385665 S    
Cu1   N1    2.046959 S    
C9    C10   1.419619 A    
C26   C28   1.427331 A    
C9    C14   1.406418 A    
O10   C48   1.409872 S    
C47   H5    1.103431 S    
C51   H26   1.109753 S    
O13   C51   1.410813 S    
O4    C2    1.302397 A    
C53   H36   1.114299 S    
C27   C34   1.427667 A    
C22   C33   1.415224 A    
C21   C29   1.399286 A    
O2    C1    1.305762 A    
C54   H40   1.109790 S    
C27   C31   1.416220 A    
C23   O10   1.380715 S    
H2    C46   1.080652 S    
C35   H19   1.084426 S    
C18   H32   1.084937 S    
C21   H9    1.082138 S    
C2    C19   1.441953 S    
Cu2   O6    1.951722 S    
C36   C37   1.386485 A    
C44   O14   1.386609 S    
C5    O9    1.385638 S    
C12   C13   1.396551 A    
Cu2   N2    2.035102 S    
C53   H37   1.110875 S    
