data_mof_unit_65612.cif
_audit_creation_date              2012-12-10T18:38:27-0500
_audit_creation_method            fapswitch 2.2
_symmetry_space_group_name_H-M    P1
_symmetry_Int_Tables_number       1
_space_group_crystal_system       triclinic
_cell_length_a                    30.189619
_cell_length_b                    31.857978
_cell_length_c                    21.329714
_cell_angle_alpha                 89.968828
_cell_angle_beta                  135.041099
_cell_angle_gamma                 89.978757
_cell_volume                      14495.5204621

loop_
_atom_site_label
_atom_site_type_symbol
_atom_type_description
_atom_site_fract_x
_atom_site_fract_y
_atom_site_fract_z
_atom_type_partial_charge
C1    C     C_R   0.378423 0.499857 0.378386 0.970777
C2    C     C_R   0.878423 0.999859 0.378386 0.970785
C3    C     C_3   0.513518 0.763720 0.454302 -0.031058
C4    C     C_3   0.515578 0.236314 0.457166 -0.017977
C5    C     C_3   0.014057 0.263720 0.454968 -0.031078
C6    C     C_3   0.015062 0.736315 0.456511 -0.017985
C7    C     C_3   0.500945 0.791293 0.499170 0.176301
C8    C     C_3   0.500731 0.208711 0.499202 0.175465
C9    C     C_3   0.000958 0.291293 0.499191 0.176309
C10   C     C_3   0.000722 0.708711 0.499185 0.175458
C11   C     C_3   0.557323 0.736211 0.537945 -0.018976
C12   C     C_3   0.557813 0.263702 0.540936 -0.020065
C13   C     C_3   0.057498 0.236212 0.538644 -0.018947
C14   C     C_3   0.057664 0.763703 0.540271 -0.020079
C15   C     C_3   0.545289 0.764229 0.583765 -0.256235
C16   C     C_3   0.543487 0.235658 0.583931 -0.258007
C17   C     C_3   0.044933 0.264229 0.583821 -0.256274
C18   C     C_3   0.043849 0.735658 0.583903 -0.258031
C19   C     C_1   0.500570 0.663243 0.500011 0.015592
C20   C     C_1   0.500455 0.336760 0.500109 0.016142
C21   C     C_1   0.000576 0.163242 0.500021 0.015594
C22   C     C_1   0.000453 0.836760 0.500104 0.016140
C23   C     C_1   0.500425 0.836765 0.499466 0.007321
C24   C     C_1   0.500190 0.163238 0.499400 0.007845
C25   C     C_1   0.000430 0.336765 0.499475 0.007303
C26   C     C_1   0.000188 0.663238 0.499394 0.007841
C27   C     C_3   0.269843 0.466611 0.301336 0.030585
C28   C     C_3   0.269900 0.534813 0.296743 0.037348
C29   C     C_3   0.769845 0.966597 0.301300 0.030574
C30   C     C_3   0.769899 0.034800 0.296785 0.037327
C31   C     C_3   0.228478 0.501678 0.287799 -0.303321
C32   C     C_3   0.728478 0.001647 0.287804 -0.303355
C33   C     C_3   0.188999 0.499912 0.188309 0.012067
C34   C     C_3   0.688998 0.999912 0.188311 0.012144
C35   C     C_3   0.229054 0.464392 0.201076 -0.218108
C36   C     C_3   0.229099 0.533546 0.196392 -0.218411
C37   C     C_3   0.729055 0.964407 0.201037 -0.217994
C38   C     C_3   0.729098 0.033564 0.196433 -0.218435
C39   C     C_R   0.499948 0.581251 0.499916 0.936683
C40   C     C_R   0.499924 0.418750 0.499926 0.930709
C41   C     C_R   0.999948 0.081251 0.499915 0.936669
C42   C     C_R   0.999925 0.918750 0.499927 0.930726
C43   C     C_3   0.270629 0.498038 0.210831 -0.200076
C44   C     C_3   0.770629 0.998072 0.210829 -0.199972
C45   C     C_3   0.310956 0.499790 0.310944 -0.004071
C46   C     C_3   0.810956 0.999792 0.310945 -0.004122
C47   C     C_3   0.729496 0.491864 0.788186 -0.130890
C48   C     C_3   0.729315 0.470058 0.690172 -0.173061
C49   C     C_3   0.229494 0.992273 0.788304 -0.131254
C50   C     C_3   0.229316 0.969795 0.690635 -0.173092
C51   C     C_3   0.770657 0.462067 0.789806 -0.114113
C52   C     C_3   0.270658 0.962205 0.790389 -0.113579
C53   C     C_3   0.810595 0.499929 0.810927 0.011652
C54   C     C_3   0.310595 0.999935 0.810931 0.011644
C55   C     C_3   0.770570 0.529689 0.810450 -0.130665
C56   C     C_3   0.770481 0.507928 0.712506 -0.184384
C57   C     C_3   0.270567 0.029967 0.809989 -0.131077
C58   C     C_3   0.270484 0.007532 0.712393 -0.184331
C59   C     C_3   0.729152 0.537696 0.710673 -0.157297
C60   C     C_3   0.229154 0.037571 0.710095 -0.156902
C61   C     C_3   0.689272 0.499855 0.689604 0.000291
C62   C     C_3   0.189272 0.999863 0.689604 0.000188
C63   C     C_R   0.500062 0.000202 0.378409 0.902252
C64   C     C_R   0.000061 0.500203 0.378409 0.902248
C65   C     C_R   0.500040 0.918760 0.499978 0.904573
C66   C     C_R   0.499980 0.081241 0.499933 0.903540
C67   C     C_R   0.000040 0.418760 0.499979 0.904563
C68   C     C_R   0.999980 0.581241 0.499933 0.903555
C69   C     C_R   0.621696 0.499916 0.621763 0.864683
C70   C     C_R   0.121696 0.999920 0.621762 0.864705
C71   C     C_R   0.500001 0.000139 0.621606 0.852494
C72   C     C_R   0.999993 0.500157 0.621596 0.852473
C73   C     C_R   0.000161 0.500009 0.121876 0.925537
C74   C     C_R   0.500166 0.000009 0.121881 0.925591
C75   C     C_R   0.121746 0.499976 0.121096 0.872316
C76   C     C_R   0.621746 0.999977 0.121097 0.872295
C77   C     C_R   0.000006 0.500041 0.878064 0.854372
C78   C     C_R   0.500050 0.000037 0.878108 0.854419
C79   C     C_R   0.878129 0.499999 0.878208 0.925884
C80   C     C_R   0.378129 0.000000 0.878211 0.926045
C81   C     C_3   0.455446 0.026819 0.226459 -0.210636
C82   C     C_3   0.556753 0.012696 0.327533 -0.219971
C83   C     C_3   0.955387 0.526779 0.226401 -0.210594
C84   C     C_3   0.056723 0.512749 0.327501 -0.219971
C85   C     C_3   0.011877 0.539196 0.241304 -0.174873
C86   C     C_3   0.511963 0.039184 0.241390 -0.174919
C87   C     C_3   0.999730 0.500040 0.188880 -0.074521
C88   C     C_3   0.499737 0.000039 0.188886 -0.074484
C89   C     C_3   0.943988 0.487677 0.174113 0.028895
C90   C     C_3   0.043812 0.473902 0.273832 0.004219
C91   C     C_3   0.443968 0.987727 0.174092 0.029021
C92   C     C_3   0.543764 0.973861 0.273786 0.004162
C93   C     C_3   0.487761 0.960870 0.259192 -0.186331
C94   C     C_3   0.987837 0.460861 0.259269 -0.186324
C95   C     C_3   0.444435 0.763926 0.460873 -0.157282
C96   C     C_3   0.443571 0.236167 0.458034 -0.157254
C97   C     C_3   0.944284 0.263925 0.460212 -0.157279
C98   C     C_3   0.943708 0.736166 0.458670 -0.157202
C99   C     C_3   0.500133 0.000198 0.311142 -0.013556
C100  C     C_3   0.000130 0.500200 0.311139 -0.013529
C101  C     C_3   0.488997 0.961103 0.718164 -0.149194
C102  C     C_3   0.556390 0.013311 0.785742 -0.170796
C103  C     C_3   0.993077 0.460697 0.722239 -0.148610
C104  C     C_3   0.054809 0.515957 0.784157 -0.170059
C105  C     C_3   0.047798 0.476369 0.818368 -0.160039
C106  C     C_3   0.545251 0.974163 0.815812 -0.161707
C107  C     C_3   0.000087 0.500212 0.810596 0.025817
C108  C     C_3   0.500165 0.000193 0.810676 0.025847
C109  C     C_3   0.945398 0.484555 0.715811 -0.156872
C110  C     C_3   0.007091 0.539833 0.777527 -0.172354
C111  C     C_3   0.443955 0.987142 0.714383 -0.155170
C112  C     C_3   0.511297 0.039379 0.781740 -0.172020
C113  C     C_3   0.455104 0.026331 0.684258 -0.163492
C114  C     C_3   0.952414 0.524172 0.681564 -0.165032
C115  C     C_3   0.500149 0.000261 0.689326 0.026973
C116  C     C_3   0.000097 0.500290 0.689272 0.027191
C117  C     C_3   0.488684 0.736159 0.545359 -0.153279
C118  C     C_3   0.486234 0.263820 0.542651 -0.150670
C119  C     C_3   0.988164 0.236159 0.544732 -0.153173
C120  C     C_3   0.986741 0.763819 0.543277 -0.150753
C121  C     C_1   0.500168 0.625733 0.499999 -0.121834
C122  C     C_1   0.500095 0.374269 0.500050 -0.123998
C123  C     C_1   0.000170 0.125733 0.500002 -0.121855
C124  C     C_1   0.000095 0.874269 0.500050 -0.123983
C125  C     C_1   0.500154 0.874275 0.499711 -0.156459
C126  C     C_1   0.499966 0.125727 0.499618 -0.158132
C127  C     C_1   0.000155 0.374275 0.499715 -0.156502
C128  C     C_1   0.999966 0.625727 0.499616 -0.158102
C129  C     C_3   0.457055 0.735774 0.415437 -0.247560
C130  C     C_3   0.458492 0.264347 0.415454 -0.250453
C131  C     C_3   0.957436 0.235774 0.415426 -0.247663
C132  C     C_3   0.958115 0.764347 0.415447 -0.250346
C133  C     C_3   0.501328 0.708713 0.500046 0.175612
C134  C     C_3   0.501176 0.291290 0.500188 0.174268
C135  C     C_3   0.001340 0.208713 0.500068 0.175605
C136  C     C_3   0.001170 0.791290 0.500171 0.174279
H1    H     H_    0.478345 0.724186 0.582780 0.147949
H2    H     H_    0.474040 0.275773 0.577774 0.149731
H3    H     H_    0.977390 0.224186 0.581619 0.148024
H4    H     H_    0.974969 0.775771 0.578930 0.149641
H5    H     H_    0.288822 0.496531 0.180340 0.160936
H6    H     H_    0.788822 0.996591 0.180337 0.160918
H7    H     H_    0.789221 0.431180 0.823855 0.172889
H8    H     H_    0.289227 0.931428 0.824921 0.173105
H9    H     H_    0.789273 0.553974 0.861447 0.153662
H10   H     H_    0.789196 0.514453 0.683665 0.134999
H11   H     H_    0.289260 0.054475 0.860603 0.153775
H12   H     H_    0.289206 0.013728 0.683462 0.134519
H13   H     H_    0.710278 0.568538 0.676485 0.159961
H14   H     H_    0.210280 0.068306 0.675430 0.159995
H15   H     H_    0.419062 0.048438 0.208593 0.151752
H16   H     H_    0.603163 0.022758 0.392120 0.159638
H17   H     H_    0.918960 0.548365 0.208496 0.151841
H18   H     H_    0.103112 0.522855 0.392066 0.159592
H19   H     H_    0.477947 0.929028 0.268139 0.173817
H20   H     H_    0.978090 0.429010 0.268283 0.173661
H21   H     H_    0.086711 0.456894 0.876095 0.134125
H22   H     H_    0.582035 0.952903 0.871382 0.135768
H23   H     H_    0.479925 0.929188 0.690299 0.127735
H24   H     H_    0.602333 0.024056 0.813338 0.147721
H25   H     H_    0.987380 0.428434 0.697746 0.127090
H26   H     H_    0.099498 0.528834 0.810466 0.146596
H27   H     H_    0.900780 0.471781 0.689911 0.129145
H28   H     H_    0.012856 0.572203 0.801656 0.150068
H29   H     H_    0.398113 0.976502 0.687283 0.127451
H30   H     H_    0.520466 0.071387 0.809301 0.149396
H31   H     H_    0.418335 0.047637 0.628792 0.141811
H32   H     H_    0.913499 0.543706 0.623980 0.143395
H33   H     H_    0.581535 0.776358 0.652702 0.147445
H34   H     H_    0.578412 0.223434 0.652941 0.147875
H35   H     H_    0.080880 0.276358 0.652790 0.147418
H36   H     H_    0.079076 0.723434 0.652903 0.147868
H37   H     H_    0.421017 0.723641 0.346482 0.149506
H38   H     H_    0.423784 0.276575 0.346444 0.148778
H39   H     H_    0.921699 0.223641 0.346444 0.149496
H40   H     H_    0.923103 0.776575 0.346443 0.148787
H41   H     H_    0.209789 0.503212 0.317617 0.127433
H42   H     H_    0.709788 0.003155 0.317621 0.127438
H43   H     H_    0.210715 0.435428 0.160359 0.147731
H44   H     H_    0.210754 0.561083 0.151855 0.145400
H45   H     H_    0.710717 0.935455 0.160287 0.147658
H46   H     H_    0.710752 0.061115 0.151926 0.145302
O1    O     O_R   0.406950 0.500000 0.354430 -0.651793
O2    O     O_R   0.906950 0.000000 0.354430 -0.651815
O3    O     O_R   0.552530 0.938390 0.552510 -0.609402
O4    O     O_R   0.552530 0.061610 0.552510 -0.613963
O5    O     O_R   0.052530 0.438390 0.552510 -0.609273
O6    O     O_R   0.052530 0.561610 0.552510 -0.614247
O7    O     O_R   0.447440 0.000000 0.540340 -0.626119
O8    O     O_R   0.947440 0.500000 0.540340 -0.626520
O9    O     O_R   0.552480 1.000000 0.645470 -0.630171
O10   O     O_R   0.052480 0.500000 0.645470 -0.629779
O11   O     O_R   0.000050 0.534770 0.093010 -0.633880
O12   O     O_R   0.000050 0.465230 0.093010 -0.595236
O13   O     O_R   0.500050 0.034770 0.093010 -0.633825
O14   O     O_R   0.500050 0.965230 0.093010 -0.595346
O15   O     O_R   0.093030 0.534780 0.092960 -0.634453
O16   O     O_R   0.093030 0.465220 0.092960 -0.634106
O17   O     O_R   0.593030 0.034780 0.092960 -0.634591
O18   O     O_R   0.593030 0.965220 0.092960 -0.634197
O19   O     O_R   0.999950 0.534800 0.906860 -0.631889
O20   O     O_R   0.999950 0.465200 0.906860 -0.629269
O21   O     O_R   0.499950 0.034800 0.906860 -0.631661
O22   O     O_R   0.499950 0.965200 0.906860 -0.629461
O23   O     O_R   0.906980 0.534790 0.906910 -0.629089
O24   O     O_R   0.906980 0.465210 0.906910 -0.610352
O25   O     O_R   0.406980 0.034790 0.906910 -0.629033
O26   O     O_R   0.406980 0.965210 0.906910 -0.610248
O27   O     O_R   0.407010 0.500000 0.459520 -0.562468
O28   O     O_R   0.907010 0.000000 0.459520 -0.562460
O29   O     O_R   0.499970 0.561610 0.447450 -0.624060
O30   O     O_R   0.499970 0.438390 0.447450 -0.626757
O31   O     O_R   0.999970 0.061610 0.447450 -0.624257
O32   O     O_R   0.999970 0.938390 0.447450 -0.626591
O33   O     O_R   0.500030 0.561620 0.552540 -0.599258
O34   O     O_R   0.500030 0.438380 0.552540 -0.596517
O35   O     O_R   0.000030 0.061620 0.552540 -0.599131
O36   O     O_R   0.000030 0.938380 0.552540 -0.596618
O37   O     O_R   0.593000 0.500000 0.540480 -0.621955
O38   O     O_R   0.093000 0.000000 0.540480 -0.621936
O39   O     O_R   0.593060 0.500000 0.645570 -0.637741
O40   O     O_R   0.093060 1.000000 0.645570 -0.637745
O41   O     O_R   0.447530 1.000000 0.354370 -0.633092
O42   O     O_R   0.947530 0.500000 0.354370 -0.633107
O43   O     O_R   0.552560 0.000000 0.459510 -0.616146
O44   O     O_R   0.052560 0.500000 0.459510 -0.616122
O45   O     O_R   0.447490 0.938400 0.447370 -0.619920
O46   O     O_R   0.447490 0.061600 0.447370 -0.620176
O47   O     O_R   0.947490 0.438400 0.447370 -0.619897
O48   O     O_R   0.947490 0.561600 0.447370 -0.620055
Zn1   Zn    Zn3+2 0.499970 0.500000 0.429830 0.972243
Zn2   Zn    Zn3+2 0.999970 1.000000 0.429830 0.972238
Zn3   Zn    Zn3+2 0.500040 0.500000 0.570170 1.028784
Zn4   Zn    Zn3+2 0.000040 1.000000 0.570170 1.028781
Zn5   Zn    Zn3+2 0.429870 1.000000 0.429720 0.958817
Zn6   Zn    Zn3+2 0.929870 0.500000 0.429720 0.958623
Zn7   Zn    Zn3+2 0.570140 1.000000 0.570120 0.974917
Zn8   Zn    Zn3+2 0.070140 0.500000 0.570120 0.975108
Zn9   Zn    Zn3+2 1.000000 0.546450 0.999940 0.952138
Zn10  Zn    Zn3+2 1.000000 0.453550 0.999940 0.990200
Zn11  Zn    Zn3+2 0.500000 0.046450 0.999940 0.952278
Zn12  Zn    Zn3+2 0.500000 0.953550 0.999940 0.990074
H47   H     H_    0.711317 0.485250 0.817741 0.159383
H48   H     H_    0.710633 0.445716 0.639282 0.159077
H49   H     H_    0.211316 0.985989 0.817959 0.159412
H50   H     H_    0.210636 0.945232 0.640122 0.159280
H51   H     H_    0.021666 0.571140 0.232756 0.170973
H52   H     H_    0.521819 0.071119 0.232910 0.170924
C137  C     C_2   0.880288 0.473878 0.089222 0.371403
H53   H     H_    0.845105 0.465819 0.088642 0.064453
O49   O     O_2   0.867532 0.471671 0.020803 -0.589714
C138  C     C_2   0.093792 0.445239 0.299479 0.439557
H54   H     H_    0.130631 0.457656 0.306655 0.015809
O50   O     O_2   0.093254 0.407981 0.312163 -0.532220
C139  C     C_2   0.380239 0.973988 0.089169 0.371460
H55   H     H_    0.345036 0.965966 0.088566 0.064464
O51   O     O_2   0.367484 0.971790 0.020750 -0.589976
C140  C     C_2   0.593689 0.945153 0.299382 0.439547
H56   H     H_    0.630559 0.957538 0.306596 0.015876
O52   O     O_2   0.593072 0.907896 0.311982 -0.532296
H57   H     H_    0.397922 0.775963 0.429221 0.143914
H58   H     H_    0.396495 0.224206 0.423969 0.145430
H59   H     H_    0.897636 0.275960 0.427995 0.143932
H60   H     H_    0.896750 0.724204 0.425143 0.145432
C141  C     C_2   0.621151 0.721883 0.581780 0.362381
H61   H     H_    0.656676 0.744959 0.605851 0.075036
O53   O     O_2   0.633520 0.684565 0.590597 -0.570680
C142  C     C_2   0.622399 0.277919 0.588060 0.362350
H62   H     H_    0.658327 0.254781 0.613958 0.071717
O54   O     O_2   0.634938 0.315215 0.597521 -0.568453
C143  C     C_2   0.121508 0.221885 0.583247 0.362386
H63   H     H_    0.157137 0.244961 0.607753 0.074973
O55   O     O_2   0.133909 0.184567 0.592207 -0.570714
C144  C     C_2   0.122091 0.777921 0.586664 0.362351
H64   H     H_    0.157928 0.754784 0.612149 0.071707
O56   O     O_2   0.134602 0.815217 0.595988 -0.568453
C145  C     C_2   0.527302 0.777975 0.402594 0.379973
H65   H     H_    0.535234 0.754858 0.374084 0.072078
O57   O     O_2   0.529723 0.815280 0.392309 -0.538940
C146  C     C_2   0.531909 0.222111 0.408587 0.362138
H66   H     H_    0.541283 0.245256 0.381886 0.068713
O58   O     O_2   0.534795 0.184818 0.398837 -0.563363
C147  C     C_2   0.028437 0.277975 0.403985 0.379968
H67   H     H_    0.036706 0.254858 0.375887 0.072073
O59   O     O_2   0.030968 0.315280 0.393832 -0.538768
C148  C     C_2   0.030816 0.722113 0.407212 0.362114
H68   H     H_    0.039866 0.745258 0.380104 0.068735
O60   O     O_2   0.033593 0.684819 0.397328 -0.563439
C149  C     C_2   0.290115 0.428448 0.357382 0.370706
H69   H     H_    0.255020 0.408549 0.343877 0.080320
O61   O     O_2   0.345478 0.419391 0.417634 -0.570816
C150  C     C_2   0.290493 0.574856 0.347815 0.364910
H70   H     H_    0.255552 0.596387 0.331019 0.067744
O62   O     O_2   0.345981 0.583590 0.407743 -0.576885
C151  C     C_2   0.790121 0.928416 0.357306 0.370638
H71   H     H_    0.755029 0.908501 0.343774 0.080245
O63   O     O_2   0.845486 0.919363 0.417555 -0.570859
C152  C     C_2   0.790489 0.074829 0.347900 0.364931
H72   H     H_    0.755547 0.096348 0.331132 0.067740
O64   O     O_2   0.845975 0.083564 0.407830 -0.576849

loop_
_geom_bond_atom_site_label_1
_geom_bond_atom_site_label_2
_ccdc_geom_bond_type
O9    Zn7   S    
C139  O51   D    
C55   C59   S    
O43   Zn7   S    
O33   Zn3   S    
C117  C133  S    
C77   O20   A    
C130  H38   S    
C52   H8    S    
C84   C90   S    
C138  O50   D    
O25   Zn11  S    
C104  H26   S    
C86   C88   S    
C55   H9    S    
C58   C60   S    
C143  H63   S    
C33   C36   S    
C62   C70   S    
C60   C62   S    
C144  H64   S    
C89   C94   S    
O11   Zn9   S    
C104  C116  S    
C11   C15   S    
C12   C16   S    
C50   C52   S    
O48   Zn6   S    
C4    C12   S    
C68   C128  S    
C5    C13   S    
C81   C86   S    
C7    C15   S    
C8    C16   S    
C73   O12   A    
O34   Zn3   S    
C129  H37   S    
C130  C134  S    
C104  C105  S    
C67   O5    A    
O19   Zn9   S    
C74   O14   A    
C59   H13   S    
C103  H25   S    
C137  O49   D    
C27   C31   S    
C84   C100  S    
C28   C150  S    
C6    C132  S    
C109  H27   S    
C102  H24   S    
C110  H28   S    
C4    C130  S    
C81   C99   S    
C27   C35   S    
C32   C34   S    
C21   C123  T    
C47   C61   S    
C16   C118  S    
C41   O31   A    
O10   Zn8   S    
C37   H45   S    
C111  C113  S    
C78   O21   A    
O2    Zn2   S    
O29   Zn1   S    
C129  C133  S    
C142  O54   D    
C83   C100  S    
C57   H11   S    
C101  C115  S    
C107  C110  S    
C101  C111  S    
C152  H72   S    
O18   Zn12  S    
C75   O16   A    
C72   C116  S    
O40   Zn4   S    
C96   H58   S    
C49   C62   S    
C3    C129  S    
C42   O36   A    
C56   C59   S    
C98   C120  S    
C51   H7    S    
C40   C122  S    
C108  C111  S    
C39   O33   A    
O47   Zn6   S    
C150  O62   D    
C32   H42   S    
C66   O4    A    
C79   O23   A    
C148  O60   D    
O15   Zn9   S    
C91   C139  S    
C37   C44   S    
C103  C116  S    
C69   O39   A    
O42   Zn6   S    
C3    C11   S    
C97   H59   S    
C98   H60   S    
C95   H57   S    
C67   O47   A    
C20   C134  S    
C118  H2    S    
C21   C135  S    
C138  H54   S    
C113  C115  S    
C104  C110  S    
C53   C55   S    
C1    O1    A    
C151  O63   D    
C95   C117  S    
C105  C107  S    
C30   C38   S    
C137  H53   S    
C27   C149  S    
C78   C108  S    
C10   C18   S    
O20   Zn10  S    
C3    C145  S    
C49   C57   S    
C65   O45   A    
C63   C99   S    
C33   C75   S    
O3    Zn7   S    
C120  H4    S    
C35   C43   S    
C110  C114  S    
C20   C122  T    
C118  C134  S    
C12   C134  S    
C145  H65   S    
C24   C126  T    
C13   C135  S    
C84   H18   S    
C72   O8    A    
C68   O48   A    
C35   H43   S    
C83   C89   S    
C59   C61   S    
C1    O27   A    
C63   O41   A    
C93   H19   S    
C146  H66   S    
C30   C152  S    
C81   H15   S    
C66   C126  S    
C51   C53   S    
C97   C119  S    
C12   C142  S    
C5    C9    S    
C16   H34   S    
C6    C14   S    
O4    Zn7   S    
C43   C45   S    
C14   C144  S    
C88   C91   S    
C94   C100  S    
C132  C136  S    
C40   O34   A    
C149  H69   S    
C103  C105  S    
C60   H14   S    
C141  O53   D    
C101  H23   S    
O16   Zn10  S    
C109  C114  S    
C44   H6    S    
C80   O26   A    
O1    Zn1   S    
O5    Zn8   S    
C53   C56   S    
C101  C106  S    
C74   O13   A    
C19   C121  T    
O39   Zn3   S    
C30   C46   S    
O37   Zn1   S    
C76   O17   A    
C77   O19   A    
C114  C116  S    
C83   H17   S    
C38   H46   S    
O14   Zn12  S    
O12   Zn10  S    
C140  H56   S    
C64   C100  S    
C50   H50   S    
C1    C45   S    
C106  C108  S    
C7    C23   S    
C33   C35   S    
C144  O56   D    
O7    Zn5   S    
C6    C10   S    
C68   O6    A    
C98   C132  S    
C147  H67   S    
C85   H51   S    
C71   O9    A    
C72   O10   A    
C49   H49   S    
C34   C76   S    
C54   C57   S    
C73   O11   A    
C34   C37   S    
C82   C99   S    
C102  C112  S    
C36   H44   S    
C48   H48   S    
O32   Zn2   S    
C29   C151  S    
C9    C25   S    
C89   C137  S    
O26   Zn12  S    
C29   C32   S    
C3    C7    S    
C13   C143  S    
C82   C92   S    
C64   O42   A    
C143  O55   D    
C132  H40   S    
C73   C87   S    
O46   Zn5   S    
C102  C115  S    
C105  H21   S    
C9    C97   S    
C93   C99   S    
C27   C45   S    
O13   Zn11  S    
C34   C38   S    
C107  C109  S    
C152  O64   D    
C90   C94   S    
C54   C80   S    
C75   O15   A    
C50   C58   S    
C84   C85   S    
C63   O43   A    
C151  H71   S    
O30   Zn1   S    
C57   C60   S    
C47   C51   S    
C82   C86   S    
C119  C135  S    
C108  C112  S    
C22   C136  S    
O22   Zn12  S    
C120  C136  S    
C38   C44   S    
C91   C93   S    
C41   O35   A    
C49   C52   S    
C112  H30   S    
C2    O2    A    
C71   O7    A    
C97   C131  S    
C83   C85   S    
C43   H5    S    
O8    Zn6   S    
C7    C95   S    
O17   Zn11  S    
C96   C130  S    
C86   H52   S    
C6    C148  S    
C69   O37   A    
C28   C31   S    
C78   O22   A    
O35   Zn4   S    
C113  H31   S    
C92   C140  S    
C114  H32   S    
C13   C17   S    
C19   C133  S    
C40   O30   A    
C39   C121  S    
C29   C46   S    
C103  C109  S    
C119  H3    S    
C25   C127  T    
C47   H47   S    
C14   C136  S    
C131  H39   S    
C92   C93   S    
C70   O40   A    
O28   Zn4   S    
C56   H10   S    
C17   C119  S    
C81   C91   S    
C15   C117  S    
C5    C131  S    
C142  H62   S    
C28   C36   S    
C94   H20   S    
C87   C90   S    
C29   C37   S    
C95   C129  S    
C36   C43   S    
C74   C88   S    
C82   H16   S    
O44   Zn8   S    
C147  O59   D    
C14   C18   S    
C8    C96   S    
C4    C8    S    
C64   O44   A    
C42   C124  S    
C2    C46   S    
C31   H41   S    
C96   C118  S    
C150  H70   S    
C53   C79   S    
C146  O58   D    
C131  C135  S    
C11   C133  S    
C148  H68   S    
C58   H12   S    
C39   O29   A    
C15   H33   S    
C10   C98   S    
O23   Zn9   S    
C8    C24   S    
C48   C51   S    
C88   C92   S    
C31   C33   S    
C141  H61   S    
C23   C125  T    
C10   C26   S    
C112  C113  S    
C52   C54   S    
C85   C87   S    
C65   O3    A    
C28   C45   S    
C2    O28   A    
O38   Zn2   S    
C77   C107  S    
O36   Zn4   S    
C76   O18   A    
C106  H22   S    
C90   C138  S    
C70   O38   A    
C65   C125  S    
C140  O52   D    
C42   O32   A    
C67   C127  S    
C11   C141  S    
C71   C115  S    
C26   C128  T    
O31   Zn2   S    
O41   Zn5   S    
C111  H29   S    
C9    C17   S    
C145  O57   D    
C50   C62   S    
C66   O46   A    
C139  H55   S    
C18   C120  S    
C47   C55   S    
C54   C58   S    
C61   C69   S    
C48   C56   S    
C5    C147  S    
C117  H1    S    
C17   H35   S    
C22   C124  T    
O21   Zn11  S    
C18   H36   S    
C79   O24   A    
O45   Zn5   S    
C41   C123  S    
C87   C89   S    
C30   C32   S    
C48   C61   S    
C4    C146  S    
C149  O61   D    
C102  C106  S    
O27   Zn3   S    
O6    Zn8   S    
C80   O25   A    
O24   Zn10  S    
C44   C46   S    
