data_mof_unit_68281.cif
_audit_creation_date              2012-12-11T18:15:36-0500
_audit_creation_method            fapswitch 2.2
_symmetry_space_group_name_H-M    P1
_symmetry_Int_Tables_number       1
_space_group_crystal_system       triclinic
_cell_length_a                    20.11634
_cell_length_b                    20.373508
_cell_length_c                    8.428567
_cell_angle_alpha                 89.999762
_cell_angle_beta                  91.345557
_cell_angle_gamma                 90.186733
_cell_volume                      3453.39651086

loop_
_atom_site_label
_atom_site_type_symbol
_atom_type_description
_atom_site_fract_x
_atom_site_fract_y
_atom_site_fract_z
_atom_type_partial_charge
Ba1   Ba    Ba6+2 0.999980 0.452130 0.155200 1.643879
Ba2   Ba    Ba6+2 0.999980 0.547870 0.655200 1.645268
Ba3   Ba    Ba6+2 0.499980 0.952130 0.155200 1.643540
Ba4   Ba    Ba6+2 0.499980 0.047870 0.655200 1.645155
C1    C     C_3   0.961021 0.132379 0.420466 -0.218824
C2    C     C_R   0.115263 0.661249 0.185313 -0.311807
C3    C     C_1   0.774539 0.129408 0.548516 0.368331
C4    C     C_R   0.616316 0.839342 0.683028 -0.318726
C5    C     C_R   0.615333 0.161202 0.185180 -0.311053
C6    C     C_R   0.129200 0.288058 0.579756 0.050580
C7    C     C_R   0.128278 0.712670 0.082642 0.032692
C8    C     C_R   0.629187 0.788051 0.579779 0.050656
C9    C     C_R   0.628354 0.212618 0.082504 0.032687
C10   C     C_R   0.175036 0.239558 0.624368 -0.097220
C11   C     C_R   0.173964 0.761514 0.127610 -0.084898
C12   C     C_R   0.675019 0.739548 0.624402 -0.097136
C13   C     C_3   0.948609 0.856378 0.925053 -0.220057
C14   C     C_R   0.674019 0.261476 0.127494 -0.084674
C15   C     C_R   0.211922 0.244492 0.768231 -0.005845
C16   C     C_R   0.211013 0.756412 0.270966 -0.003910
C17   C     C_R   0.711907 0.744486 0.768262 -0.005788
C18   C     C_R   0.711043 0.256394 0.270889 -0.003361
C19   C     C_R   0.205544 0.301589 0.864916 -0.035963
C20   C     C_R   0.204847 0.698971 0.366327 -0.000703
C21   C     C_R   0.705535 0.801587 0.864936 -0.036120
C22   C     C_R   0.704874 0.198955 0.366253 -0.000040
C23   C     C_R   0.798218 0.698376 0.948982 -0.022502
C24   C     C_3   0.460943 0.632412 0.420403 -0.218356
C25   C     C_R   0.797653 0.302098 0.451789 -0.021248
C26   C     C_R   0.298219 0.198373 0.948975 -0.022505
C27   C     C_R   0.297654 0.802101 0.451809 -0.021207
C28   C     C_R   0.790799 0.754081 0.047515 -0.033915
C29   C     C_R   0.790276 0.246054 0.549296 -0.034129
C30   C     C_R   0.290792 0.254072 0.047521 -0.033982
C31   C     C_R   0.290269 0.746069 0.549344 -0.034196
C32   C     C_R   0.847899 0.650501 0.991810 0.054424
C33   C     C_R   0.847533 0.349862 0.494534 0.051995
C34   C     C_R   0.347896 0.150496 0.991813 0.054419
C35   C     C_3   0.448662 0.356362 0.925122 -0.220166
C36   C     C_R   0.347540 0.849864 0.494534 0.052003
C37   C     C_R   0.884886 0.658040 0.133476 -0.304378
C38   C     C_R   0.884292 0.342253 0.636985 -0.306329
C39   C     C_R   0.384871 0.158026 0.133498 -0.304443
C40   C     C_R   0.384304 0.842258 0.636980 -0.306328
C41   C     C_3   0.030174 0.220016 0.966419 0.350743
C42   C     C_3   0.022129 0.784592 0.491413 0.358422
C43   C     C_3   0.530194 0.720032 0.966404 0.350978
C44   C     C_3   0.522131 0.284582 0.491384 0.358607
C45   C     C_R   0.871464 0.708810 0.237839 0.024442
C46   C     C_R   0.154840 0.349131 0.821488 0.028286
C47   C     C_R   0.871394 0.290575 0.740588 0.032152
C48   C     C_R   0.371442 0.208792 0.237867 0.024610
C49   C     C_R   0.371397 0.790592 0.740608 0.032130
C50   C     C_R   0.825814 0.756779 0.194709 -0.135355
C51   C     C_R   0.825647 0.242570 0.696039 -0.129324
C52   C     C_R   0.325795 0.256762 0.194732 -0.135305
C53   C     C_R   0.325635 0.742599 0.696097 -0.129462
C54   C     C_R   0.757573 0.694224 0.810458 -0.032343
C55   C     C_R   0.756972 0.306561 0.313397 -0.041627
C56   C     C_R   0.257584 0.194228 0.810432 -0.032339
C57   C     C_R   0.154041 0.651328 0.322808 0.072983
C58   C     C_R   0.256962 0.806568 0.313437 -0.041554
C59   C     C_3   0.069289 0.156438 0.990747 -0.254639
C60   C     C_3   0.054605 0.851163 0.526063 -0.252236
C61   C     C_3   0.569316 0.656456 0.990697 -0.254695
C62   C     C_3   0.554627 0.351148 0.525888 -0.252379
C63   C     C_3   0.809486 0.460964 0.815810 0.304923
C64   C     C_3   0.810056 0.538980 0.315354 0.304887
C65   C     C_3   0.309485 0.960965 0.815796 0.304927
C66   C     C_3   0.310044 0.038973 0.315340 0.304878
C67   C     C_3   0.746265 0.419653 0.806010 -0.385137
C68   C     C_R   0.654829 0.849127 0.821507 0.027909
C69   C     C_3   0.746968 0.580087 0.305376 -0.382225
C70   C     C_3   0.246262 0.919658 0.805972 -0.385150
C71   C     C_3   0.246951 0.080073 0.305356 -0.382242
C72   C     C_3   0.183172 0.543902 0.989521 0.347201
C73   C     C_3   0.186578 0.458303 0.496366 0.412722
C74   C     C_3   0.683173 0.043936 0.989222 0.343993
C75   C     C_3   0.686566 0.958313 0.496545 0.411756
C76   C     C_3   0.244703 0.588395 0.017880 0.583328
C77   C     C_3   0.250527 0.423578 0.552261 0.594022
C78   C     C_3   0.744732 0.088537 0.016469 0.584423
C79   C     C_R   0.654078 0.151304 0.322730 0.072289
C80   C     C_3   0.750527 0.923623 0.552469 0.594064
C81   C     C_3   0.988298 0.202358 0.436405 0.676808
C82   C     C_3   0.987728 0.793615 0.959995 0.698017
C83   C     C_3   0.488267 0.702371 0.436440 0.677037
C84   C     C_3   0.487751 0.293574 0.959951 0.698066
C85   C     C_R   0.250578 0.307542 0.997394 -0.028604
C86   C     C_R   0.250515 0.692476 0.497123 -0.037333
C87   C     C_R   0.750583 0.807551 0.997389 -0.028508
C88   C     C_R   0.750549 0.192453 0.497016 -0.037312
C89   C     C_1   0.933522 0.118764 0.261521 0.264468
C90   C     C_R   0.116328 0.339348 0.683010 -0.318689
C91   C     C_1   0.902886 0.846214 0.789835 0.204599
C92   C     C_1   0.433454 0.618878 0.261391 0.262879
C93   C     C_1   0.402968 0.346279 0.789811 0.204591
C94   C     C_1   0.069564 0.116596 0.845791 0.368196
C95   C     C_1   0.058979 0.891060 0.381658 0.366144
C96   C     C_1   0.569547 0.616601 0.845724 0.368295
C97   C     C_1   0.559131 0.390928 0.381363 0.365988
C98   C     C_1   0.270658 0.370355 0.060585 0.350908
C99   C     C_1   0.274362 0.629437 0.549052 0.368940
C100  C     C_1   0.770697 0.870372 0.060498 0.350656
H1    H     H_    0.950391 0.237131 0.386325 -0.013365
H2    H     H_    0.758160 0.630505 0.264852 0.060723
H3    H     H_    0.257383 0.869127 0.766587 0.059947
H4    H     H_    0.258135 0.130488 0.264803 0.060706
H5    H     H_    0.723390 0.416980 0.924533 0.125876
H6    H     H_    0.724310 0.583100 0.424088 0.125798
H7    H     H_    0.223385 0.916979 0.924493 0.125843
H8    H     H_    0.224298 0.083094 0.424073 0.125800
H9    H     H_    0.154843 0.539939 0.100119 -0.043218
H10   H     H_    0.153390 0.463650 0.598687 -0.046537
H11   H     H_    0.655089 0.040045 0.100193 -0.045006
H12   H     H_    0.954182 0.750875 0.933532 -0.040741
H13   H     H_    0.653391 0.963693 0.598877 -0.045650
H14   H     H_    0.151108 0.566461 0.895721 0.014249
H15   H     H_    0.161236 0.428415 0.402859 -0.015207
H16   H     H_    0.650886 0.066348 0.895638 0.015574
H17   H     H_    0.661219 0.928390 0.403106 -0.015091
H18   H     H_    0.229588 0.639767 0.995539 0.023827
H19   H     H_    0.238963 0.371753 0.578481 0.004816
H20   H     H_    0.729663 0.139843 0.992778 0.023693
H21   H     H_    0.738961 0.871839 0.579150 0.004545
H22   H     H_    0.920869 0.124963 0.506746 0.089113
H23   H     H_    0.450384 0.737177 0.386388 -0.013404
H24   H     H_    0.918513 0.869599 0.029148 0.100150
H25   H     H_    0.420770 0.625005 0.506649 0.088809
H26   H     H_    0.418551 0.369551 0.029205 0.100048
H27   H     H_    0.078160 0.374400 0.649769 0.056128
H28   H     H_    0.076981 0.626087 0.151909 0.051877
H29   H     H_    0.578150 0.874397 0.649781 0.056119
H30   H     H_    0.577052 0.126040 0.151775 0.052003
H31   H     H_    0.182421 0.198308 0.545614 0.076142
H32   H     H_    0.181265 0.802974 0.049300 0.075476
H33   H     H_    0.682401 0.698295 0.545657 0.076118
H34   H     H_    0.454213 0.250858 0.933301 -0.040461
H35   H     H_    0.681314 0.302940 0.049192 0.075370
H36   H     H_    0.817987 0.796537 0.277454 0.131856
H37   H     H_    0.818187 0.201932 0.776629 0.121714
H38   H     H_    0.317967 0.296518 0.277482 0.131629
H39   H     H_    0.318161 0.701985 0.776744 0.122180
H40   H     H_    0.922316 0.622254 0.166907 0.061184
H41   H     H_    0.921858 0.378127 0.670436 0.062553
H42   H     H_    0.422301 0.122242 0.166929 0.061197
H43   H     H_    0.421878 0.878127 0.670410 0.062589
H44   H     H_    0.760762 0.651875 0.733821 0.096385
H45   H     H_    0.710190 0.441902 0.720091 0.133748
H46   H     H_    0.760259 0.349052 0.237202 0.094231
H47   H     H_    0.260776 0.151882 0.733787 0.096391
H48   H     H_    0.260252 0.849056 0.237235 0.094236
H49   H     H_    0.001006 0.096378 0.447644 0.122090
H50   H     H_    0.982724 0.897973 0.900241 0.109244
H51   H     H_    0.500902 0.596372 0.447540 0.122076
H52   H     H_    0.482800 0.397949 0.900459 0.109306
H53   H     H_    0.037814 0.250303 0.073933 0.096890
H54   H     H_    0.026049 0.754074 0.598887 0.102288
H55   H     H_    0.537815 0.750302 0.073957 0.096868
H56   H     H_    0.710668 0.557447 0.220250 0.133994
H57   H     H_    0.526001 0.254120 0.598957 0.102191
H58   H     H_    0.050935 0.247031 0.864703 0.014233
H59   H     H_    0.050153 0.759400 0.397544 -0.000183
H60   H     H_    0.550964 0.747066 0.864723 0.014131
H61   H     H_    0.550171 0.259329 0.397638 -0.000134
H62   H     H_    0.121603 0.168789 0.024506 0.046109
H63   H     H_    0.105692 0.843410 0.575368 0.059171
H64   H     H_    0.621648 0.668815 0.024380 0.046069
H65   H     H_    0.605672 0.343392 0.575421 0.059214
H66   H     H_    0.048106 0.127066 0.088107 0.111646
H67   H     H_    0.210190 0.941917 0.720060 0.133766
H68   H     H_    0.025529 0.878362 0.614785 0.105580
H69   H     H_    0.548153 0.627086 0.088122 0.111752
H70   H     H_    0.525519 0.378431 0.614376 0.105535
H71   H     H_    0.830519 0.464926 0.696039 0.018188
H72   H     H_    0.831027 0.534908 0.195582 0.016774
H73   H     H_    0.330523 0.964931 0.696030 0.018221
H74   H     H_    0.331012 0.034896 0.195565 0.016816
H75   H     H_    0.845455 0.436594 0.898551 0.056295
H76   H     H_    0.846163 0.563543 0.397799 0.057998
H77   H     H_    0.345450 0.936590 0.898538 0.056275
H78   H     H_    0.210649 0.057421 0.220252 0.134009
H79   H     H_    0.346151 0.063545 0.397771 0.057949
H80   H     H_    0.285244 0.539833 0.194356 0.325576
H81   H     H_    0.324104 0.453114 0.693362 0.331414
H82   H     H_    0.782676 0.039679 0.195664 0.323493
H83   H     H_    0.824224 0.953037 0.693325 0.331649
H84   H     H_    0.316908 0.532737 0.944053 0.348161
H85   H     H_    0.316950 0.468645 0.425565 0.333291
H86   H     H_    0.817338 0.032759 0.945645 0.348847
H87   H     H_    0.816912 0.968479 0.425206 0.333385
H88   H     H_    0.991060 0.260817 0.617802 0.241252
H89   H     H_    0.757388 0.369119 0.766646 0.059921
H90   H     H_    0.001431 0.748796 0.159034 0.238045
H91   H     H_    0.491053 0.760798 0.617883 0.241218
H92   H     H_    0.501413 0.248677 0.158893 0.238169
N1    N     N_1   0.911749 0.107130 0.136480 -0.184041
N2    N     N_1   0.297838 0.580753 0.591744 -0.214557
N3    N     N_1   0.790738 0.919116 0.112917 -0.266408
N4    N     N_1   0.798139 0.080724 0.590812 -0.213898
N5    N     N_1   0.866377 0.837218 0.684194 -0.205481
N6    N     N_1   0.411685 0.607331 0.136281 -0.185030
N7    N     N_1   0.366490 0.337350 0.684076 -0.205247
N8    N     N_1   0.070225 0.084900 0.731866 -0.282171
N9    N     N_1   0.062578 0.922680 0.268051 -0.263389
N10   N     N_1   0.570166 0.584891 0.731787 -0.282151
N11   N     N_1   0.562839 0.422451 0.267663 -0.263471
N12   N     N_1   0.290663 0.419097 0.113077 -0.266089
O1    O     O_2   0.130070 0.404060 0.104920 -0.466217
O2    O     O_3   0.954709 0.792719 0.448012 -0.572927
O3    O     O_3   0.461803 0.707282 0.941742 -0.564933
O4    O     O_3   0.454727 0.292718 0.447835 -0.572887
O5    O     O_3   0.924190 0.533610 0.949240 -0.498080
O6    O     O_3   0.924190 0.466390 0.449240 -0.497341
O7    O     O_3   0.424190 0.033610 0.949240 -0.498036
O8    O     O_3   0.424190 0.966390 0.449240 -0.497306
O9    O     O_3   0.075780 0.466370 0.861070 -0.498209
O10   O     O_3   0.075780 0.533630 0.361070 -0.496040
O11   O     O_3   0.575780 0.966370 0.861070 -0.498104
O12   O     O_2   0.130070 0.595940 0.604920 -0.475900
O13   O     O_3   0.575780 0.033630 0.361070 -0.495661
O14   O     O_3   0.022320 0.344950 0.359800 -0.494500
O15   O     O_3   0.022320 0.655050 0.859800 -0.494387
O16   O     O_3   0.522320 0.844950 0.359800 -0.494478
O17   O     O_3   0.522320 0.155050 0.859800 -0.494466
O18   O     O_2   0.134031 0.292964 0.249370 -0.506713
O19   O     O_2   0.132099 0.711207 0.749935 -0.515153
O20   O     O_2   0.634015 0.792940 0.249390 -0.506623
O21   O     O_2   0.632085 0.211200 0.749779 -0.515281
O22   O     O_3   0.203423 0.481675 0.940972 -0.591730
O23   O     O_2   0.630070 0.904060 0.104920 -0.466180
O24   O     O_3   0.203762 0.519429 0.434250 -0.620132
O25   O     O_3   0.703421 0.981671 0.940908 -0.591301
O26   O     O_3   0.703746 0.019418 0.434306 -0.622785
O27   O     O_3   0.048278 0.207537 0.353105 -0.622653
O28   O     O_3   0.044487 0.791879 0.864920 -0.620697
O29   O     O_3   0.548250 0.707533 0.353156 -0.622663
O30   O     O_3   0.544535 0.291872 0.865006 -0.620678
O31   O     O_2   0.869860 0.403670 0.205810 -0.473738
O32   O     O_2   0.869860 0.596330 0.705810 -0.469204
O33   O     O_2   0.369860 0.903670 0.205810 -0.473754
O34   O     O_2   0.630070 0.095940 0.604920 -0.475644
O35   O     O_2   0.369860 0.096330 0.705810 -0.469234
O36   O     O_3   0.977590 0.344880 0.951200 -0.511105
O37   O     O_3   0.977590 0.655120 0.451200 -0.512926
O38   O     O_3   0.477590 0.844880 0.951200 -0.511073
O39   O     O_3   0.477590 0.155120 0.451200 -0.512848
O40   O     O_2   0.874531 0.284484 0.075916 -0.481710
O41   O     O_2   0.869818 0.709158 0.569505 -0.471878
O42   O     O_2   0.374553 0.784463 0.075942 -0.481826
O43   O     O_2   0.369848 0.209203 0.569562 -0.472012
O44   O     O_3   0.268408 0.584950 0.175634 -0.760423
O45   O     O_3   0.793193 0.476702 0.371298 -0.636832
O46   O     O_3   0.274861 0.453435 0.692416 -0.720593
O47   O     O_3   0.768573 0.085765 0.174183 -0.759377
O48   O     O_3   0.774980 0.953675 0.692277 -0.719058
O49   O     O_3   0.295785 0.574821 0.912128 -0.681995
O50   O     O_3   0.298422 0.423607 0.433364 -0.727865
O51   O     O_3   0.795784 0.074341 0.911148 -0.679663
O52   O     O_3   0.798333 0.923465 0.433360 -0.728193
O53   O     O_3   0.999616 0.213683 0.598854 -0.749191
O54   O     O_3   0.006995 0.794376 0.120485 -0.737282
O55   O     O_3   0.499585 0.713662 0.598904 -0.749153
O56   O     O_3   0.792870 0.523292 0.871168 -0.637257
O57   O     O_3   0.506957 0.294248 0.120445 -0.737444
O58   O     O_3   0.293190 0.976698 0.371310 -0.636840
O59   O     O_3   0.292870 0.023292 0.871166 -0.637248
O60   O     O_3   0.961781 0.207276 0.941829 -0.565137
P1    P     P_3+3 0.136530 0.426510 0.931350 1.012724
P2    P     P_3+3 0.917017 0.715153 0.428066 0.965423
P3    P     P_3+3 0.419233 0.782472 0.928823 0.975421
P4    P     P_3+3 0.417017 0.215154 0.428057 0.965418
P5    P     P_3+3 0.083553 0.715620 0.889518 0.918311
P6    P     P_3+3 0.084491 0.285156 0.385893 0.936688
P7    P     P_3+3 0.583583 0.215597 0.889451 0.918108
P8    P     P_3+3 0.584478 0.785145 0.385918 0.936731
P9    P     P_3+3 0.136530 0.573490 0.431350 1.009904
P10   P     P_3+3 0.636530 0.926510 0.931350 1.012560
P11   P     P_3+3 0.636530 0.073490 0.431350 1.008496
P12   P     P_3+3 0.863410 0.426100 0.379280 0.970249
P13   P     P_3+3 0.863410 0.573900 0.879280 0.970231
P14   P     P_3+3 0.363410 0.926100 0.379280 0.970254
P15   P     P_3+3 0.363410 0.073900 0.879280 0.970242
P16   P     P_3+3 0.919225 0.282472 0.928825 0.975362

loop_
_geom_bond_atom_site_label_1
_geom_bond_atom_site_label_2
_ccdc_geom_bond_type
C24   C92   S    
C29   C51   A    
C22   C88   A    
O3    P3    S    
C59   C94   S    
C30   C52   A    
C22   C79   A    
Ba4   O8    S    
O6    P12   S    
C85   C98   S    
C62   H65   S    
C15   C19   A    
C74   H11   S    
C62   C97   S    
O33   P14   D    
C19   C46   A    
Ba2   O32   S    
O12   P9    D    
C40   H43   S    
Ba2   P9    S    
C83   H23   S    
C63   O56   S    
H92   O57   S    
C69   H6    S    
O11   P10   S    
C43   H55   S    
C75   H13   S    
Ba1   O31   S    
O25   P10   S    
C75   H17   S    
C69   H56   S    
C36   P14   S    
C77   O50   S    
C12   C17   A    
C58   H48   S    
H85   O50   S    
C77   H19   S    
C51   H37   S    
O34   P11   D    
C2    C57   A    
C94   N8    T    
O45   P12   S    
Ba2   O37   S    
C6    P6    S    
C32   P13   S    
Ba1   Ba2   S    
C60   H63   S    
C43   O3    S    
O10   P9    S    
C75   C80   S    
O27   P6    S    
C54   H44   S    
C39   C48   A    
C67   H89   S    
C28   C87   A    
Ba1   P1    S    
C10   H31   S    
C6    C90   A    
Ba3   O7    S    
C45   C50   A    
C42   H54   S    
C25   C29   A    
C3    N4    T    
Ba4   P15   S    
C27   C36   A    
C26   C34   A    
C82   H12   S    
O28   P5    S    
Ba3   O33   S    
C28   C50   A    
C33   C38   A    
C5    C9    A    
H88   O53   S    
C7    P5    S    
C97   N11   T    
C83   O29   S    
C65   H73   S    
C70   H3    S    
C67   H45   S    
C45   P2    S    
C7    C11   A    
C40   C49   A    
C60   C95   S    
C50   H36   S    
C44   H61   S    
C25   C55   A    
C63   H71   S    
C49   P3    S    
C26   C56   A    
C1    H22   S    
C80   O48   S    
Ba2   O9    S    
C19   C85   A    
Ba1   O10   S    
C13   C91   S    
Ba3   O38   S    
O59   P15   S    
C77   O46   S    
C87   C100  S    
Ba4   O35   S    
C68   P10   S    
C66   H79   S    
O2    P2    S    
C38   C47   A    
O35   P15   D    
C5    H30   S    
O58   P14   S    
O1    P1    D    
C78   O51   S    
C71   H4    S    
Ba3   O13   S    
Ba4   O7    S    
C81   O27   S    
C43   C61   S    
O41   P2    D    
Ba2   O12   S    
O56   P13   S    
O17   P7    S    
C27   C58   A    
C8    P8    S    
C32   C37   A    
C14   H35   S    
C35   C84   S    
C93   N7    T    
C81   H1    S    
C13   H50   S    
C64   O45   S    
C37   C45   A    
C38   H41   S    
C66   O58   S    
Ba2   P13   S    
C59   H62   S    
C86   C99   S    
C64   H72   S    
C11   C16   A    
O16   P8    S    
H84   O49   S    
C21   C87   A    
C12   H33   S    
O36   P16   S    
C26   C30   A    
C83   O55   S    
Ba1   O1    S    
C13   C82   S    
C8    C12   A    
O9    P1    S    
C41   H53   S    
C75   O26   S    
Ba1   P12   S    
C2    H28   S    
O38   P3    S    
C6    C10   A    
C29   C88   A    
Ba3   O23   S    
C2    C7    A    
C49   C53   A    
C10   C15   A    
C66   H74   S    
C59   H66   S    
C76   H18   S    
C11   H32   S    
C73   H15   S    
Ba3   O8    S    
Ba4   O17   S    
C64   H76   S    
Ba3   O16   S    
C82   O28   S    
C34   C39   A    
C41   O60   S    
C42   C60   S    
Ba1   O14   S    
C56   H47   S    
O8    P14   S    
O24   P9    S    
O14   P6    S    
C74   H16   S    
C41   H58   S    
H81   O46   S    
Ba4   O39   S    
C47   P16   S    
Ba1   O36   S    
C24   H51   S    
C74   C78   S    
O15   P5    S    
C46   P1    S    
C73   C77   S    
C4    C8    A    
Ba4   O11   S    
C84   O30   S    
O31   P12   D    
C24   C83   S    
C72   H9    S    
C71   H8    S    
C65   C70   S    
C21   C68   A    
H87   O52   S    
C84   H34   S    
C70   H67   S    
O42   P3    D    
C34   P15   S    
C5    C79   A    
C20   C57   A    
C44   O4    S    
C9    C14   A    
O22   P1    S    
C95   N9    T    
Ba2   O6    S    
C76   O44   S    
C42   H59   S    
Ba4   O34   S    
C72   O22   S    
C15   C56   A    
C100  N3    T    
O7    P15   S    
C78   O47   S    
O13   P11   S    
O29   P8    S    
C43   H60   S    
C25   C33   A    
Ba3   Ba4   S    
H80   O44   S    
O40   P16   D    
C78   H20   S    
C55   H46   S    
C80   H21   S    
C24   H25   S    
C17   C21   A    
O21   P7    D    
C73   O24   S    
C96   N10   T    
O26   P11   S    
C99   N2    T    
O23   P10   D    
C61   H69   S    
C23   C28   A    
H90   O54   S    
C4    C68   A    
C57   P9    S    
H86   O51   S    
C80   O52   S    
C46   C90   A    
C17   C54   A    
C72   C76   S    
C61   C96   S    
C81   O53   S    
Ba3   P14   S    
C23   C54   A    
C4    H29   S    
O43   P4    D    
C65   O59   S    
C1    C89   S    
C13   H24   S    
C92   N6    T    
O5    P13   S    
C35   H26   S    
C23   C32   A    
C91   N5    T    
C63   C67   S    
C79   P11   S    
C90   H27   S    
C44   H57   S    
C31   C53   A    
C35   H52   S    
O32   P13   D    
C20   C86   A    
C16   C20   A    
C14   C18   A    
O37   P2    S    
C64   C69   S    
C30   C85   A    
C1    C81   S    
H82   O47   S    
C39   H42   S    
C42   O2    S    
Ba3   P10   S    
Ba1   O5    S    
O39   P4    S    
O60   P16   S    
C70   H7    S    
C69   H2    S    
C48   P4    S    
C37   H40   S    
O20   P8    D    
C74   O25   S    
C1    H49   S    
C89   N1    T    
C67   H5    S    
C27   C31   A    
Ba2   O15   S    
C41   C59   S    
C47   C51   A    
O19   P5    D    
C18   C55   A    
C84   O57   S    
C72   H14   S    
C60   H68   S    
C35   C93   S    
C9    P7    S    
C33   P12   S    
C52   H38   S    
C31   C86   A    
C48   C52   A    
H91   O55   S    
C36   C40   A    
C66   C71   S    
Ba2   O5    S    
C18   C22   A    
C3    C88   S    
Ba1   O6    S    
Ba4   P11   S    
O4    P4    S    
C62   H70   S    
C63   H75   S    
C76   O49   S    
O18   P6    D    
C44   C62   S    
H83   O48   S    
C71   H78   S    
C98   N12   T    
C82   O54   S    
C61   H64   S    
O30   P7    S    
C53   H39   S    
C65   H77   S    
C16   C58   A    
C73   H10   S    
