data_mof_unit_57466.cif
_audit_creation_date              2012-12-10T19:06:26-0500
_audit_creation_method            fapswitch 2.2
_symmetry_space_group_name_H-M    P1
_symmetry_Int_Tables_number       1
_space_group_crystal_system       triclinic
_cell_length_a                    23.530257
_cell_length_b                    10.870079
_cell_length_c                    9.534458
_cell_angle_alpha                 89.504362
_cell_angle_beta                  90.076887
_cell_angle_gamma                 90.353849
_cell_volume                      2438.54339556

loop_
_atom_site_label
_atom_site_type_symbol
_atom_type_description
_atom_site_fract_x
_atom_site_fract_y
_atom_site_fract_z
_atom_type_partial_charge
C1    C     C_R   0.499976 0.262542 0.500405 0.810900
C2    C     C_R   0.970284 0.284640 0.415451 -0.158803
C3    C     C_R   0.029583 0.285204 0.415543 -0.157416
C4    C     C_R   0.059950 0.390327 0.457595 -0.016653
C5    C     C_R   0.030128 0.495601 0.500015 -0.016794
C6    C     C_R   0.060147 0.601454 0.542518 -0.016932
C7    C     C_R   0.029983 0.706002 0.584479 -0.157444
C8    C     C_R   0.970692 0.705437 0.584389 -0.158959
C9    C     C_R   0.119571 0.393008 0.458722 0.538076
C10   C     C_R   0.119757 0.599947 0.541524 0.537516
C11   C     C_R   0.238983 0.501530 0.627067 -0.091258
C12   C     C_R   0.390920 0.499744 0.499983 0.812460
C13   C     C_R   0.298235 0.502284 0.627171 -0.179264
C14   C     C_R   0.328338 0.499115 0.499976 -0.043455
C15   C     C_R   0.298067 0.495069 0.372856 -0.208335
C16   C     C_R   0.238812 0.494171 0.373082 -0.094004
C17   C     C_R   0.209077 0.497435 0.500103 0.347392
C18   C     C_R   0.761245 0.489959 0.373014 -0.096957
C19   C     C_R   0.701993 0.491089 0.373013 -0.209935
C20   C     C_R   0.671839 0.496243 0.500042 -0.042059
C21   C     C_R   0.702251 0.498018 0.627025 -0.206512
C22   C     C_R   0.761491 0.497026 0.626848 -0.096035
C23   C     C_R   0.500473 0.737200 0.499372 0.811708
C24   C     C_R   0.791196 0.493485 0.499876 0.351452
C25   C     C_R   0.490719 0.059899 0.619721 0.045427
C26   C     C_R   0.501494 0.129766 0.499724 -0.099470
C27   C     C_R   0.513920 0.065818 0.375059 -0.184572
C28   C     C_R   0.514072 0.936631 0.374058 -0.194158
C29   C     C_R   0.501988 0.869550 0.497833 -0.086660
C30   C     C_R   0.491138 0.935567 0.618363 0.047674
C31   C     C_3   0.472301 0.921319 0.766956 -0.300705
C32   C     C_3   0.470916 0.064397 0.768754 -0.102389
C33   C     C_R   0.522970 0.596714 0.072787 0.254543
C34   C     C_R   0.609141 0.498947 0.500033 0.802001
C35   C     C_R   0.470853 0.413205 0.075244 -0.053526
C36   C     C_R   0.470499 0.413990 0.926286 -0.043168
C37   C     C_R   0.523141 0.596445 0.925444 0.251082
C38   C     C_3   0.583018 0.641359 0.919543 -0.492669
C39   C     C_3   0.582738 0.642345 0.078736 -0.493653
C40   C     C_R   0.880719 0.597663 0.541213 0.535357
C41   C     C_R   0.880495 0.390729 0.458396 0.536071
C42   C     C_R   0.940116 0.389185 0.457414 -0.016078
C43   C     C_R   0.970143 0.495029 0.499925 -0.016768
C44   C     C_R   0.940330 0.600313 0.542340 -0.015619
Cu1   Cu    Cu3+1 0.500000 0.499980 0.640670 0.967013
Cu2   Cu    Cu3+1 0.500000 0.500020 0.359330 0.955727
H1    H     H_    0.679974 0.487506 0.273604 0.151599
H2    H     H_    0.680467 0.499903 0.726565 0.150750
H3    H     H_    0.784392 0.498789 0.725410 0.143470
H4    H     H_    0.523165 0.114966 0.278358 0.177590
H5    H     H_    0.523337 0.889983 0.276888 0.158280
H6    H     H_    0.505499 0.878520 0.834216 0.143387
H7    H     H_    0.448240 0.341373 0.131567 0.145360
H8    H     H_    0.051506 0.203064 0.382575 0.192758
H9    H     H_    0.447198 0.344065 0.870953 0.148780
H10   H     H_    0.612353 0.571939 0.876394 0.214376
H11   H     H_    0.586630 0.734662 0.871764 0.195721
H12   H     H_    0.585770 0.736373 0.123106 0.193786
H13   H     H_    0.052059 0.788565 0.617505 0.193066
H14   H     H_    0.948772 0.787581 0.617354 0.192135
H15   H     H_    0.216230 0.503764 0.725650 0.146199
H16   H     H_    0.320386 0.505379 0.726734 0.169245
H17   H     H_    0.320088 0.492492 0.273268 0.163550
H18   H     H_    0.215922 0.491328 0.274545 0.146345
H19   H     H_    0.783956 0.486878 0.274410 0.144038
N1    N     N_R   0.852151 0.493927 0.499805 -0.470516
N2    N     N_R   0.148121 0.496763 0.500146 -0.470954
N3    N     N_R   0.500360 0.500930 0.147930 -0.188618
N4    N     N_R   0.500360 0.500890 0.852020 -0.188215
O1    O     O_R   0.500000 0.319640 0.618810 -0.579417
O2    O     O_2   0.851042 0.289724 0.419388 -0.528799
O3    O     O_2   0.148827 0.292543 0.419807 -0.524293
O4    O     O_2   0.149190 0.700996 0.580495 -0.522227
O5    O     O_R   0.500010 0.319680 0.381230 -0.587867
O6    O     O_R   0.417880 0.499940 0.618820 -0.579338
O7    O     O_R   0.417880 0.499980 0.381240 -0.585097
O8    O     O_R   0.499990 0.680320 0.618770 -0.582349
O9    O     O_R   0.500000 0.680360 0.381190 -0.585532
O10   O     O_R   0.582120 0.500020 0.618760 -0.581149
O11   O     O_R   0.582120 0.500060 0.381180 -0.583454
O12   O     O_2   0.851484 0.698165 0.580110 -0.530113
H20   H     H_    0.948206 0.202082 0.382421 0.192090
C45   C     C_1   0.416860 0.857711 0.776924 0.316223
N5    N     N_1   0.373456 0.807468 0.784649 -0.262840
C46   C     C_1   0.414304 0.120784 0.781641 0.237367
N6    N     N_1   0.369821 0.164753 0.791387 -0.274751
C47   C     C_1   0.513539 0.118679 0.863173 0.230595
N7    N     N_1   0.547195 0.160932 0.937472 -0.290147
H21   H     H_    0.612206 0.574118 0.125405 0.214817

loop_
_geom_bond_atom_site_label_1
_geom_bond_atom_site_label_2
_ccdc_geom_bond_type
C47   N7    T    
C37   N4    A    
C35   H7    S    
C41   C42   A    
C35   C36   A    
C9    O3    S    
C31   H6    S    
Cu2   O7    S    
C7    C8    A    
C46   N6    T    
C18   H19   S    
C26   C27   A    
C29   C30   A    
C18   C24   A    
C1    O5    A    
C23   C29   S    
C28   C29   A    
C5    C6    A    
C28   H5    S    
C19   H1    S    
C15   C16   A    
C31   C45   S    
C18   C19   A    
C34   O11   A    
C13   H16   S    
C31   C32   S    
C16   C17   A    
C27   H4    S    
C24   N1    S    
C41   O2    S    
C21   H2    S    
C20   C34   S    
C25   C32   S    
C5    C43   A    
C40   N1    A    
C21   C22   A    
C7    H13   S    
C38   C39   S    
C17   N2    S    
Cu1   N4    S    
Cu2   O9    S    
C25   C26   A    
C10   N2    A    
C39   H12   S    
C33   C37   A    
C43   C44   A    
C9    N2    A    
Cu2   N3    S    
C37   C38   S    
C34   O10   A    
C38   H11   S    
C45   N5    T    
Cu1   O10   S    
C33   C39   S    
C23   O8    A    
C41   N1    A    
C3    H8    S    
C22   H3    S    
C12   C14   S    
C12   O7    A    
C1    C26   S    
C22   C24   A    
C2    H20   S    
C42   C43   A    
C32   C47   S    
C3    C4    A    
Cu2   O5    S    
C36   N4    A    
C25   C30   A    
C11   C17   A    
Cu1   O1    S    
C40   O12   S    
C8    C44   A    
C4    C5    A    
C11   H15   S    
C6    C10   A    
C6    C7    A    
C1    O1    A    
Cu1   O6    S    
C19   C20   A    
C2    C3    A    
C36   H9    S    
C8    H14   S    
Cu2   O11   S    
C11   C13   A    
C30   C31   S    
C35   N3    A    
C2    C42   A    
C32   C46   S    
C10   O4    S    
C23   O9    A    
Cu1   Cu2   S    
C40   C44   A    
C38   H10   S    
C20   C21   A    
C12   O6    A    
C27   C28   A    
C15   H17   S    
C14   C15   A    
Cu1   O8    S    
C16   H18   S    
C4    C9    A    
C13   C14   A    
C39   H21   S    
C33   N3    A    
