data_mof_unit_18472.cif
_audit_creation_date              2012-10-26T20:19:14-0400
_audit_creation_method            fapswitch 2.2
_symmetry_space_group_name_H-M    P1
_symmetry_Int_Tables_number       1
_space_group_crystal_system       triclinic
_cell_length_a                    15.00646
_cell_length_b                    13.069872
_cell_length_c                    11.698804
_cell_angle_alpha                 98.619304
_cell_angle_beta                  94.217189
_cell_angle_gamma                 90.989563
_cell_volume                      2261.52763088

loop_
_atom_site_label
_atom_site_type_symbol
_atom_type_description
_atom_site_fract_x
_atom_site_fract_y
_atom_site_fract_z
_atom_type_partial_charge
C1    C     C_R   0.497038 0.299890 0.480205 0.587893
C2    C     C_R   0.449652 0.862691 0.613221 -0.151527
C3    C     C_R   0.459225 0.133044 0.550738 0.023521
C4    C     C_R   0.542269 0.867068 0.450689 0.009723
C5    C     C_R   0.473666 0.025354 0.543444 0.050248
C6    C     C_R   0.527542 0.974677 0.457621 0.052925
C7    C     C_R   0.387784 0.450127 0.030704 -0.033393
C8    C     C_R   0.612533 0.548910 0.969078 -0.032688
C9    C     C_R   0.404054 0.447104 0.150965 0.071858
C10   C     C_R   0.596080 0.552525 0.848972 0.069257
C11   C     C_R   0.551332 0.514194 0.152271 0.014709
C12   C     C_R   0.503501 0.700077 0.519896 0.527906
C13   C     C_R   0.448780 0.485500 0.847662 0.019742
C14   C     C_R   0.541701 0.515662 0.030606 -0.005026
C15   C     C_R   0.458492 0.483801 0.969279 -0.002738
C16   C     C_R   0.328936 0.497180 0.499524 0.590746
C17   C     C_R   0.671030 0.502869 0.500135 0.516090
C18   C     C_R   0.819072 0.595138 0.548581 0.022149
C19   C     C_R   0.180962 0.404803 0.453066 0.018132
C20   C     C_R   0.767597 0.507099 0.498014 -0.044533
C21   C     C_R   0.232077 0.495146 0.496986 -0.015196
C22   C     C_R   0.806520 0.422488 0.436970 -0.141842
C23   C     C_R   0.032567 0.329465 0.367169 0.012868
C24   C     C_R   0.191624 0.587663 0.532995 -0.157276
C25   C     C_R   0.898865 0.419884 0.427669 0.013579
C26   C     C_R   0.098483 0.594024 0.528913 0.013908
C27   C     C_R   0.952057 0.508097 0.478179 -0.004598
C28   C     C_R   0.045735 0.504911 0.478862 0.001529
C29   C     C_R   0.911157 0.599789 0.528127 0.043770
C30   C     C_R   0.086787 0.411682 0.432978 -0.012148
C31   C     C_R   0.938302 0.332617 0.365860 0.004238
C32   C     C_R   0.057267 0.688847 0.567633 -0.008063
C33   C     C_2   0.777049 0.676249 0.629214 0.254607
C34   C     C_R   0.963157 0.693292 0.554019 0.063195
C35   C     C_2   0.224353 0.302639 0.444992 0.233883
C36   C     C_3   0.295586 0.422194 0.968223 -0.326699
C37   C     C_3   0.223376 0.389695 0.042296 -0.405685
C38   C     C_3   0.705107 0.575361 0.031151 -0.315196
C39   C     C_3   0.777899 0.605705 0.956597 -0.420642
C40   C     C_3   0.880142 0.245033 0.293952 -0.286762
C41   C     C_3   0.855835 0.162793 0.367307 -0.440636
C42   C     C_3   0.112515 0.784892 0.623878 -0.288482
C43   C     C_3   0.146180 0.846176 0.533403 -0.439283
C44   C     C_2   0.072538 0.244297 0.290320 0.208064
C45   C     C_R   0.500838 0.811984 0.528815 0.018166
C46   C     C_2   0.920935 0.794978 0.546088 0.265865
C47   C     C_3   0.602972 0.812394 0.362899 -0.258565
C48   C     C_3   0.554434 0.789172 0.241583 -0.423903
C49   C     C_3   0.400207 0.187967 0.640625 -0.260492
C50   C     C_3   0.450643 0.210074 0.760818 -0.428540
C51   C     C_R   0.499861 0.187960 0.471690 0.039945
C52   C     C_R   0.565070 0.032784 0.380379 -0.144189
C53   C     C_R   0.435889 0.967142 0.620424 -0.148428
C54   C     C_R   0.550739 0.137110 0.386986 -0.151836
Cu1   Cu    Cu3+1 0.506660 0.507730 0.615930 0.920886
Cu2   Cu    Cu3+1 0.493340 0.492270 0.384070 0.954637
H1    H     H_    0.762792 0.357102 0.401602 0.120194
H2    H     H_    0.352551 0.420070 0.199353 0.173228
H3    H     H_    0.707470 0.694776 0.613370 0.118511
H4    H     H_    0.191039 0.238447 0.475121 0.076881
H5    H     H_    0.243009 0.318590 0.078016 0.206308
H6    H     H_    0.211547 0.453115 0.113619 0.170394
H7    H     H_    0.159736 0.372225 0.987528 0.158300
H8    H     H_    0.271107 0.490323 0.929886 0.150049
H9    H     H_    0.301562 0.357571 0.896397 0.134337
H10   H     H_    0.788095 0.541958 0.884939 0.163091
H11   H     H_    0.760113 0.677585 0.921327 0.190916
H12   H     H_    0.235179 0.654411 0.563146 0.112655
H13   H     H_    0.841936 0.621001 0.010964 0.158652
H14   H     H_    0.700144 0.640415 0.102727 0.143490
H15   H     H_    0.728522 0.506972 0.069838 0.151761
H16   H     H_    0.819461 0.197060 0.442421 0.157523
H17   H     H_    0.812312 0.101512 0.313638 0.148280
H18   H     H_    0.917233 0.126781 0.399929 0.149273
H19   H     H_    0.818928 0.275009 0.253084 0.139343
H20   H     H_    0.913236 0.207213 0.217685 0.148662
H21   H     H_    0.187662 0.913849 0.577547 0.137123
H22   H     H_    0.187571 0.797538 0.473085 0.162768
H23   H     H_    0.417295 0.820314 0.672365 0.130347
H24   H     H_    0.089023 0.874689 0.482448 0.155502
H25   H     H_    0.073711 0.836085 0.684911 0.132384
H26   H     H_    0.169308 0.764126 0.681323 0.142041
H27   H     H_    0.053220 0.164288 0.292579 0.098666
H28   H     H_    0.947220 0.866076 0.597926 0.110504
H29   H     H_    0.499559 0.730852 0.239311 0.188285
H30   H     H_    0.525163 0.859608 0.213801 0.149541
H31   H     H_    0.602131 0.758665 0.178005 0.128310
H32   H     H_    0.664869 0.859588 0.360963 0.158434
H33   H     H_    0.628884 0.739499 0.388489 0.165560
H34   H     H_    0.582666 0.179362 0.327370 0.125363
H35   H     H_    0.478989 0.138846 0.787762 0.150781
H36   H     H_    0.506379 0.267047 0.761524 0.187618
H37   H     H_    0.404480 0.241976 0.825821 0.126806
H38   H     H_    0.374409 0.261385 0.616719 0.179518
H39   H     H_    0.338046 0.141609 0.643759 0.118588
H40   H     H_    0.606598 0.999729 0.313703 0.116502
H41   H     H_    0.394455 0.000118 0.687230 0.115318
H42   H     H_    0.387659 0.457739 0.797506 0.125202
H43   H     H_    0.612459 0.542008 0.202397 0.128713
H44   H     H_    0.647601 0.579614 0.800659 0.150550
N1    N     N_R   0.516670 0.519360 0.790130 -0.249891
N2    N     N_R   0.483330 0.480640 0.209870 -0.253694
O1    O     O_R   0.504720 0.354460 0.582000 -0.513165
O2    O     O_2   0.295291 0.288083 0.401352 -0.496862
O3    O     O_2   0.125213 0.263516 0.221230 -0.505881
O4    O     O_2   0.857004 0.800710 0.476623 -0.539593
O5    O     O_R   0.495280 0.645540 0.418000 -0.511765
O6    O     O_R   0.493480 0.341410 0.386200 -0.471683
O7    O     O_R   0.506520 0.658590 0.613800 -0.508647
O8    O     O_R   0.375880 0.506510 0.597910 -0.522719
O9    O     O_R   0.624120 0.493490 0.402090 -0.517282
O10   O     O_R   0.364640 0.493450 0.402110 -0.477414
O11   O     O_R   0.635360 0.506550 0.597890 -0.521739
O12   O     O_2   0.819105 0.720466 0.716501 -0.541608

loop_
_geom_bond_atom_site_label_1
_geom_bond_atom_site_label_2
_ccdc_geom_bond_type
C25   C31   A    
Cu1   Cu2   S    
C38   H14   S    
C26   C32   A    
C16   C21   S    
C27   C29   A    
C7    C36   S    
C42   H26   S    
C44   H27   S    
C22   H1    S    
C37   H6    S    
C3    C49   S    
C17   O11   A    
C44   O3    D    
C43   H22   S    
C33   O12   D    
C5    C53   A    
C36   C37   S    
C19   C21   A    
C24   C26   A    
C54   H34   S    
C38   C39   S    
C11   C14   A    
Cu1   O1    S    
C17   C20   S    
C31   C40   S    
C11   H43   S    
C9    H2    S    
C13   H42   S    
Cu2   O6    S    
C2    H23   S    
C41   H18   S    
C9    N2    A    
C22   C25   A    
C34   C46   S    
C49   H38   S    
C1    O1    A    
Cu2   O9    S    
C7    C15   A    
C33   H3    S    
Cu1   O7    S    
C47   H33   S    
C42   H25   S    
C8    C38   S    
C17   O9    A    
C12   O7    A    
C37   H7    S    
C52   C54   A    
C4    C45   A    
C2    C45   A    
C16   O8    A    
C23   C30   A    
C4    C6    A    
C35   O2    D    
C3    C51   A    
C36   H9    S    
Cu1   O11   S    
C53   H41   S    
C43   H24   S    
C29   C34   A    
C23   C44   S    
C40   H20   S    
C35   H4    S    
C32   C34   A    
Cu2   O5    S    
C47   C48   S    
C39   H13   S    
C48   H31   S    
C18   C29   A    
C49   H39   S    
C10   H44   S    
C1    C51   S    
C41   H16   S    
C46   H28   S    
C50   H36   S    
C40   C41   S    
C20   C22   A    
C13   C15   A    
Cu1   O8    S    
C39   H10   S    
C48   H30   S    
C43   H21   S    
C42   C43   S    
C13   N1    A    
C16   O10   A    
C7    C9    A    
C38   H15   S    
C8    C14   A    
C14   C15   A    
C39   H11   S    
C10   N1    A    
C12   C45   S    
C3    C5    A    
C2    C53   A    
C12   O5    A    
C37   H5    S    
C50   H37   S    
C25   C27   A    
Cu1   N1    S    
C26   C28   A    
C40   H19   S    
C51   C54   A    
C47   H32   S    
C28   C30   A    
Cu2   N2    S    
C19   C35   S    
C5    C6    A    
C46   O4    D    
C52   H40   S    
C11   N2    A    
C18   C20   A    
C18   C33   S    
C24   H12   S    
C1    O6    A    
C41   H17   S    
C50   H35   S    
C8    C10   A    
C49   C50   S    
C21   C24   A    
C27   C28   A    
C32   C42   S    
C48   H29   S    
C6    C52   A    
C36   H8    S    
C19   C30   A    
Cu2   O10   S    
C23   C31   A    
C4    C47   S    
