data_mof_unit_58177.cif
_audit_creation_date              2012-12-11T15:34:04-0500
_audit_creation_method            fapswitch 2.2
_symmetry_space_group_name_H-M    P1
_symmetry_Int_Tables_number       1
_space_group_crystal_system       triclinic
_cell_length_a                    15.003332
_cell_length_b                    15.042009
_cell_length_c                    34.835596
_cell_angle_alpha                 90.832442
_cell_angle_beta                  90.071223
_cell_angle_gamma                 60.046481
_cell_volume                      6810.74107492

loop_
_atom_site_label
_atom_site_type_symbol
_atom_type_description
_atom_site_fract_x
_atom_site_fract_y
_atom_site_fract_z
_atom_type_partial_charge
C1    C     C_R   0.303702 0.607881 0.556177 0.572691
C2    C     C_R   0.656647 0.675806 0.667688 -0.002109
C3    C     C_R   0.223753 0.659289 0.274347 0.234794
C4    C     C_R   0.137242 0.678282 0.296271 -0.013543
C5    C     C_R   0.046036 0.693644 0.278322 -0.016613
C6    C     C_R   0.039970 0.696708 0.237592 0.003951
C7    C     C_R   0.128963 0.676600 0.215939 0.010439
C8    C     C_R   0.176928 0.578515 0.355590 -0.024565
C9    C     C_R   0.218459 0.559020 0.392368 0.250524
C10   C     C_R   0.194630 0.731496 0.395358 -0.113145
C11   C     C_R   0.152763 0.750011 0.358722 -0.023965
C12   C     C_R   0.149022 0.671608 0.338111 0.059156
C13   C     C_R   0.578884 0.749960 0.644604 0.270475
C14   C     C_R   0.233450 0.634222 0.411845 0.026502
C15   C     C_R   0.734846 0.029105 0.943912 0.552277
C16   C     C_R   0.743735 0.721415 0.945522 0.545616
C17   C     C_R   0.040605 0.732189 0.948509 0.587763
C18   C     C_R   0.721176 0.041991 0.052376 0.547053
C19   C     C_R   0.733860 0.734791 0.055056 0.573597
C20   C     C_R   0.030180 0.743775 0.057638 0.580703
C21   C     C_R   0.572183 0.727577 0.605729 0.202125
C22   C     C_R   0.665057 0.690395 0.787173 0.371648
C23   C     C_R   0.650481 0.687053 0.709815 0.413031
C24   C     C_R   0.761067 0.602275 0.847250 -0.019537
C25   C     C_R   0.771513 0.605195 0.887652 -0.034108
C26   C     C_R   0.617894 0.775645 0.890546 -0.022638
C27   C     C_R   0.608245 0.771483 0.850728 -0.078895
C28   C     C_R   0.680451 0.688205 0.828896 0.020198
C29   C     C_R   0.612664 0.589988 0.554800 0.590826
C30   C     C_R   0.707186 0.697635 0.908705 -0.009760
C31   C     C_R   0.720667 0.085998 0.907360 -0.054641
C32   C     C_R   0.628095 0.124239 0.886186 -0.025583
C33   C     C_R   0.628375 0.145167 0.846829 0.246353
C34   C     C_R   0.719833 0.127635 0.828766 0.015056
C35   C     C_R   0.808518 0.101967 0.850696 0.016551
C36   C     C_R   0.805649 0.088747 0.890524 0.183399
C37   C     C_R   0.719031 0.225958 0.770865 0.308444
C38   C     C_R   0.715625 0.236358 0.730843 0.241918
C39   C     C_R   0.711298 0.161884 0.707092 -0.046961
C40   C     C_R   0.589602 0.301437 0.553865 0.597794
C41   C     C_R   0.713523 0.075850 0.723314 0.250318
C42   C     C_R   0.718635 0.065090 0.762970 -0.004908
C43   C     C_R   0.720015 0.140035 0.786851 0.023441
C44   C     C_R   0.582329 0.244316 0.657823 -0.005540
C45   C     C_R   0.550463 0.276678 0.620875 0.234063
C46   C     C_R   0.729862 0.180318 0.598587 -0.020956
C47   C     C_R   0.761235 0.147801 0.636892 0.015717
C48   C     C_R   0.686063 0.183749 0.666301 0.013155
C49   C     C_R   0.623758 0.248157 0.590881 0.027091
C50   C     C_R   0.097521 0.690479 0.911320 0.001239
C51   C     C_R   0.298465 0.610531 0.446380 0.572952
C52   C     C_R   0.123648 0.751294 0.888279 0.241837
C53   C     C_R   0.135422 0.734210 0.848315 0.298686
C54   C     C_R   0.121557 0.656551 0.831232 0.011128
C55   C     C_R   0.112729 0.586683 0.854565 -0.180765
C56   C     C_R   0.105922 0.599602 0.894507 -0.048822
C57   C     C_R   0.197830 0.555138 0.771342 -0.100673
C58   C     C_R   0.207545 0.547884 0.731579 -0.033517
C59   C     C_R   0.142776 0.631505 0.708766 0.017804
C60   C     C_R   0.060450 0.720736 0.725857 0.075546
C61   C     C_R   0.047267 0.724927 0.766252 0.331693
C62   C     C_R   0.609945 0.592386 0.446281 0.587971
C63   C     C_R   0.120927 0.644939 0.788987 0.049181
C64   C     C_R   0.258549 0.651815 0.663637 0.239547
C65   C     C_R   0.299200 0.645215 0.626731 -0.005092
C66   C     C_R   0.171455 0.606477 0.599996 0.271716
C67   C     C_R   0.133902 0.609006 0.637277 0.236248
C68   C     C_R   0.177508 0.631721 0.669042 -0.057997
C69   C     C_R   0.254363 0.624409 0.594453 -0.046931
C70   C     C_R   0.699861 0.721394 0.093253 0.016230
C71   C     C_R   0.599767 0.785667 0.107919 0.242319
C72   C     C_R   0.579584 0.781642 0.146819 -0.063322
C73   C     C_R   0.591335 0.297015 0.445093 0.551057
C74   C     C_R   0.657852 0.714748 0.171383 -0.003471
C75   C     C_R   0.757040 0.646003 0.156571 0.036507
C76   C     C_R   0.775841 0.649655 0.117650 -0.157857
C77   C     C_R   0.618357 0.642506 0.227996 0.329892
C78   C     C_R   0.618847 0.631113 0.267798 0.299351
C79   C     C_R   0.635181 0.696849 0.292199 -0.091790
C80   C     C_R   0.646773 0.775917 0.276915 -0.145879
C81   C     C_R   0.646306 0.788458 0.237166 -0.012646
C82   C     C_R   0.635533 0.718739 0.212618 -0.008405
C83   C     C_R   0.559049 0.754416 0.357793 0.026743
C84   C     C_R   0.639627 0.628202 0.590457 0.006202
C85   C     C_R   0.555649 0.731297 0.396644 0.219537
C86   C     C_R   0.722423 0.574714 0.389347 0.222399
C87   C     C_R   0.725930 0.596863 0.350337 0.038932
C88   C     C_R   0.640553 0.683044 0.334217 -0.083115
C89   C     C_R   0.631561 0.634935 0.411214 0.001496
C90   C     C_R   0.692516 0.109754 0.087466 -0.025165
C91   C     C_R   0.764236 0.133971 0.104160 -0.007349
C92   C     C_R   0.756754 0.158482 0.143859 -0.025800
C93   C     C_R   0.675274 0.162962 0.165811 -0.016938
C94   C     C_R   0.594713 0.155638 0.147732 0.022936
C95   C     C_R   0.728435 0.561558 0.612022 0.183116
C96   C     C_R   0.600513 0.135151 0.107923 -0.038904
C97   C     C_R   0.598795 0.265340 0.226888 -0.005809
C98   C     C_R   0.591241 0.269696 0.267445 -0.024316
C99   C     C_R   0.663416 0.184286 0.288766 0.014919
C100  C     C_R   0.739954 0.095076 0.270214 0.307374
C101  C     C_R   0.746540 0.089705 0.229969 0.067499
C102  C     C_R   0.674889 0.174171 0.208345 -0.031830
C103  C     C_R   0.729669 0.208707 0.350837 0.263858
C104  C     C_R   0.719902 0.225792 0.390619 0.000942
C105  C     C_R   0.579894 0.186889 0.391995 0.004746
C106  C     C_R   0.736540 0.585013 0.650704 -0.009808
C107  C     C_R   0.587767 0.172457 0.351515 0.012977
C108  C     C_R   0.660443 0.187557 0.331190 0.043623
C109  C     C_R   0.634306 0.230539 0.410030 -0.047731
C110  C     C_R   0.088504 0.709133 0.094399 0.024259
C111  C     C_R   0.106156 0.616956 0.111557 0.175613
C112  C     C_R   0.126515 0.602195 0.151146 0.068433
C113  C     C_R   0.127118 0.681280 0.173478 0.058907
C114  C     C_R   0.126336 0.765480 0.155578 0.001168
C115  C     C_R   0.112824 0.776102 0.115488 -0.027184
C116  C     C_R   0.220740 0.655109 0.234500 0.241783
Cr1   Cr    Cr6+3 0.421670 0.426920 0.499620 1.198247
Cr2   Cr    Cr6+3 0.427030 0.651190 0.500980 1.168060
Cr3   Cr    Cr6+3 0.651280 0.421870 0.499380 1.186837
Cr4   Cr    Cr6+3 0.910810 0.908010 0.001130 1.184012
Cr5   Cr    Cr6+3 0.682800 0.909890 0.998370 1.102717
Cr6   Cr    Cr6+3 0.908370 0.682300 0.002180 1.166513
H1    H     H_    0.718538 0.999507 0.775396 0.210263
H2    H     H_    0.525481 0.269937 0.680732 0.183541
H3    H     H_    0.271472 0.480005 0.718660 0.182548
H4    H     H_    0.253629 0.492428 0.788486 0.169352
H5    H     H_    0.111209 0.521600 0.841456 0.145778
H6    H     H_    0.853142 0.599346 0.106857 0.166351
H7    H     H_    0.503173 0.832567 0.158238 0.194090
H8    H     H_    0.658253 0.826371 0.296268 0.198688
H9    H     H_    0.131133 0.822410 0.345227 0.186343
H10   H     H_    0.173184 0.518275 0.339477 0.170250
H11   H     H_    0.202765 0.791445 0.409660 0.186891
H12   H     H_    0.542430 0.832833 0.836442 0.204811
N1    N     N_R   0.658059 0.613670 0.769172 -0.103942
N2    N     N_R   0.651146 0.611966 0.731160 -0.107257
N3    N     N_R   0.654791 0.765368 0.727856 -0.092152
N4    N     N_R   0.661420 0.767240 0.765980 -0.163162
O1    O     O_R   0.502070 0.323090 0.541280 -0.442253
O2    O     O_R   0.520720 0.641670 0.461580 -0.449086
O3    O     O_R   0.674120 0.502090 0.457500 -0.451640
O4    O     O_R   0.640110 0.338380 0.459630 -0.458796
O5    O     O_3   0.499990 0.499990 0.499990 -0.320759
O6    O     O_R   0.017640 0.822070 0.960410 -0.421667
O7    O     O_R   0.822000 0.989470 0.960340 -0.418266
O8    O     O_R   0.666920 0.007430 0.955290 -0.528987
O9    O     O_R   0.694410 0.812480 0.959650 -0.521922
O10   O     O_R   0.831550 0.656950 0.958960 -0.460791
O11   O     O_R   0.998590 0.685540 0.963930 -0.472960
O12   O     O_R   0.338340 0.520690 0.539540 -0.427579
O13   O     O_R   0.008220 0.831200 0.045060 -0.499760
O14   O     O_R   0.813270 0.997930 0.038810 -0.473636
O15   O     O_R   0.657500 0.016560 0.039940 -0.506419
O16   O     O_R   0.685680 0.820940 0.038120 -0.449101
O17   O     O_R   0.822130 0.666070 0.043610 -0.487115
O18   O     O_R   0.989860 0.694000 0.042400 -0.439188
O19   O     O_3   0.833990 0.833400 0.000560 -0.305595
O20   O     O_R   0.324760 0.674070 0.543580 -0.513198
O21   O     O_R   0.522400 0.640310 0.540110 -0.478110
O22   O     O_R   0.675940 0.500630 0.542210 -0.436746
O23   O     O_R   0.641790 0.337020 0.538150 -0.480309
O24   O     O_R   0.500260 0.324550 0.456580 -0.499192
O25   O     O_R   0.336660 0.522040 0.461020 -0.437480
O26   O     O_R   0.322940 0.675540 0.458880 -0.487956
Cl1   Cl    Cl    0.834042 0.450589 0.590962 -0.460739
Cl2   Cl    Cl    0.908669 0.078405 0.918976 -0.451535
C117  C     C_2   0.870552 0.076650 0.647098 0.294397
H13   H     H_    0.898298 0.081125 0.675432 0.179088
O27   O     O_2   0.929490 0.009494 0.624849 -0.462965
Cl3   Cl    Cl    0.711873 0.345207 0.710452 -0.477616
Cl4   Cl    Cl    0.717107 0.322695 0.800881 -0.470326
Cl5   Cl    Cl    0.513436 0.197646 0.819645 -0.470901
Cl6   Cl    Cl    0.704262 0.983091 0.694794 -0.437353
Cl7   Cl    Cl    0.417345 0.361804 0.615349 -0.509401
C118  C     C_2   0.905597 0.086425 0.832506 0.371048
H14   H     H_    0.959255 0.100291 0.848718 0.196718
O28   O     O_2   0.928618 0.055202 0.799435 -0.398095
Cl8   Cl    Cl    0.479430 0.826017 0.576681 -0.413685
C119  C     C_2   0.807804 0.146577 0.567230 0.338963
H15   H     H_    0.883016 0.137583 0.572741 0.176315
O29   O     O_2   0.789332 0.126674 0.535102 -0.431076
Cl9   Cl    Cl    0.145357 0.847125 0.908724 -0.368351
C120  C     C_2   0.110653 0.514645 0.917152 0.297815
H16   H     H_    0.087378 0.463384 0.904236 0.107719
O30   O     O_2   0.146735 0.496851 0.949424 -0.419627
Cl10  Cl    Cl    0.032940 0.582477 0.644314 -0.413869
Cl11  Cl    Cl    0.168123 0.810052 0.819637 -0.361589
C121  C     C_2   0.994013 0.810063 0.701502 0.360442
H17   H     H_    0.985330 0.798861 0.671208 0.152819
O31   O     O_2   0.951602 0.897551 0.714476 -0.401801
Cl12  Cl    Cl    0.937736 0.827228 0.788948 -0.498510
Cl13  Cl    Cl    0.307786 0.688140 0.703561 -0.407047
C122  C     C_2   0.849296 0.511192 0.907384 0.271449
H18   H     H_    0.923827 0.461440 0.894251 0.085669
O32   O     O_2   0.828921 0.486505 0.937959 -0.408648
C123  C     C_2   0.392763 0.653752 0.622536 0.313290
H19   H     H_    0.395332 0.704549 0.601583 0.166408
O33   O     O_2   0.468197 0.602819 0.642338 -0.444667
Cl14  Cl    Cl    0.114735 0.579914 0.560224 -0.369316
Cl15  Cl    Cl    0.497473 0.871722 0.078935 -0.428097
C124  C     C_2   0.816991 0.530324 0.325531 0.359236
H20   H     H_    0.833762 0.562249 0.300687 0.116247
O34   O     O_2   0.871497 0.438781 0.331375 -0.348237
Cl16  Cl    Cl    0.603460 0.531583 0.286952 -0.394505
Cl17  Cl    Cl    0.603267 0.556703 0.197161 -0.382129
C125  C     C_2   0.828562 0.513040 0.673306 0.392778
H21   H     H_    0.869306 0.431491 0.666631 0.192599
O35   O     O_2   0.861359 0.544380 0.699125 -0.394054
C126  C     C_2   0.660393 0.872253 0.221769 0.275458
H22   H     H_    0.666210 0.880170 0.191126 0.130614
O36   O     O_2   0.665123 0.934399 0.243339 -0.482133
C127  C     C_2   0.474457 0.849537 0.340671 0.325694
H23   H     H_    0.448064 0.847277 0.311848 0.135031
O37   O     O_2   0.436421 0.931977 0.357739 -0.346633
Cl18  Cl    Cl    0.454427 0.823522 0.426342 -0.399975
C128  C     C_2   0.845071 0.571185 0.180133 0.290905
H24   H     H_    0.917466 0.518256 0.166125 0.125068
O38   O     O_2   0.839599 0.567527 0.214957 -0.517962
Cl19  Cl    Cl    0.834949 0.477402 0.411466 -0.417625
C129  C     C_2   0.840996 0.141718 0.079490 0.301056
H25   H     H_    0.917661 0.118350 0.089572 0.165311
O39   O     O_2   0.817823 0.176948 0.047294 -0.432658
C130  C     C_2   0.510539 0.141135 0.087363 0.284896
H26   H     H_    0.490307 0.175993 0.059293 0.151296
O40   O     O_2   0.461361 0.103929 0.100587 -0.428309
C131  C     C_2   0.517413 0.148295 0.329425 0.321794
H27   H     H_    0.545727 0.097823 0.304372 0.152623
O41   O     O_2   0.426105 0.189293 0.337624 -0.369736
C132  C     C_2   0.507359 0.362786 0.287327 0.329010
H28   H     H_    0.433385 0.408439 0.273875 0.140409
O42   O     O_2   0.519544 0.390175 0.319107 -0.411234
C133  C     C_2   0.527449 0.355729 0.203676 0.309800
H29   H     H_    0.447861 0.403774 0.212122 0.155950
O43   O     O_2   0.557040 0.377185 0.174468 -0.406445
Cl20  Cl    Cl    0.484356 0.868237 0.664999 -0.344425
C134  C     C_2   0.831406 0.181671 0.163344 0.260350
H30   H     H_    0.804112 0.242612 0.184912 0.188202
O44   O     O_2   0.923777 0.129478 0.157452 -0.491083
Cl21  Cl    Cl    0.822224 0.986988 0.298131 -0.453271
C135  C     C_2   0.826129 0.994900 0.210053 0.327835
H31   H     H_    0.809150 0.970426 0.182913 0.117202
O45   O     O_2   0.912746 0.945434 0.222943 -0.457836
Cl22  Cl    Cl    0.826018 0.218612 0.324869 -0.437855
C136  C     C_2   0.801568 0.235197 0.411311 0.345423
H32   H     H_    0.838449 0.273692 0.398296 0.208546
O46   O     O_2   0.831666 0.195677 0.442558 -0.416464
C137  C     C_2   0.503816 0.170091 0.170230 0.287882
H33   H     H_    0.426792 0.217532 0.159160 0.172932
O47   O     O_2   0.514219 0.127597 0.200846 -0.474404
C138  C     C_2   0.526882 0.146056 0.416481 0.360024
H34   H     H_    0.522183 0.157688 0.447324 0.147740
O48   O     O_2   0.494760 0.091868 0.403284 -0.360390
Cl23  Cl    Cl    0.108810 0.516517 0.083292 -0.541282
C139  C     C_2   0.121836 0.858811 0.096232 0.349005
H35   H     H_    0.082221 0.936564 0.107840 0.150713
O49   O     O_2   0.175799 0.839651 0.067637 -0.392338
C140  C     C_2   0.835655 0.510051 0.824581 0.273113
H36   H     H_    0.863869 0.433787 0.835836 0.145209
O50   O     O_2   0.868675 0.518488 0.793646 -0.411581
Cl24  Cl    Cl    0.338431 0.638132 0.296966 -0.479865
Cl25  Cl    Cl    0.333099 0.623854 0.207593 -0.433304
C141  C     C_2   0.142876 0.505657 0.169029 0.287593
H37   H     H_    0.110707 0.461991 0.156101 0.163725
O51   O     O_2   0.194545 0.472172 0.197925 -0.493155
C142  C     C_2   0.958083 0.705414 0.302129 0.280201
H38   H     H_    0.912075 0.672350 0.292549 0.083850
O52   O     O_2   0.936120 0.752009 0.332809 -0.419612
C143  C     C_2   0.939481 0.725601 0.218514 0.274472
H39   H     H_    0.875410 0.731395 0.234696 0.137581
O53   O     O_2   0.924633 0.746938 0.184586 -0.556464
Cl26  Cl    Cl    0.256462 0.436338 0.410547 -0.428364
C144  C     C_2   0.138913 0.841938 0.179484 0.309367
H40   H     H_    0.108389 0.860313 0.208497 0.174485
O54   O     O_2   0.188175 0.880896 0.167980 -0.417756
C145  C     C_2   0.531184 0.859462 0.912647 0.313672
H41   H     H_    0.522754 0.851994 0.943153 0.149191
O55   O     O_2   0.466115 0.936710 0.896832 -0.401037
C146  C     C_2   0.530594 0.147820 0.905886 0.346969
H42   H     H_    0.517437 0.175132 0.935481 0.123040
O56   O     O_2   0.465301 0.135134 0.889879 -0.355621

loop_
_geom_bond_atom_site_label_1
_geom_bond_atom_site_label_2
_ccdc_geom_bond_type
C8    C9    A    
C81   C126  S    
C55   C56   A    
C40   O1    A    
C5    C142  S    
C101  C102  A    
Cr3   O5    S    
C41   C42   A    
C6    C7    A    
C35   C36   A    
Cr4   O6    S    
C10   H11   S    
C9    C14   A    
Cr3   O23   S    
C15   C31   S    
C129  O39   D    
C97   C98   A    
C57   C58   A    
C25   C122  S    
N1    N2    A    
C29   O21   A    
C31   C32   A    
C77   C78   A    
Cr1   O25   S    
C99   C108  S    
C105  C107  A    
C46   C49   A    
Cr2   O26   S    
C26   C27   A    
C37   C38   A    
Cr5   O15   S    
C23   N2    A    
C39   C48   S    
C16   O9    A    
C5    C6    A    
C64   C68   A    
C1    O20   A    
C145  O55   D    
C52   Cl9   S    
C105  C138  S    
C34   C35   A    
C3    C116  A    
C120  O30   D    
C26   C145  S    
C125  O35   D    
C66   C69   A    
C54   C63   S    
C138  O48   D    
C40   C49   S    
C62   C89   S    
C75   C128  S    
C19   O17   A    
C134  H30   S    
C118  O28   D    
C100  Cl21  S    
C121  O31   D    
C140  H36   S    
C124  H20   S    
C91   C129  S    
C61   C63   A    
C2    C13   A    
C110  C111  A    
C133  H29   S    
C139  O49   D    
C116  Cl25  S    
C103  C104  A    
C46   C47   A    
C10   C14   A    
C111  C112  A    
C134  O44   D    
Cr3   O22   S    
C122  O32   D    
C22   C28   S    
C8    H10   S    
C47   C48   A    
C103  Cl22  S    
C107  C108  A    
Cr5   O9    S    
C51   O25   A    
C103  C108  A    
Cr6   O10   S    
C4    C12   S    
C50   C56   A    
C142  H38   S    
C31   C36   A    
C97   C102  A    
C122  H18   S    
C67   Cl10  S    
C13   Cl20  S    
C65   C123  S    
C107  C131  S    
C66   C67   A    
C9    Cl26  S    
C59   C60   A    
C60   C121  S    
Cr5   O19   S    
C101  C135  S    
C124  O34   D    
Cr2   O21   S    
Cr1   O1    S    
C74   C82   S    
Cr6   O17   S    
C18   O14   A    
C95   Cl1   S    
C135  O45   D    
C129  H25   S    
C64   Cl13  S    
C117  H13   S    
C42   H1    S    
C38   Cl3   S    
C29   O22   A    
C73   O4    A    
C137  O47   D    
C136  H32   S    
C38   C39   A    
C93   C102  S    
Cr4   O14   S    
C80   H8    S    
C74   C75   A    
C67   C68   A    
C18   C90   S    
Cr6   O11   S    
C51   O26   A    
C33   C34   A    
C24   C25   A    
C130  H26   S    
C39   C41   A    
Cr2   O5    S    
Cr5   O16   S    
C114  C115  A    
Cr4   O7    S    
C57   H4    S    
C15   O7    A    
C85   C89   A    
C125  H21   S    
C123  H19   S    
C141  O51   D    
C58   C59   A    
C53   C54   A    
C24   C140  S    
C44   H2    S    
C81   C82   A    
C119  H15   S    
C117  O27   D    
C114  C144  S    
C121  H17   S    
C140  O50   D    
C84   C95   A    
C7    C116  A    
C37   C43   A    
C94   C96   A    
C75   C76   A    
C120  H16   S    
C37   Cl4   S    
C132  H28   S    
C95   C106  A    
C77   Cl17  S    
C59   C68   S    
C98   C132  S    
C47   C117  S    
C106  C125  S    
C50   C52   A    
C14   C51   S    
C21   C84   A    
C45   C49   A    
C8    C12   A    
C96   C130  S    
C133  O43   D    
C126  H22   S    
C13   C21   A    
C1    O12   A    
C93   C94   A    
C52   C53   A    
C128  H24   S    
C73   C109  S    
C142  O52   D    
Cr1   O12   S    
C18   O15   A    
C79   C88   S    
C111  Cl23  S    
C29   C84   S    
C20   C110  S    
C72   C74   A    
C21   Cl8   S    
C83   C85   A    
C145  H41   S    
C143  O53   D    
C98   C99   A    
C131  O41   D    
C17   O6    A    
C70   C76   A    
Cr4   O19   S    
C76   H6    S    
C146  O56   D    
C58   H3    S    
Cr3   O3    S    
C71   Cl15  S    
C42   C43   A    
C144  H40   S    
C62   O3    A    
C3    C4    A    
C2    C23   S    
C70   C71   A    
C32   C146  S    
C44   C45   A    
C86   C87   A    
C113  C114  A    
C94   C137  S    
C72   H7    S    
C25   C30   A    
C19   O16   A    
C41   Cl6   S    
C54   C55   A    
Cr4   O13   S    
C20   O18   A    
C135  H31   S    
Cr1   O5    S    
C78   C79   A    
C27   H12   S    
Cr6   O18   S    
C46   C119  S    
C23   N3    A    
C83   C127  S    
C17   O11   A    
C34   C43   S    
C24   C28   A    
C57   C63   A    
C128  O38   D    
C80   C81   A    
Cr2   O2    S    
C86   C89   A    
C11   H9    S    
C17   C50   S    
C55   H5    S    
C15   O8    A    
C11   C12   A    
C130  O40   D    
C90   C96   A    
C141  H37   S    
C56   C120  S    
Cr1   O24   S    
N3    N4    A    
C22   N4    A    
C66   Cl14  S    
C20   O13   A    
C22   N1    A    
C16   O10   A    
C97   C133  S    
C35   C118  S    
C32   C33   A    
C7    C113  S    
C139  H35   S    
C85   Cl18  S    
C53   Cl11  S    
C40   O23   A    
C132  O42   D    
C118  H14   S    
C104  C136  S    
C99   C100  A    
C64   C65   A    
C6    C143  S    
C90   C91   A    
C104  C109  A    
C115  C139  S    
C105  C109  A    
C77   C82   A    
C65   C69   A    
C4    C5    A    
C92   C93   A    
C126  O36   D    
Cr6   O19   S    
C136  O46   D    
C83   C88   A    
C112  C113  A    
C86   Cl19  S    
C92   C134  S    
C1    C69   S    
C73   O24   A    
C138  H34   S    
C123  O33   D    
Cr2   O20   S    
C10   C11   A    
C127  O37   D    
C36   Cl2   S    
C2    C106  A    
C79   C80   A    
Cr5   O8    S    
C44   C48   A    
C78   Cl16  S    
C71   C72   A    
C127  H23   S    
C87   C88   A    
C144  O54   D    
C131  H27   S    
C27   C28   A    
C61   Cl12  S    
Cr3   O4    S    
C146  H42   S    
C60   C61   A    
C19   C70   S    
C100  C101  A    
C62   O2    A    
C45   Cl7   S    
C33   Cl5   S    
C16   C30   S    
C110  C115  A    
C87   C124  S    
C91   C92   A    
C3    Cl24  S    
C137  H33   S    
C112  C141  S    
C143  H39   S    
C119  O29   D    
C26   C30   A    
