data_mof_unit_45604.cif
_audit_creation_date              2012-12-10T18:38:30-0500
_audit_creation_method            fapswitch 2.2
_symmetry_space_group_name_H-M    P1
_symmetry_Int_Tables_number       1
_space_group_crystal_system       triclinic
_cell_length_a                    15.867821
_cell_length_b                    15.152827
_cell_length_c                    13.813209
_cell_angle_alpha                 90.698297
_cell_angle_beta                  90.194275
_cell_angle_gamma                 89.91908
_cell_volume                      3321.01150791

loop_
_atom_site_label
_atom_site_type_symbol
_atom_type_description
_atom_site_fract_x
_atom_site_fract_y
_atom_site_fract_z
_atom_type_partial_charge
C1    C     C_R   0.501776 0.329849 0.499251 0.893808
C2    C     C_R   0.501735 0.670280 0.500806 0.891941
C3    C     C_R   0.463325 0.189440 0.573839 -0.356287
C4    C     C_R   0.469118 0.811092 0.422453 -0.351411
C5    C     C_R   0.502100 0.233388 0.497565 -0.257646
C6    C     C_R   0.502124 0.766992 0.502536 -0.256524
C7    C     C_R   0.539926 0.184652 0.421610 0.280246
C8    C     C_R   0.534310 0.815947 0.582085 0.283024
C9    C     C_R   0.538888 0.092440 0.423442 0.377523
C10   C     C_R   0.532955 0.908180 0.580233 0.377109
C11   C     C_R   0.496223 0.048739 0.498613 -0.143366
C12   C     C_R   0.496179 0.951846 0.500715 -0.140938
C13   C     C_R   0.548270 0.562821 0.108577 0.363323
C14   C     C_R   0.539131 0.429900 0.892309 0.344885
C15   C     C_R   0.544909 0.562430 0.210675 -0.009986
C16   C     C_R   0.536852 0.431746 0.789469 -0.041504
C17   C     C_R   0.456159 0.437364 0.207779 0.096177
C18   C     C_R   0.464203 0.567927 0.792306 0.114066
C19   C     C_R   0.456172 0.436121 0.105861 -0.272735
C20   C     C_R   0.464609 0.568987 0.894185 -0.289097
C21   C     C_R   0.501581 0.499801 0.054514 0.047340
C22   C     C_R   0.501130 0.499131 0.945536 0.051768
C23   C     C_R   0.339658 0.499986 0.499818 0.811204
C24   C     C_R   0.660327 0.499870 0.500135 0.838743
C25   C     C_3   0.972312 0.510088 0.590783 -0.241444
C26   C     C_3   0.027595 0.488396 0.407490 -0.247885
C27   C     C_3   0.028251 0.433724 0.553207 0.457235
C28   C     C_3   0.971619 0.564752 0.445044 0.458101
C29   C     C_1   0.249992 0.499924 0.499344 -0.152468
C30   C     C_1   0.749957 0.499408 0.500288 -0.139858
C31   C     C_3   0.027999 0.576894 0.535482 -0.242799
C32   C     C_3   0.971854 0.421609 0.462777 -0.246116
C33   C     C_3   0.082837 0.499682 0.498645 0.049307
C34   C     C_3   0.917059 0.498820 0.499662 0.048556
C35   C     C_1   0.174469 0.499843 0.498888 0.030803
C36   C     C_1   0.825459 0.499023 0.500086 0.035669
C37   C     C_R   0.457604 0.097978 0.573890 0.474206
C38   C     C_R   0.463669 0.902586 0.421522 0.473795
Cu1   Cu    Cu3+1 0.500000 0.499990 0.596430 0.978861
Cu2   Cu    Cu3+1 0.500000 0.500010 0.403570 0.977991
H1    H     H_    0.420651 0.388058 0.246170 0.148906
H2    H     H_    0.434826 0.621778 0.754134 0.158228
H3    H     H_    0.420373 0.386025 0.067245 0.177620
H4    H     H_    0.435709 0.623722 0.932815 0.178343
H5    H     H_    0.948756 0.518141 0.665962 0.173693
H6    H     H_    0.051126 0.480338 0.332304 0.173377
H7    H     H_    0.947924 0.357700 0.433836 0.175937
H8    H     H_    0.051886 0.640827 0.564405 0.172161
H9    H     H_    0.435524 0.226366 0.633395 0.201090
H10   H     H_    0.445807 0.774320 0.360146 0.200599
H11   H     H_    0.579690 0.611650 0.251648 0.148869
H12   H     H_    0.564477 0.378255 0.748053 0.133612
N1    N     N_R   0.500000 0.500020 0.258690 -0.198397
N2    N     N_R   0.500000 0.499980 0.741310 -0.190447
O1    O     O_R   0.500010 0.371450 0.581430 -0.605473
O2    O     O_R   0.499990 0.628550 0.418570 -0.603348
O3    O     O_R   0.500010 0.371460 0.418560 -0.536883
O4    O     O_R   0.499990 0.628540 0.581440 -0.541957
O5    O     O_R   0.379080 0.499990 0.581420 -0.575046
O6    O     O_R   0.620920 0.500010 0.418580 -0.566361
O7    O     O_R   0.379080 0.500000 0.418550 -0.587786
O8    O     O_R   0.620920 0.500000 0.581450 -0.571551
Cl1   Cl    Cl    0.067162 0.345884 0.625344 -0.638215
Cl2   Cl    Cl    0.932532 0.652222 0.372477 -0.644792
O9    O     O_3   0.423378 0.058287 0.654638 -0.551588
C39   C     C_3   0.340555 0.028365 0.635376 0.071171
H13   H     H_    0.322640 0.984700 0.695936 0.187386
H14   H     H_    0.336866 0.986642 0.568958 0.108976
C40   C     C_3   0.277259 0.105084 0.631440 -0.388884
H15   H     H_    0.286636 0.149273 0.695379 0.248400
H16   H     H_    0.287731 0.143872 0.564807 0.212494
C41   C     C_3   0.186609 0.071662 0.630911 -0.838768
H17   H     H_    0.175956 0.026321 0.568385 0.242748
H18   H     H_    0.142602 0.128409 0.625040 0.293322
H19   H     H_    0.172947 0.036274 0.699026 0.254686
O10   O     O_3   0.436246 0.942100 0.337024 -0.552012
C42   C     C_3   0.353009 0.974322 0.347111 0.088858
H20   H     H_    0.340249 0.016751 0.283687 0.187818
H21   H     H_    0.345613 0.017856 0.411642 0.108447
C43   C     C_3   0.288017 0.899268 0.347036 -0.409393
H22   H     H_    0.300475 0.853531 0.285192 0.241661
H23   H     H_    0.293359 0.861681 0.415363 0.206859
C44   C     C_3   0.198385 0.934952 0.338441 -0.862685
H24   H     H_    0.184879 0.981946 0.398673 0.249873
H25   H     H_    0.152839 0.879510 0.341713 0.272098
H26   H     H_    0.189881 0.969126 0.268389 0.259440
Cl3   Cl    Cl    0.594057 0.236083 0.325800 -0.594800
Cl4   Cl    Cl    0.581676 0.765159 0.683360 -0.590466
O11   O     O_3   0.576134 0.045534 0.348203 -0.522768
C45   C     C_3   0.658608 0.020742 0.375428 0.090797
H27   H     H_    0.656233 0.967585 0.430039 0.108550
H28   H     H_    0.694857 0.078007 0.405344 0.144490
C46   C     C_3   0.704615 0.984835 0.286342 -0.287747
H29   H     H_    0.668623 0.928363 0.255012 0.237765
H30   H     H_    0.708543 0.037305 0.230987 0.242056
C47   C     C_3   0.793422 0.953875 0.311900 -0.889901
H31   H     H_    0.831038 0.009617 0.342031 0.257555
H32   H     H_    0.825117 0.928289 0.245718 0.269352
H33   H     H_    0.790813 0.900160 0.365842 0.270910
O12   O     O_3   0.563263 0.955112 0.659704 -0.523566
C48   C     C_3   0.647266 0.981074 0.642557 0.095919
H34   H     H_    0.648977 0.033752 0.587373 0.103793
H35   H     H_    0.686757 0.924144 0.617952 0.150629
C49   C     C_3   0.684532 0.018465 0.736516 -0.278668
H36   H     H_    0.645023 0.074505 0.762618 0.229653
H37   H     H_    0.684430 0.966483 0.792616 0.247248
C50   C     C_3   0.774558 0.050853 0.721885 -0.927626
H38   H     H_    0.815498 0.995721 0.696685 0.267788
H39   H     H_    0.799913 0.076984 0.791531 0.262049
H40   H     H_    0.775749 0.104476 0.667767 0.258363
O13   O     O_3   0.595345 0.626745 0.062970 -0.603909
C51   C     C_3   0.674456 0.591116 0.035508 0.055240
H41   H     H_    0.695862 0.627148 0.970507 0.190225
H42   H     H_    0.671504 0.520016 0.013918 0.133708
C52   C     C_3   0.739748 0.604456 0.116433 -0.355756
H43   H     H_    0.743299 0.675643 0.136388 0.245737
H44   H     H_    0.720680 0.567035 0.181402 0.221782
C53   C     C_3   0.826721 0.572361 0.084847 -0.849116
H45   H     H_    0.824676 0.500919 0.065854 0.248155
H46   H     H_    0.872419 0.582361 0.145042 0.291063
H47   H     H_    0.848625 0.609986 0.021191 0.253334
O14   O     O_3   0.574375 0.359981 0.942476 -0.601773
C54   C     C_3   0.656347 0.340232 0.908615 0.021636
H48   H     H_    0.691349 0.400647 0.886658 0.125270
H49   H     H_    0.652164 0.293593 0.845978 0.154146
C55   C     C_3   0.705931 0.296123 0.989786 -0.285084
H50   H     H_    0.709212 0.341610 0.053476 0.230158
H51   H     H_    0.672968 0.234912 0.011845 0.246421
C56   C     C_3   0.795238 0.272804 0.957707 -0.905602
H52   H     H_    0.793479 0.226686 0.894605 0.259482
H53   H     H_    0.829287 0.240406 0.018005 0.265195
H54   H     H_    0.830064 0.333432 0.937713 0.259608

loop_
_geom_bond_atom_site_label_1
_geom_bond_atom_site_label_2
_ccdc_geom_bond_type
C25   C31   S    
C39   H14   S    
C26   C32   S    
C55   H50   S    
C14   O14   S    
C25   H5    S    
O13   C51   S    
C49   H37   S    
C3    H9    S    
C54   H48   S    
C38   O10   S    
C42   H20   S    
C27   C33   S    
C23   O5    A    
C46   H29   S    
Cu2   O6    S    
C23   C29   S    
C32   H7    S    
C19   C21   A    
C18   H2    S    
C8    C10   A    
C54   H49   S    
C39   C40   S    
C24   C30   S    
C52   H43   S    
C15   N1    A    
C47   H33   S    
C11   C37   A    
C40   H16   S    
C53   H45   S    
C49   H36   S    
C17   C19   A    
C7    Cl3   S    
C37   O9    S    
C52   H44   S    
C47   H32   S    
C24   O8    A    
C50   H38   S    
C31   C33   S    
C15   H11   S    
C34   C36   S    
C25   C34   S    
C56   H54   S    
C39   H13   S    
C28   C34   S    
C46   H30   S    
C21   C22   S    
C50   H39   S    
C2    C6    S    
C43   C44   S    
C51   H42   S    
C51   H41   S    
C20   H4    S    
C19   H3    S    
C17   H1    S    
C42   H21   S    
Cu1   O1    S    
C48   H34   S    
O10   C42   S    
C43   H23   S    
C9    O11   S    
Cu1   Cu2   S    
C5    C7    A    
C18   N2    A    
C41   H17   S    
C54   C55   S    
C6    C8    A    
C55   C56   S    
Cu2   O2    S    
Cu1   O4    S    
Cu2   O7    S    
C4    H10   S    
C8    Cl4   S    
C53   H47   S    
C32   C34   S    
C40   C41   S    
C1    O3    A    
C26   C33   S    
C45   H28   S    
C44   H24   S    
C24   O6    A    
C52   C53   S    
Cu1   O5    S    
C47   H31   S    
C13   C21   A    
C10   O12   S    
C9    C11   A    
C10   C12   A    
C28   Cl2   S    
C41   H18   S    
C44   H25   S    
C20   C22   A    
Cu2   N1    S    
C46   C47   S    
C31   H8    S    
C13   C15   A    
C50   H40   S    
C14   C16   A    
C4    C6    A    
C25   C27   S    
C17   N1    A    
C1    C5    S    
C45   C46   S    
C56   H52   S    
C42   C43   S    
C7    C9    A    
Cu1   O8    S    
C55   H51   S    
Cu2   O3    S    
C27   C32   S    
C28   C31   S    
C16   H12   S    
C4    C38   A    
C43   H22   S    
C3    C5    A    
C11   C12   S    
C2    O4    A    
C48   C49   S    
C29   C35   T    
C26   C28   S    
C30   C36   T    
C14   C22   A    
C16   N2    A    
C1    O1    A    
C13   O13   S    
C2    O2    A    
C41   H19   S    
C45   H27   S    
O12   C48   S    
C33   C35   S    
C18   C20   A    
C49   C50   S    
C12   C38   A    
C40   H15   S    
C53   H46   S    
C26   H6    S    
Cu1   N2    S    
C23   O7    A    
C44   H26   S    
C3    C37   A    
C48   H35   S    
O9    C39   S    
O14   C54   S    
C27   Cl1   S    
O11   C45   S    
C51   C52   S    
C56   H53   S    
