data_mof_unit_37250.cif
_audit_creation_date              2012-12-11T15:48:06-0500
_audit_creation_method            fapswitch 2.2
_symmetry_space_group_name_H-M    P1
_symmetry_Int_Tables_number       1
_space_group_crystal_system       triclinic
_cell_length_a                    6.931976
_cell_length_b                    17.584818
_cell_length_c                    19.444976
_cell_angle_alpha                 108.438074
_cell_angle_beta                  89.589186
_cell_angle_gamma                 90.537018
_cell_volume                      2248.4972109

loop_
_atom_site_label
_atom_site_type_symbol
_atom_type_description
_atom_site_fract_x
_atom_site_fract_y
_atom_site_fract_z
_atom_type_partial_charge
O1    O     O_R   0.494330 0.415710 0.413720 -0.545017
O2    O     O_R   0.819360 0.430070 0.560210 -0.546227
O3    O     O_R   0.994320 0.584290 0.586280 -0.544667
C1    C     C_R   0.650270 0.415399 0.582132 0.699399
O4    O     O_R   0.823740 0.406290 0.412670 -0.506872
O5    O     O_R   0.998730 0.560340 0.437690 -0.535424
C2    C     C_R   0.655165 0.382724 0.384851 0.723097
O6    O     O_R   0.489920 0.439660 0.562310 -0.541830
O7    O     O_3   0.662330 0.550570 0.508380 -0.374133
V1    V     V_3+5 0.935370 0.490620 0.498440 1.441360
O8    O     O_R   0.328720 0.569930 0.439790 -0.542271
C3    C     C_R   0.160670 0.585074 0.418206 0.706647
O9    O     O_R   0.324340 0.593710 0.587330 -0.545729
C4    C     C_R   0.155309 0.616614 0.615391 0.702375
V2    V     V_3+5 0.435940 0.509380 0.501560 1.408859
O10   O     O_3   0.159110 0.449430 0.491620 -0.362608
C5    C     C_R   0.308342 0.729811 0.714249 -0.147980
H1    H     H_    0.446834 0.716839 0.687103 0.144182
C6    C     C_R   0.295501 0.793756 0.778926 -0.214377
H2    H     H_    0.424247 0.828695 0.799133 0.190760
C7    C     C_R   0.119088 0.813249 0.816512 -0.157289
C8    C     C_R   0.954321 0.765850 0.787765 0.467772
C9    C     C_R   0.967520 0.703371 0.721670 -0.233865
C10   C     C_R   0.144110 0.684221 0.684484 -0.114377
C11   C     C_R   0.289823 0.622678 0.312586 -0.161398
C12   C     C_R   0.153278 0.634109 0.368652 -0.100870
C13   C     C_R   0.007321 0.691054 0.376041 -0.166435
C14   C     C_R   0.000645 0.738001 0.329491 0.086816
C15   C     C_R   0.137392 0.725926 0.272879 -0.011883
C16   C     C_R   0.279942 0.666445 0.263139 -0.036507
C17   C     C_R   0.858073 0.796381 0.338406 -0.263360
C18   C     C_R   0.852607 0.844686 0.293146 0.439939
C19   C     C_R   0.987218 0.832551 0.235922 0.029299
C20   C     C_R   0.129348 0.772520 0.225465 -0.073151
C21   C     C_R   0.260767 0.758128 0.166831 -0.017147
C22   C     C_R   0.397993 0.696416 0.155428 0.350880
C23   C     C_R   0.406122 0.650196 0.202968 0.364006
C24   C     C_R   0.980301 0.878390 0.188250 -0.210059
C25   C     C_R   0.111880 0.865266 0.130614 -0.107941
C26   C     C_R   0.251209 0.805215 0.120188 -0.147535
H3    H     H_    0.400181 0.577733 0.306426 0.156196
H4    H     H_    0.901165 0.699901 0.419045 0.115241
H5    H     H_    0.872757 0.924701 0.195811 0.156322
C27   C     C_R   0.783669 0.187805 0.871450 0.402362
C28   C     C_R   0.623779 0.136741 0.870801 -0.182448
C29   C     C_R   0.468039 0.134712 0.824216 -0.264833
C30   C     C_R   0.471014 0.180562 0.777025 0.086955
C31   C     C_R   0.631365 0.230254 0.776487 -0.011668
C32   C     C_R   0.788484 0.233864 0.823500 -0.003700
C33   C     C_R   0.316468 0.176940 0.729786 -0.157251
C34   C     C_R   0.319370 0.222863 0.682749 -0.197796
C35   C     C_R   0.477203 0.273024 0.681903 0.091447
C36   C     C_R   0.634640 0.276304 0.728573 0.080775
C37   C     C_R   0.795487 0.325465 0.727257 0.095429
C38   C     C_R   0.950113 0.329180 0.774275 -0.205361
C39   C     C_R   0.946903 0.283888 0.821785 -0.160771
C40   C     C_R   0.480913 0.319562 0.634954 -0.232376
C41   C     C_R   0.642475 0.367650 0.632636 -0.082049
C42   C     C_R   0.799310 0.370007 0.678867 -0.225674
H6    H     H_    0.344841 0.096088 0.823794 0.160567
H7    H     H_    0.359942 0.317169 0.599264 0.125269
H8    H     H_    0.923802 0.407464 0.677858 0.124157
H9    H     H_    0.074648 0.366807 0.773991 0.134989
H10   H     H_    0.069878 0.287880 0.856822 0.169459
C43   C     C_R   0.809623 0.266257 0.287737 0.471129
C44   C     C_R   0.796668 0.203896 0.221538 -0.239345
H11   H     H_    0.925445 0.170133 0.199826 0.133455
C45   C     C_R   0.620939 0.184650 0.184243 -0.112890
C46   C     C_R   0.457497 0.230253 0.213775 -0.154151
H12   H     H_    0.319722 0.217270 0.186447 0.142104
C47   C     C_R   0.470249 0.294164 0.278492 -0.218122
H13   H     H_    0.342240 0.329093 0.298556 0.191259
C48   C     C_R   0.645677 0.313561 0.316355 -0.157407
O11   O     O_R   0.774940 0.060470 0.937800 -0.510979
O12   O     O_R   0.440880 0.093730 0.087350 -0.547192
O13   O     O_R   0.266130 0.939630 0.062280 -0.540227
C49   C     C_R   0.609697 0.116859 0.115324 0.695430
O14   O     O_R   0.445480 0.069960 0.939820 -0.543112
O15   O     O_R   0.270770 0.915690 0.913690 -0.546698
C50   C     C_R   0.614890 0.085782 0.918805 0.748377
O16   O     O_R   0.770300 0.084410 0.086380 -0.545593
O17   O     O_3   0.602600 0.949510 0.991670 -0.367914
V3    V     V_3+5 0.329470 0.009370 0.001550 1.433835
O18   O     O_R   0.940760 0.906160 0.912560 -0.510248
C51   C     C_R   0.109575 0.882588 0.884857 0.716784
O19   O     O_R   0.936150 0.929930 0.060100 -0.546373
C52   C     C_R   0.104241 0.914726 0.081556 0.685507
V4    V     V_3+5 0.828930 0.990450 0.998310 1.469416
O20   O     O_3   0.105670 0.050490 0.008320 -0.361472
H14   H     H_    0.350641 0.794921 0.074969 0.146925
O21   O     O_3   0.511576 0.675389 0.093553 -0.557330
C53   C     C_3   0.691504 0.714239 0.110554 -0.199056
H15   H     H_    0.674243 0.780432 0.129831 0.140062
H16   H     H_    0.781333 0.698755 0.060665 0.149497
H17   H     H_    0.769598 0.693904 0.151282 0.174387
O22   O     O_3   0.542762 0.590535 0.191369 -0.547015
C54   C     C_3   0.463687 0.518717 0.144648 -0.226219
H18   H     H_    0.332059 0.500060 0.168492 0.119442
H19   H     H_    0.571709 0.470486 0.136558 0.154556
H20   H     H_    0.430625 0.524121 0.090484 0.167789
O23   O     O_3   0.938224 0.190634 0.916929 -0.549530
C55   C     C_3   0.900308 0.248856 0.984445 -0.228340
H21   H     H_    0.024932 0.251576 0.020643 0.157943
H22   H     H_    0.770449 0.232883 0.011096 0.112272
H23   H     H_    0.883346 0.309481 0.978791 0.120861
H24   H     H_    0.192475 0.138841 0.729494 0.133600
H25   H     H_    0.197666 0.219317 0.647168 0.131216
O24   O     O_3   0.986308 0.283610 0.321869 -0.555825
C56   C     C_3   0.021779 0.227404 0.358281 -0.252190
H26   H     H_    0.040709 0.166063 0.319397 0.123788
H27   H     H_    0.904920 0.227622 0.397970 0.118085
H28   H     H_    0.158112 0.244399 0.389095 0.162499
O25   O     O_3   0.776719 0.783177 0.821582 -0.559466
C57   C     C_3   0.739732 0.728702 0.860025 -0.236745
H29   H     H_    0.601761 0.745331 0.890092 0.165647
H30   H     H_    0.854540 0.731628 0.900602 0.120425
H31   H     H_    0.723216 0.666396 0.822581 0.126094
H32   H     H_    0.838169 0.669496 0.699935 0.133669
H33   H     H_    0.750331 0.804929 0.380803 0.139889
O26   O     O_3   0.705809 0.899630 0.301623 -0.553603
C58   C     C_3   0.757136 0.969971 0.357600 -0.273994
H34   H     H_    0.642841 0.015181 0.362668 0.163866
H35   H     H_    0.894913 0.996021 0.345036 0.129345
H36   H     H_    0.767308 0.958705 0.410643 0.140199

loop_
_geom_bond_atom_site_label_1
_geom_bond_atom_site_label_2
_ccdc_geom_bond_type
C27   C32   A    
C44   C45   A    
C38   C39   A    
O23   C55   S    
C21   C22   A    
C25   C52   S    
C1    O6    A    
C9    H32   S    
C57   H29   S    
C2    C48   S    
C36   C37   A    
C35   C36   A    
C12   C13   A    
C14   C15   A    
C6    C7    A    
C56   H27   S    
O5    C3    A    
C24   C25   A    
O14   C50   A    
V2    O10   S    
C54   H18   S    
C45   C49   S    
C43   C48   A    
O24   C56   S    
C55   H23   S    
C20   C21   A    
C4    C10   S    
C46   C47   A    
C58   H36   S    
C29   C30   A    
O8    V2    S    
O14   V3    S    
C8    O25   S    
C30   C31   A    
C45   C46   A    
C38   H9    S    
C9    C10   A    
C39   H10   S    
O1    V2    S    
O7    V1    S    
C43   O24   S    
C44   H11   S    
O11   C50   A    
O9    C4    A    
C55   H21   S    
C18   O26   S    
O13   V3    S    
C54   H19   S    
C5    H1    S    
C30   C33   A    
C37   C42   A    
C31   C36   A    
V3    O20   S    
C7    C51   S    
C5    C10   A    
C34   C35   A    
C57   H31   S    
O18   C51   A    
C56   H28   S    
C11   H3    S    
O21   C53   S    
C47   C48   A    
O19   C52   A    
C33   C34   A    
C11   C12   A    
C28   C29   A    
C15   C20   A    
C53   H17   S    
C23   O22   S    
C3    C12   S    
O2    C1    A    
C15   C16   A    
C17   C18   A    
C49   O16   A    
C27   O23   S    
O22   C54   S    
C53   H16   S    
C19   C20   A    
C55   H22   S    
O12   C49   A    
O13   C52   A    
C17   H33   S    
C58   H34   S    
O3    C4    A    
C22   O21   S    
C31   C32   A    
C43   C44   A    
O6    V2    S    
O9    V2    S    
O2    V1    S    
O15   C51   A    
C54   H20   S    
O26   C58   S    
O4    C2    A    
O25   C57   S    
C11   C16   A    
C37   C38   A    
C22   C23   A    
C42   H8    S    
C29   H6    S    
O1    C2    A    
C14   C17   A    
C27   C28   A    
O18   V4    S    
O5    V1    S    
C57   H30   S    
O8    C3    A    
C40   H7    S    
C32   C39   A    
C19   C24   A    
O11   V4    S    
C18   C19   A    
C6    H2    S    
C21   C26   A    
C41   C42   A    
C24   H5    S    
O3    V1    S    
V1    O10   S    
C56   H26   S    
O15   V3    S    
C13   H4    S    
O12   V3    S    
C40   C41   A    
O17   V4    S    
C53   H15   S    
C5    C6    A    
C28   C50   S    
O19   V4    S    
O7    V2    S    
C46   H12   S    
C58   H35   S    
O16   V4    S    
C35   C40   A    
C25   C26   A    
O4    V1    S    
C47   H13   S    
V4    O20   S    
C16   C23   A    
C34   H25   S    
O17   V3    S    
C1    C41   S    
C13   C14   A    
C33   H24   S    
C8    C9    A    
C26   H14   S    
C7    C8    A    
