data_mof_unit_9479.cif
_audit_creation_date              2013-03-05T15:46:21-0500
_audit_creation_method            fapswitch 2.2
_symmetry_space_group_name_H-M    P1
_symmetry_Int_Tables_number       1
_space_group_crystal_system       triclinic
_cell_length_a                    10.137228
_cell_length_b                    10.636924
_cell_length_c                    10.697743
_cell_angle_alpha                 90.037348
_cell_angle_beta                  95.525162
_cell_angle_gamma                 81.317695
_cell_volume                      1134.89651309

loop_
_atom_site_label
_atom_site_type_symbol
_atom_site_description
_atom_site_fract_x
_atom_site_fract_y
_atom_site_fract_z
_atom_type_partial_charge
O1    O     O_R   0.568950 0.489660 0.307530 -0.611678
O2    O     O_R   0.348880 0.522640 0.340350 -0.564362
C1    C     C_R   0.443434 0.503968 0.266362 0.804610
O3    O     O_R   0.610060 0.300270 0.483590 -0.638557
O4    O     O_R   0.389990 0.333260 0.516410 -0.583697
C2    C     C_R   0.501844 0.258750 0.507012 0.887028
Zn1   Zn    Zn3+2 0.646940 0.477980 0.478090 0.990271
Zn2   Zn    Zn3+2 0.353060 0.522020 0.521910 1.051218
O5    O     O_R   0.651120 0.477360 0.659650 -0.610921
O6    O     O_R   0.431050 0.510340 0.692470 -0.631614
O7    O     O_R   0.610010 0.666740 0.483590 -0.627366
O8    O     O_R   0.389940 0.699730 0.516410 -0.551100
C3    C     C_R   0.556516 0.487634 0.733663 0.783528
C4    C     C_R   0.495520 0.738765 0.479308 0.936174
H1    H     H_    0.284447 0.147798 0.477610 0.197356
C5    C     C_R   0.750430 0.067414 0.542940 -0.136123
H2    H     H_    0.762287 0.147925 0.602533 0.172196
C6    C     C_R   0.866141 0.991322 0.510376 -0.134614
H3    H     H_    0.963645 0.015783 0.541638 0.165795
C7    C     C_R   0.855282 0.889680 0.429965 -0.160517
H4    H     H_    0.944237 0.839104 0.393863 0.175766
C8    C     C_R   0.729517 0.855114 0.394261 0.182717
C9    C     C_R   0.614155 0.920359 0.444896 -0.013010
C10   C     C_R   0.622327 0.038328 0.499495 0.058249
C11   C     C_R   0.501574 0.123463 0.504159 -0.167962
C12   C     C_R   0.377212 0.081949 0.478402 -0.293889
C13   C     C_R   0.371185 0.954948 0.454347 0.454639
C14   C     C_R   0.491917 0.872046 0.448594 -0.168783
H5    H     H_    0.393906 0.421859 0.886387 0.192026
H6    H     H_    0.605854 0.391410 0.113411 0.193409
C15   C     C_2   0.410539 0.489587 0.132021 0.267579
C16   C     C_2   0.507618 0.429897 0.067489 -0.111119
C17   C     C_2   0.589241 0.463845 0.868017 0.253462
C18   C     C_2   0.492095 0.432126 0.932420 -0.133395
H7    H     H_    0.882469 0.607356 0.543680 0.136454
N1    N     N_2   0.157290 0.551390 0.551110 0.020738
C19   C     C_2   0.070278 0.507150 0.473172 0.636288
N2    N     N_2   0.842740 0.448550 0.448960 0.037387
C20   C     C_2   0.923650 0.524960 0.492373 0.019439
O9    O     O_3   0.286438 0.538257 0.071514 -0.735792
H8    H     H_    0.230915 0.583642 0.133681 0.362341
O10   O     O_3   0.116072 0.445732 0.368562 -0.724325
H9    H     H_    0.040849 0.453816 0.301270 0.359546
O11   O     O_3   0.898137 0.336726 0.404845 -0.688187
H10   H     H_    0.821729 0.291590 0.379032 0.377400
O12   O     O_3   0.112030 0.612858 0.651777 -0.730429
H11   H     H_    0.192331 0.639866 0.697636 0.387937
I1    I     I_    0.716789 0.733837 0.236696 -0.304316
O13   O     O_3   0.249683 0.910200 0.435515 -0.744228
H12   H     H_    0.175650 0.981817 0.440999 0.330649
O14   O     O_3   0.713223 0.477045 0.928689 -0.728216
H13   H     H_    0.768582 0.506934 0.866688 0.360001

loop_
_geom_bond_atom_site_label_1
_geom_bond_atom_site_label_2
_geom_bond_distance
_ccdc_geom_bond_type
O4    Zn2   1.987996 S    
C8    I1    2.127800 S    
C10   C11   1.413516 A    
C3    C17   1.457115 S    
Zn1   O7    1.987997 S    
C17   O14   1.384448 S    
H7    C20   1.084762 S    
C15   C16   1.337823 D    
Zn2   O8    1.983472 S    
C17   C18   1.337756 D    
C11   C12   1.400445 A    
C5    C10   1.415270 A    
C5    C6    1.394287 A    
O1    Zn1   1.913775 S    
C9    C14   1.415232 A    
O11   H10   0.988749 S    
C1    C15   1.456993 S    
N1    O12   1.342161 S    
C12   C13   1.384324 A    
O4    C2    1.294022 A    
O3    Zn1   1.983473 S    
Zn2   O6    1.913775 S    
N1    C19   1.295308 D    
Zn1   N2    2.016483 S    
C7    C8    1.397862 A    
N2    O11   1.342209 S    
O2    C1    1.293478 A    
C6    C7    1.391939 A    
Zn2   N1    2.016368 S    
N2    C20   1.294775 D    
O7    C4    1.287409 A    
O3    C2    1.288647 A    
O10   H9    0.990794 S    
C9    C10   1.394172 A    
O14   H13   0.990836 S    
H6    C16   1.087932 S    
C19   O10   1.379196 S    
C7    H4    1.082625 S    
C19   C20   1.503728 S    
O13   H12   0.991376 S    
C2    C11   1.439751 S    
C13   C14   1.402818 A    
Zn1   O5    1.938654 S    
O5    C3    1.293457 A    
O12   H11   0.989631 S    
C6    H3    1.081844 S    
H1    C12   1.083788 S    
O9    H8    0.990838 S    
C4    C14   1.449772 S    
C15   O9    1.384439 S    
C8    C9    1.420961 A    
H5    C18   1.087898 S    
O2    Zn2   1.938654 S    
C13   O13   1.383217 S    
O8    C4    1.300631 A    
C5    H2    1.081615 S    
O1    C1    1.292204 A    
O6    C3    1.292160 A    
C16   C18   1.438163 S    
