data_mof_unit_58069.cif
_audit_creation_date              2012-12-10T17:55:27-0500
_audit_creation_method            fapswitch 2.2
_symmetry_space_group_name_H-M    P1
_symmetry_Int_Tables_number       1
_space_group_crystal_system       triclinic
_cell_length_a                    10.853752
_cell_length_b                    9.540328
_cell_length_c                    10.885759
_cell_angle_alpha                 90.622739
_cell_angle_beta                  91.085585
_cell_angle_gamma                 90.553097
_cell_volume                      1126.87874208

loop_
_atom_site_label
_atom_site_type_symbol
_atom_type_description
_atom_site_fract_x
_atom_site_fract_y
_atom_site_fract_z
_atom_type_partial_charge
C1    C     C_R   0.262460 0.499670 0.504066 0.785125
C2    C     C_R   0.737978 0.500640 0.503014 0.816332
C3    C     C_R   0.497097 0.499096 0.265042 0.885007
C4    C     C_R   0.493124 0.500711 0.734665 0.897894
C5    C     C_2   0.433178 0.394178 0.930745 0.391522
C6    C     C_2   0.425451 0.402416 0.066340 0.400153
C7    C     C_2   0.472621 0.505506 0.866112 -0.520387
C8    C     C_2   0.493393 0.497377 0.132087 -0.481608
C9    C     C_R   0.062393 0.381566 0.471344 -0.260741
C10   C     C_R   0.935073 0.382720 0.469399 -0.250065
C11   C     C_R   0.872271 0.501804 0.509251 -0.043725
C12   C     C_R   0.129002 0.499963 0.511706 -0.045838
C13   C     C_R   0.938380 0.619027 0.556563 0.116376
C14   C     C_R   0.067504 0.618075 0.558221 0.107967
C15   C     C_R   0.432447 0.073107 0.414780 -0.098630
C16   C     C_R   0.565296 0.077023 0.586785 -0.079959
C17   C     C_R   0.431197 0.924209 0.414948 0.248427
C18   C     C_R   0.565133 0.928353 0.587784 0.246089
Cu1   Cu    Cu3+1 0.500000 0.640660 0.500000 0.998111
Cu2   Cu    Cu3+1 0.500000 0.359340 0.500000 0.958983
H1    H     H_    0.482849 0.608183 0.908807 0.128350
H2    H     H_    0.550066 0.576203 0.089241 0.120073
H3    H     H_    0.108802 0.288815 0.438759 0.169261
H4    H     H_    0.885719 0.290928 0.434530 0.169865
H5    H     H_    0.378492 0.128460 0.346812 0.170186
H6    H     H_    0.617291 0.135358 0.656392 0.150802
N1    N     N_R   0.500000 0.852070 0.500000 -0.145088
N2    N     N_R   0.500000 0.147940 0.500000 -0.185237
O1    O     O_R   0.319640 0.618740 0.499990 -0.532247
O2    O     O_R   0.680360 0.618740 0.500010 -0.531950
O3    O     O_R   0.319620 0.381170 0.499990 -0.608492
O4    O     O_R   0.680380 0.381170 0.500010 -0.602619
O5    O     O_R   0.500000 0.618750 0.321940 -0.567313
O6    O     O_R   0.500000 0.618750 0.678060 -0.560473
O7    O     O_R   0.499970 0.381180 0.321940 -0.540746
O8    O     O_R   0.500030 0.381180 0.678060 -0.544135
O9    O     O_3   0.405853 0.266680 0.873261 -0.533952
C19   C     C_3   0.282955 0.268669 0.827686 0.130006
H7    H     H_    0.267018 0.358063 0.764559 0.122325
H8    H     H_    0.217076 0.275925 0.904067 0.137216
C20   C     C_3   0.255306 0.133421 0.756702 -0.767881
H9    H     H_    0.269541 0.041741 0.817177 0.241517
H10   H     H_    0.158191 0.132985 0.722665 0.185299
H11   H     H_    0.316746 0.124755 0.676822 0.260661
O10   O     O_3   0.355915 0.300875 0.124410 -0.547049
C21   C     C_3   0.240083 0.357563 0.153969 0.076800
H12   H     H_    0.201396 0.424534 0.079454 0.101112
H13   H     H_    0.248368 0.421627 0.239612 0.146685
C22   C     C_3   0.148884 0.238385 0.174866 -0.817784
H14   H     H_    0.181688 0.171521 0.251278 0.230664
H15   H     H_    0.057640 0.281824 0.198350 0.207598
H16   H     H_    0.138312 0.172628 0.090511 0.244177
N3    N     N_3   0.874372 0.737010 0.605546 -0.572216
H17   H     H_    0.899194 0.826536 0.556973 0.209656
H18   H     H_    0.900037 0.750713 0.697944 0.203288
N4    N     N_3   0.136333 0.734792 0.609720 -0.577310
H19   H     H_    0.113087 0.748267 0.701778 0.201869
H20   H     H_    0.113890 0.825364 0.561355 0.212982
N5    N     N_3   0.355149 0.849384 0.327497 -0.529803
H21   H     H_    0.264085 0.880816 0.339401 0.186388
H22   H     H_    0.381361 0.879254 0.239554 0.205091
N6    N     N_3   0.630104 0.858634 0.684173 -0.511493
H23   H     H_    0.717305 0.905156 0.693556 0.189032
H24   H     H_    0.584377 0.879990 0.765860 0.203852

loop_
_geom_bond_atom_site_label_1
_geom_bond_atom_site_label_2
_ccdc_geom_bond_type
C16   N2    A    
C8    H2    S    
C4    O8    A    
C15   C17   A    
O9    C19   S    
C6    O10   S    
C5    O9    S    
Cu1   N1    S    
C20   H9    S    
C17   N1    A    
C14   N4    S    
Cu1   Cu2   S    
Cu2   O4    S    
C3    O7    A    
C2    O2    A    
C22   H16   S    
C1    O1    A    
N6    H24   S    
C12   C14   A    
N5    H21   S    
N3    H17   S    
C19   H8    S    
C20   H10   S    
C21   C22   S    
C15   N2    A    
N6    H23   S    
C1    C12   S    
C17   N5    S    
C4    C7    S    
C2    C11   S    
C16   C18   A    
C20   H11   S    
N4    H20   S    
C22   H14   S    
C13   N3    S    
N3    H18   S    
C1    O3    A    
C16   H6    S    
C5    C6    S    
Cu2   O3    S    
C9    C12   A    
C4    O6    A    
C15   H5    S    
N5    H22   S    
C10   C11   A    
C3    O5    A    
Cu1   O1    S    
C21   H13   S    
O10   C21   S    
C11   C13   A    
C19   H7    S    
N4    H19   S    
C19   C20   S    
C2    O4    A    
C3    C8    S    
C9    C10   A    
C5    C7    D    
C21   H12   S    
C9    H3    S    
C6    C8    D    
Cu2   N2    S    
C13   C14   A    
C10   H4    S    
C7    H1    S    
Cu1   O2    S    
Cu2   O7    S    
C18   N6    S    
C18   N1    A    
Cu1   O5    S    
C22   H15   S    
Cu1   O6    S    
Cu2   O8    S    
