data_mof_unit_37860.cif
_audit_creation_date              2012-12-11T15:09:48-0500
_audit_creation_method            fapswitch 2.2
_symmetry_space_group_name_H-M    P1
_symmetry_Int_Tables_number       1
_space_group_crystal_system       triclinic
_cell_length_a                    20.887101
_cell_length_b                    7.128535
_cell_length_c                    14.069167
_cell_angle_alpha                 89.998935
_cell_angle_beta                  98.287015
_cell_angle_gamma                 90.001342
_cell_volume                      2072.94749479

loop_
_atom_site_label
_atom_site_type_symbol
_atom_type_description
_atom_site_fract_x
_atom_site_fract_y
_atom_site_fract_z
_atom_type_partial_charge
O1    O     O_R   0.447130 0.507140 0.597350 -0.537830
O2    O     O_R   0.552870 0.007140 0.402650 -0.537812
O3    O     O_R   0.578910 0.181280 0.586990 -0.535734
O4    O     O_R   0.421090 0.681280 0.413010 -0.535725
C1    C     C_R   0.604465 0.344461 0.607394 0.745595
C2    C     C_R   0.395535 0.844460 0.392605 0.745581
O5    O     O_R   0.449230 0.177860 0.608640 -0.540007
O6    O     O_R   0.550770 0.677860 0.391360 -0.540019
O7    O     O_R   0.422260 0.000770 0.424450 -0.538352
O8    O     O_R   0.577740 0.500770 0.575550 -0.538340
C3    C     C_R   0.432995 0.346656 0.634511 0.781635
C4    C     C_R   0.567006 0.846661 0.365490 0.781641
O9    O     O_3   0.491310 0.336980 0.439550 -0.378406
O10   O     O_3   0.508690 0.836980 0.560450 -0.378405
V1    V     V_3+5 0.501610 0.064760 0.511210 1.523130
V2    V     V_3+5 0.498390 0.564760 0.488790 1.523124
C5    C     C_R   0.609165 0.896132 0.116281 -0.125165
C6    C     C_R   0.390821 0.395965 0.883722 -0.125270
C7    C     C_R   0.604439 0.859872 0.286131 -0.159680
C8    C     C_R   0.395557 0.359850 0.713866 -0.159784
C9    C     C_R   0.913298 0.866480 0.297876 -0.181258
C10   C     C_R   0.086698 0.366486 0.702123 -0.181253
C11   C     C_R   0.877509 0.912730 0.370013 -0.149838
C12   C     C_R   0.122483 0.412753 0.629981 -0.149839
C13   C     C_R   0.811290 0.950625 0.348717 -0.008689
C14   C     C_R   0.188701 0.450669 0.651272 -0.008691
C15   C     C_R   0.778318 0.913962 0.254137 0.055077
C16   C     C_R   0.221677 0.414012 0.745852 0.055084
C17   C     C_R   0.815782 0.884567 0.178255 -0.018399
C18   C     C_R   0.184215 0.384617 0.821740 -0.018445
C19   C     C_R   0.709498 0.900197 0.232793 0.107670
C20   C     C_R   0.290497 0.400228 0.767192 0.107652
C21   C     C_R   0.678211 0.913621 0.136015 -0.068358
C22   C     C_R   0.321782 0.413610 0.863971 -0.068314
C23   C     C_R   0.717217 0.934219 0.062410 -0.047049
C24   C     C_R   0.282781 0.434334 0.937571 -0.047116
C25   C     C_R   0.783268 0.886123 0.081883 -0.111711
C26   C     C_R   0.216731 0.386214 0.918113 -0.111679
C27   C     C_R   0.671503 0.860575 0.305287 -0.243171
C28   C     C_R   0.328493 0.360628 0.694697 -0.243150
C29   C     C_R   0.573165 0.880042 0.192561 0.575661
C30   C     C_R   0.426827 0.379875 0.807449 0.575701
C31   C     C_R   0.884494 0.863465 0.202058 -0.063396
C32   C     C_R   0.115504 0.363484 0.797941 -0.063397
H1    H     H_    0.693302 0.826978 0.377650 0.127789
H2    H     H_    0.306696 0.327094 0.622326 0.127796
H3    H     H_    0.965225 0.850025 0.316142 0.113838
H4    H     H_    0.034772 0.350011 0.683859 0.113834
H5    H     H_    0.902971 0.933668 0.441948 0.153459
H6    H     H_    0.097018 0.433686 0.558047 0.153458
C33   C     C_1   0.166273 0.856508 0.169077 -0.102604
C34   C     C_1   0.833728 0.356504 0.830920 -0.102603
C35   C     C_1   0.218772 0.854165 0.220011 0.080968
C36   C     C_1   0.781230 0.354163 0.779986 0.080886
C37   C     C_1   0.280624 0.852928 0.279735 0.063366
C38   C     C_1   0.719377 0.352929 0.720262 0.063261
C39   C     C_1   0.333087 0.850882 0.330781 -0.151879
C40   C     C_1   0.666914 0.350886 0.669216 -0.151862
O11   O     O_R   0.922300 0.202240 0.924350 -0.519899
O12   O     O_R   0.077700 0.702240 0.075650 -0.519877
O13   O     O_R   0.050780 0.535130 0.891350 -0.538708
O14   O     O_R   0.949220 0.035130 0.108650 -0.538703
C41   C     C_R   0.070837 0.368732 0.869646 0.691242
C42   C     C_R   0.929163 0.868727 0.130356 0.691225
O15   O     O_R   0.921100 0.531560 0.912990 -0.538872
O16   O     O_R   0.078900 0.031560 0.087010 -0.538898
O17   O     O_R   0.947120 0.708470 0.097370 -0.531198
O18   O     O_R   0.052880 0.208470 0.902630 -0.531208
C43   C     C_R   0.896152 0.363342 0.892831 0.763826
C44   C     C_R   0.103849 0.863344 0.107167 0.763788
O19   O     O_3   0.008710 0.375800 0.060400 -0.378517
O20   O     O_3   0.991290 0.875800 0.939600 -0.378523
V3    V     V_3+5 0.998380 0.648080 0.988790 1.499703
V4    V     V_3+5 0.001620 0.148080 0.011210 1.499668
F1    F     F_    0.507463 0.869615 0.175226 -0.671037
F2    F     F_    0.492526 0.369307 0.824796 -0.670779
C45   C     C_2   0.690982 0.019973 0.968133 0.796327
O21   O     O_2   0.699538 0.945751 0.892619 -0.534052
O22   O     O_R   0.655550 0.186683 0.966661 -0.626190
H7    H     H_    0.639724 0.231866 0.899016 0.339533
C46   C     C_2   0.309021 0.520375 0.031786 0.796280
O23   O     O_2   0.300331 0.446661 0.107372 -0.534084
O24   O     O_R   0.344602 0.686808 0.033115 -0.626296
H8    H     H_    0.360394 0.732268 0.100726 0.339601
C47   C     C_2   0.573386 0.866657 0.018455 0.940851
O25   O     O_2   0.525341 0.960543 0.990489 -0.486170
O26   O     O_R   0.593289 0.726161 0.959814 -0.626209
H9    H     H_    0.564695 0.717913 0.895291 0.340911
C48   C     C_2   0.426567 0.366300 0.981558 0.941062
O27   O     O_2   0.474706 0.459801 0.009518 -0.486028
O28   O     O_R   0.406512 0.226067 0.040224 -0.626488
H10   H     H_    0.435091 0.217659 0.104753 0.340901
C49   C     C_2   0.781399 0.056650 0.422186 0.727022
O29   O     O_2   0.798907 0.028143 0.507728 -0.565152
O30   O     O_R   0.734567 0.193474 0.393473 -0.653212
H11   H     H_    0.717986 0.256064 0.449881 0.288968
C50   C     C_2   0.218588 0.556713 0.577800 0.726982
O31   O     O_2   0.201077 0.528209 0.492250 -0.565139
O32   O     O_R   0.265421 0.693546 0.606515 -0.653207
H12   H     H_    0.281999 0.756146 0.550103 0.288958
C51   C     C_2   0.812737 0.805771 0.002244 0.807257
O33   O     O_2   0.815877 0.635467 0.995409 -0.549844
O34   O     O_R   0.833451 0.922054 0.932933 -0.644424
H13   H     H_    0.850181 0.848956 0.879843 0.301246
C52   C     C_2   0.187273 0.305818 0.997756 0.807374
O35   O     O_2   0.184148 0.135521 0.004593 -0.549937
O36   O     O_R   0.166525 0.422060 0.067047 -0.644313
H14   H     H_    0.149797 0.348944 0.120133 0.301260

loop_
_geom_bond_atom_site_label_1
_geom_bond_atom_site_label_2
_ccdc_geom_bond_type
C10   H4    S    
O26   H9    S    
C13   C49   S    
C49   O29   D    
C15   C17   A    
C35   C37   S    
O30   H11   S    
O1    C3    A    
O2    C4    A    
C2    O7    A    
C50   O31   D    
C45   O21   D    
O5    C3    A    
C52   O36   S    
C51   O33   D    
C1    C40   S    
C5    C47   S    
C23   C25   A    
C12   C14   A    
C6    C30   A    
C8    C28   A    
C11   H5    S    
O18   V4    S    
O16   V4    S    
O12   V3    S    
O15   V3    S    
C18   C26   A    
O13   C41   A    
C49   O30   S    
O14   C42   A    
C34   C43   S    
C46   O24   S    
C9    C31   A    
C10   C32   A    
O24   H8    S    
C38   C40   T    
O36   H14   S    
C19   C21   A    
O17   V3    S    
C33   C44   S    
C48   O28   S    
C27   H1    S    
O5    V1    S    
O6    V2    S    
C17   C31   A    
C2    C39   S    
C18   C32   A    
C5    C21   A    
C50   O32   S    
C34   C36   T    
C31   C42   S    
C46   O23   D    
C45   O22   S    
C32   C41   S    
C12   H6    S    
C36   C38   S    
C3    C8    S    
C47   O26   S    
C15   C19   A    
C42   O17   A    
C16   C20   A    
O20   V4    S    
O28   H10   S    
O19   V3    S    
O13   V3    S    
C47   O25   D    
C23   C45   S    
C33   C35   T    
C20   C22   A    
O4    V2    S    
C28   H2    S    
C29   F1    S    
O32   H12   S    
O12   C44   A    
C24   C46   S    
O6    C4    A    
O1    V2    S    
O2    V1    S    
C6    C22   A    
O11   V4    S    
C7    C27   A    
O11   C43   A    
O4    C2    A    
C37   C39   T    
C10   C12   A    
C24   C26   A    
O3    V1    S    
C41   O18   A    
C6    C48   S    
C14   C16   A    
O20   V3    S    
O3    C1    A    
O19   V4    S    
C8    C30   A    
C13   C15   A    
C52   O35   D    
C30   F2    S    
C26   C52   S    
C9    C11   A    
O7    V1    S    
C1    O8    A    
O8    V2    S    
C25   C51   S    
O16   C44   A    
O15   C43   A    
C4    C7    S    
C16   C18   A    
C21   C23   A    
C19   C27   A    
C22   C24   A    
C20   C28   A    
C5    C29   A    
C14   C50   S    
O22   H7    S    
C11   C13   A    
C51   O34   S    
O9    V2    S    
C17   C25   A    
O34   H13   S    
O10   V1    S    
O14   V4    S    
C48   O27   D    
C7    C29   A    
C9    H3    S    
