data_mof_unit_28311.cif
_audit_creation_date              2012-10-26T20:22:07-0400
_audit_creation_method            fapswitch 2.2
_symmetry_space_group_name_H-M    P1
_symmetry_Int_Tables_number       1
_space_group_crystal_system       triclinic
_cell_length_a                    10.828919
_cell_length_b                    9.526207
_cell_length_c                    10.641913
_cell_angle_alpha                 90.268646
_cell_angle_beta                  90.260582
_cell_angle_gamma                 89.952115
_cell_volume                      1097.78025245

loop_
_atom_site_label
_atom_site_type_symbol
_atom_type_description
_atom_site_fract_x
_atom_site_fract_y
_atom_site_fract_z
_atom_type_partial_charge
C1    C     C_R   0.871765 0.499962 0.500003 0.015515
C2    C     C_3   0.493590 0.365138 0.040019 -0.109723
C3    C     C_3   0.398153 0.441859 0.957930 0.142105
C4    C     C_3   0.601849 0.558141 0.042070 0.142109
C5    C     C_3   0.501137 0.501468 0.877048 0.024527
C6    C     C_3   0.498866 0.498532 0.122952 0.024531
C7    C     C_R   0.423520 0.074066 0.421425 0.011379
C8    C     C_R   0.576480 0.925934 0.578575 0.011380
C9    C     C_R   0.576496 0.074721 0.578556 0.015565
C10   C     C_R   0.423503 0.925279 0.421444 0.015564
C11   C     C_R   0.063985 0.372497 0.502918 -0.144790
C12   C     C_R   0.128235 0.500038 0.499997 0.015518
C13   C     C_R   0.936015 0.627503 0.497082 -0.144795
C14   C     C_R   0.936250 0.372460 0.502933 -0.146692
C15   C     C_R   0.063750 0.627540 0.497066 -0.146694
C16   C     C_3   0.202632 0.324483 0.998581 -0.309219
C17   C     C_3   0.797406 0.675363 0.001416 -0.309293
C18   C     C_R   0.262086 0.500032 0.499980 0.542483
C19   C     C_R   0.737914 0.499968 0.500020 0.542469
C20   C     C_R   0.499529 0.499595 0.259415 0.554130
C21   C     C_R   0.500471 0.500405 0.740585 0.554149
C22   C     C_3   0.400869 0.573598 0.041820 -0.140295
C23   C     C_3   0.599133 0.426401 0.958179 -0.140283
C24   C     C_3   0.506413 0.634861 0.959981 -0.109735
Cu1   Cu    Cu3+1 0.500000 0.640660 0.500000 0.935453
Cu2   Cu    Cu3+1 0.500000 0.359340 0.500000 0.935464
H1    H     H_    0.362246 0.129837 0.358446 0.100823
H2    H     H_    0.887877 0.727196 0.494715 0.129055
H3    H     H_    0.888296 0.272759 0.505349 0.126398
H4    H     H_    0.111704 0.727241 0.494651 0.126397
H5    H     H_    0.244508 0.441748 0.840253 0.249526
H6    H     H_    0.124129 0.272167 0.949994 0.139411
H7    H     H_    0.166033 0.411036 0.058123 0.132345
H8    H     H_    0.249654 0.245754 0.058847 0.149411
H9    H     H_    0.755451 0.558319 0.159816 0.249562
H10   H     H_    0.875911 0.727695 0.049992 0.139433
H11   H     H_    0.750433 0.754031 0.941062 0.149456
H12   H     H_    0.637754 0.870163 0.641554 0.100824
H13   H     H_    0.833981 0.588735 0.941972 0.132366
H14   H     H_    0.637816 0.131015 0.641493 0.104174
H15   H     H_    0.362184 0.868985 0.358507 0.104174
H16   H     H_    0.319124 0.631018 0.078112 0.102342
H17   H     H_    0.680875 0.368978 0.921886 0.102337
H18   H     H_    0.513616 0.744377 0.925585 0.119075
H19   H     H_    0.486393 0.255621 0.074416 0.119061
H20   H     H_    0.112123 0.272804 0.505284 0.129056
N1    N     N_R   0.500000 0.852070 0.500000 -0.222322
N2    N     N_R   0.500000 0.147930 0.500000 -0.222322
N3    N     N_2   0.287207 0.379235 0.906319 -0.498108
N4    N     N_2   0.712796 0.620769 0.093680 -0.498161
O1    O     O_R   0.319640 0.618740 0.499990 -0.512738
O2    O     O_R   0.680360 0.381260 0.500010 -0.512738
O3    O     O_R   0.680360 0.618740 0.500010 -0.507277
O4    O     O_R   0.319640 0.381260 0.499990 -0.507269
O5    O     O_R   0.499970 0.618770 0.316850 -0.488274
O6    O     O_R   0.500030 0.381230 0.683150 -0.488262
O7    O     O_R   0.500030 0.618770 0.683150 -0.514290
O8    O     O_R   0.499970 0.381230 0.316850 -0.514286

loop_
_geom_bond_atom_site_label_1
_geom_bond_atom_site_label_2
_ccdc_geom_bond_type
C17   N4    S    
C7    C10   A    
C11   C12   A    
Cu1   O1    S    
C13   H2    S    
C21   O7    A    
C17   H10   S    
Cu2   O2    S    
C16   H7    S    
C16   H6    S    
C6    C20   S    
Cu1   N1    S    
C15   H4    S    
C5    C23   S    
C12   C15   A    
Cu2   N2    S    
C3    C5    S    
C7    N2    A    
C19   O3    A    
H9    N4    S    
C13   C15   A    
C2    C3    S    
C3    N3    S    
C8    N1    A    
C7    H1    S    
C17   H11   S    
C10   H15   S    
Cu2   O8    S    
C21   O6    A    
C22   H16   S    
C5    C24   S    
Cu1   O7    S    
H5    N3    S    
C20   O5    A    
C4    C24   S    
Cu2   O4    S    
Cu1   O3    S    
C18   O1    A    
C8    H12   S    
C2    H19   S    
C24   H18   S    
C11   C14   A    
C22   C24   S    
C1    C19   S    
C1    C13   A    
C18   O4    A    
C14   H3    S    
C20   O8    A    
C6    C22   S    
Cu1   O5    S    
C2    C23   S    
C23   H17   S    
C16   N3    S    
C9    N2    A    
C4    C6    S    
C17   H13   S    
C12   C18   S    
C10   N1    A    
C4    C23   S    
C11   H20   S    
C1    C14   A    
C16   H8    S    
Cu1   Cu2   S    
C19   O2    A    
C9    H14   S    
C2    C6    S    
C4    N4    S    
C8    C9    A    
C3    C22   S    
C5    C21   S    
Cu2   O6    S    
