data_mof_unit_48898.cif
_audit_creation_date              2012-12-11T14:38:30-0500
_audit_creation_method            fapswitch 2.2
_symmetry_space_group_name_H-M    P1
_symmetry_Int_Tables_number       1
_space_group_crystal_system       triclinic
_cell_length_a                    19.504904
_cell_length_b                    11.121327
_cell_length_c                    19.685321
_cell_angle_alpha                 89.861376
_cell_angle_beta                  96.62375
_cell_angle_gamma                 89.880832
_cell_volume                      4241.62055485

loop_
_atom_site_label
_atom_site_type_symbol
_atom_type_description
_atom_site_fract_x
_atom_site_fract_y
_atom_site_fract_z
_atom_type_partial_charge
C1    C     C_R   0.724274 0.955201 0.360932 0.542398
C2    C     C_R   0.275860 0.956083 0.638720 0.553587
C3    C     C_R   0.226042 0.451428 0.359466 0.537613
C4    C     C_R   0.775802 0.455469 0.638978 0.553916
C5    C     C_3   0.680654 0.449500 0.457330 -0.232315
C6    C     C_3   0.323958 0.436233 0.540613 -0.230157
C7    C     C_3   0.187570 0.977868 0.454047 -0.246597
C8    C     C_3   0.819304 0.949176 0.542538 -0.233265
C9    C     C_3   0.824303 0.483878 0.530437 -0.210040
C10   C     C_3   0.182602 0.487615 0.467857 -0.206734
C11   C     C_3   0.326312 0.974020 0.531235 -0.212635
C12   C     C_3   0.675653 0.984135 0.469162 -0.209002
C13   C     C_3   0.763496 0.293751 0.553961 -0.262172
C14   C     C_3   0.233079 0.289624 0.445424 -0.264016
C15   C     C_3   0.257670 0.794786 0.553875 -0.257166
C16   C     C_3   0.736775 0.793540 0.446485 -0.262865
C17   C     C_3   0.763126 0.428659 0.566248 0.062191
C18   C     C_3   0.240307 0.423187 0.432098 0.066988
C19   C     C_3   0.262425 0.929331 0.565861 0.061592
C20   C     C_3   0.736931 0.928396 0.433681 0.065899
C21   C     C_3   0.747197 0.393055 0.435041 0.055753
C22   C     C_3   0.255236 0.389787 0.563735 0.049763
C23   C     C_3   0.245194 0.893373 0.434716 0.059970
C24   C     C_3   0.752757 0.893270 0.564965 0.052421
C25   C     C_3   0.808018 0.479252 0.452229 -0.257201
C26   C     C_3   0.198634 0.483791 0.545875 -0.260962
C27   C     C_3   0.315848 0.953026 0.454287 -0.244092
C28   C     C_3   0.691893 0.979844 0.547386 -0.257400
C29   C     C_3   0.765031 0.275857 0.477153 -0.220866
C30   C     C_3   0.233117 0.273912 0.522708 -0.223024
C31   C     C_3   0.238602 0.776095 0.476803 -0.226369
C32   C     C_3   0.734992 0.776041 0.523304 -0.221003
C33   C     C_3   0.508678 0.308596 0.959106 -0.097078
C34   C     C_3   0.511910 0.311500 0.036712 -0.089389
C35   C     C_3   0.008677 0.808597 0.959106 -0.097092
C36   C     C_3   0.011909 0.811501 0.036713 -0.089404
C37   C     C_3   0.427881 0.127251 0.967751 -0.232354
C38   C     C_3   0.571919 0.105978 0.031950 -0.233868
C39   C     C_3   0.927881 0.627249 0.967751 -0.232362
C40   C     C_3   0.071920 0.605980 0.031950 -0.233873
C41   C     C_3   0.552513 0.093561 0.953898 -0.250463
C42   C     C_3   0.445486 0.116047 0.045697 -0.248982
C43   C     C_3   0.052514 0.593563 0.953898 -0.250468
C44   C     C_3   0.945487 0.616046 0.045697 -0.248994
C45   C     C_R   0.536165 0.180312 0.338662 0.534462
C46   C     C_R   0.463763 0.180374 0.661297 0.537901
C47   C     C_R   0.036314 0.680319 0.338755 0.535554
C48   C     C_R   0.963843 0.680372 0.661355 0.538363
C49   C     C_3   0.490517 0.176786 0.932874 0.067857
C50   C     C_3   0.515058 0.178102 0.065480 0.062635
C51   C     C_3   0.990517 0.676786 0.932874 0.067863
C52   C     C_3   0.015058 0.678102 0.065480 0.062625
C53   C     C_1   0.778566 0.470344 0.913789 -0.027291
C54   C     C_1   0.242089 0.414427 0.098958 -0.019010
C55   C     C_1   0.278566 0.970344 0.913789 -0.027357
C56   C     C_1   0.742088 0.914428 0.098958 -0.019179
C57   C     C_1   0.756874 0.432391 0.040797 -0.054204
C58   C     C_1   0.263194 0.365181 0.972855 -0.058274
C59   C     C_1   0.256874 0.932391 0.040797 -0.054210
C60   C     C_1   0.763193 0.865184 0.972855 -0.058284
C61   C     C_1   0.767877 0.453775 0.972186 -0.055930
C62   C     C_1   0.253490 0.389690 0.041624 -0.054787
C63   C     C_1   0.267877 0.953775 0.972186 -0.055907
C64   C     C_1   0.753490 0.889693 0.041624 -0.054834
C65   C     C_1   0.747836 0.406423 0.098568 -0.018698
C66   C     C_1   0.269965 0.343718 0.913885 -0.022685
C67   C     C_1   0.247836 0.906424 0.098568 -0.018750
C68   C     C_1   0.769964 0.843721 0.913884 -0.022579
C69   C     C_R   0.738785 0.360205 0.362186 0.540164
C70   C     C_R   0.261892 0.358733 0.637126 0.550572
C71   C     C_R   0.238276 0.859928 0.362208 0.541497
C72   C     C_R   0.761139 0.860428 0.637876 0.550367
C73   C     C_R   0.722651 0.952970 0.163743 0.539610
C74   C     C_R   0.293710 0.994575 0.845454 0.534536
C75   C     C_R   0.222651 0.452971 0.163742 0.538519
C76   C     C_R   0.793710 0.494574 0.845454 0.534419
C77   C     C_R   0.534345 0.180224 0.139862 0.536753
C78   C     C_R   0.468456 0.179544 0.858891 0.524710
C79   C     C_R   0.034345 0.680224 0.139862 0.536836
C80   C     C_R   0.968455 0.679544 0.858891 0.524734
C81   C     C_R   0.736666 0.360478 0.164513 0.544643
C82   C     C_R   0.276929 0.312821 0.844090 0.538320
C83   C     C_R   0.236667 0.860479 0.164514 0.544644
C84   C     C_R   0.776929 0.812822 0.844090 0.538152
C85   C     C_1   0.485117 0.172994 0.594175 -0.030907
C86   C     C_1   0.514706 0.172750 0.405749 -0.031681
C87   C     C_1   0.985424 0.673001 0.594332 -0.029380
C88   C     C_1   0.015146 0.672736 0.405954 -0.030201
C89   C     C_1   0.504310 0.169660 0.464891 -0.069751
C90   C     C_1   0.495456 0.169784 0.535027 -0.069826
C91   C     C_1   0.004854 0.669636 0.465120 -0.069174
C92   C     C_1   0.995925 0.669779 0.535233 -0.068934
C93   C     C_3   0.690634 0.473043 0.534418 -0.237637
C94   C     C_3   0.315002 0.457966 0.462984 -0.236241
C95   C     C_3   0.191983 0.983308 0.532566 -0.237119
C96   C     C_3   0.809344 0.972622 0.465391 -0.237325
Cr1   Cr    Cr6+3 0.765780 0.160710 0.267420 1.012910
Cr2   Cr    Cr6+3 0.234220 0.160710 0.732580 1.011334
Cr3   Cr    Cr6+3 0.265780 0.660710 0.267420 1.012786
Cr4   Cr    Cr6+3 0.734220 0.660710 0.732580 1.011324
Cr5   Cr    Cr6+3 0.612200 0.009560 0.248850 1.012529
Cr6   Cr    Cr6+3 0.387800 0.009560 0.751150 1.010495
Cr7   Cr    Cr6+3 0.112200 0.509560 0.248850 1.012220
Cr8   Cr    Cr6+3 0.887800 0.509560 0.751150 1.010663
Cr9   Cr    Cr6+3 0.616030 0.323720 0.248510 1.006590
Cr10  Cr    Cr6+3 0.383970 0.323720 0.751490 1.008261
Cr11  Cr    Cr6+3 0.116030 0.823720 0.248510 1.006179
Cr12  Cr    Cr6+3 0.883970 0.823720 0.751490 1.007821
H1    H     H_    0.682265 0.567577 0.544850 0.130908
H2    H     H_    0.329256 0.551068 0.451796 0.129781
H3    H     H_    0.180867 0.072749 0.550477 0.133668
H4    H     H_    0.817516 0.067141 0.454628 0.131938
H5    H     H_    0.818807 0.250621 0.469883 0.132088
H6    H     H_    0.178932 0.254664 0.531423 0.133906
H7    H     H_    0.269898 0.703307 0.459271 0.140757
H8    H     H_    0.681149 0.751430 0.530510 0.132374
H9    H     H_    0.871354 0.428044 0.544503 0.139352
H10   H     H_    0.132498 0.440428 0.454435 0.139697
H11   H     H_    0.373205 0.922675 0.552168 0.141113
H12   H     H_    0.628660 0.928511 0.455317 0.139410
H13   H     H_    0.854588 0.448287 0.429358 0.129584
H14   H     H_    0.150935 0.461170 0.569275 0.129633
H15   H     H_    0.358278 0.894582 0.439907 0.140129
H16   H     H_    0.645328 0.949384 0.570392 0.131246
H17   H     H_    0.467052 0.372352 0.938988 0.178979
H18   H     H_    0.560148 0.359647 0.056716 0.173393
H19   H     H_    0.967049 0.872352 0.938988 0.178981
H20   H     H_    0.060147 0.859648 0.056716 0.173395
H21   H     H_    0.382308 0.186936 0.955970 0.098845
H22   H     H_    0.622529 0.152340 0.042406 0.115978
H23   H     H_    0.882307 0.686934 0.955970 0.098891
H24   H     H_    0.122529 0.652344 0.042406 0.116039
H25   H     H_    0.403956 0.156759 0.072442 0.121230
H26   H     H_    0.597213 0.116249 0.926049 0.125845
H27   H     H_    0.903956 0.656756 0.072442 0.121307
H28   H     H_    0.097213 0.616252 0.926049 0.125925
H29   H     H_    0.538458 0.998669 0.941075 0.135167
H30   H     H_    0.449082 0.019473 0.060753 0.131012
H31   H     H_    0.038459 0.498671 0.941076 0.135179
H32   H     H_    0.949084 0.519471 0.060753 0.131006
H33   H     H_    0.578642 0.014129 0.054305 0.150480
H34   H     H_    0.413260 0.036564 0.947521 0.135804
H35   H     H_    0.078644 0.514131 0.054305 0.150533
H36   H     H_    0.913261 0.536563 0.947521 0.135818
H37   H     H_    0.649474 0.425530 0.558696 0.118260
H38   H     H_    0.353036 0.401667 0.439234 0.115970
H39   H     H_    0.148870 0.929096 0.549164 0.120187
H40   H     H_    0.850614 0.924968 0.441302 0.116365
H41   H     H_    0.636359 0.387043 0.445405 0.145891
H42   H     H_    0.365693 0.368719 0.553502 0.143500
H43   H     H_    0.135442 0.944765 0.433567 0.145579
H44   H     H_    0.863616 0.886408 0.554685 0.145474
H45   H     H_    0.667915 0.534918 0.429186 0.117051
H46   H     H_    0.339992 0.521146 0.567653 0.120678
H47   H     H_    0.193678 0.066791 0.431613 0.114323
H48   H     H_    0.831994 0.034569 0.570388 0.118370
H49   H     H_    0.340573 0.068190 0.542837 0.105819
H50   H     H_    0.658238 0.073770 0.450563 0.108283
H51   H     H_    0.841731 0.573480 0.548537 0.107094
H52   H     H_    0.171725 0.577375 0.447555 0.110183
H53   H     H_    0.318897 0.039648 0.426563 0.104874
H54   H     H_    0.705335 0.068804 0.568551 0.112037
H55   H     H_    0.794524 0.568160 0.430578 0.109756
H56   H     H_    0.216739 0.571069 0.566152 0.115537
H57   H     H_    0.808882 0.248710 0.582851 0.129302
H58   H     H_    0.183390 0.256817 0.418582 0.129722
H59   H     H_    0.307152 0.748320 0.571629 0.128903
H60   H     H_    0.691574 0.748515 0.417623 0.127557
H61   H     H_    0.716122 0.255118 0.571040 0.110075
H62   H     H_    0.275850 0.237825 0.426590 0.107103
H63   H     H_    0.216894 0.758605 0.583225 0.105357
H64   H     H_    0.784354 0.754703 0.429857 0.107878
H65   H     H_    0.730173 0.204355 0.458415 0.123944
H66   H     H_    0.266977 0.199783 0.541205 0.124640
H67   H     H_    0.183191 0.752540 0.469400 0.114772
H68   H     H_    0.769690 0.704219 0.542550 0.123786
O1    O     O_R   0.783100 0.287550 0.345460 -0.532188
O2    O     O_R   0.216900 0.287550 0.654540 -0.527242
O3    O     O_R   0.283100 0.787550 0.345460 -0.532345
O4    O     O_R   0.716900 0.787550 0.654540 -0.527530
O5    O     O_R   0.554710 0.081900 0.170950 -0.506625
O6    O     O_R   0.445290 0.081900 0.829050 -0.520070
O7    O     O_R   0.054710 0.581900 0.170950 -0.506532
O8    O     O_R   0.945290 0.581900 0.829050 -0.520069
O9    O     O_R   0.545650 0.284910 0.163740 -0.534355
O10   O     O_R   0.454350 0.284910 0.836260 -0.539228
O11   O     O_R   0.045650 0.784910 0.163740 -0.534404
O12   O     O_R   0.954350 0.784910 0.836260 -0.539253
O13   O     O_R   0.677950 0.374280 0.185410 -0.500652
O14   O     O_R   0.322050 0.374280 0.814590 -0.486053
O15   O     O_R   0.177950 0.874280 0.185410 -0.500808
O16   O     O_R   0.822050 0.874280 0.814590 -0.486612
O17   O     O_3   0.664670 0.164660 0.254930 -0.255332
O18   O     O_3   0.335330 0.164660 0.745070 -0.292599
O19   O     O_3   0.164670 0.664660 0.254930 -0.254276
O20   O     O_3   0.835330 0.664660 0.745070 -0.292172
O21   O     O_R   0.760020 0.037400 0.337700 -0.515400
O22   O     O_R   0.239980 0.037400 0.662300 -0.511216
O23   O     O_R   0.260020 0.537400 0.337700 -0.515050
O24   O     O_R   0.739980 0.537400 0.662300 -0.509820
O25   O     O_R   0.666600 0.921990 0.332020 -0.525203
O26   O     O_R   0.333400 0.921990 0.667980 -0.518728
O27   O     O_R   0.166600 0.421990 0.332020 -0.525964
O28   O     O_R   0.833400 0.421990 0.667980 -0.519002
O29   O     O_R   0.557260 0.082670 0.312540 -0.497991
O30   O     O_R   0.442740 0.082670 0.687460 -0.496710
O31   O     O_R   0.057260 0.582670 0.312540 -0.497298
O32   O     O_R   0.942740 0.582670 0.687460 -0.496323
O33   O     O_R   0.548410 0.285740 0.316480 -0.514309
O34   O     O_R   0.451590 0.285740 0.683520 -0.512236
O35   O     O_R   0.048410 0.785740 0.316480 -0.514450
O36   O     O_R   0.951590 0.785740 0.683520 -0.511727
O37   O     O_R   0.680500 0.375040 0.327000 -0.505502
O38   O     O_R   0.319500 0.375040 0.673000 -0.497714
O39   O     O_R   0.180500 0.875040 0.327000 -0.506775
O40   O     O_R   0.819500 0.875040 0.673000 -0.498331
O41   O     O_R   0.780350 0.286720 0.192720 -0.507301
O42   O     O_R   0.219650 0.286720 0.807280 -0.502448
O43   O     O_R   0.280350 0.786720 0.192720 -0.507191
O44   O     O_R   0.719650 0.786720 0.807280 -0.503042
O45   O     O_R   0.757470 0.036630 0.196110 -0.495767
O46   O     O_R   0.242530 0.036630 0.803890 -0.500616
O47   O     O_R   0.257470 0.536630 0.196110 -0.496463
O48   O     O_R   0.742530 0.536630 0.803890 -0.500859
O49   O     O_R   0.663840 0.921160 0.179280 -0.513580
O50   O     O_R   0.336160 0.921160 0.820720 -0.497381
O51   O     O_R   0.163840 0.421160 0.179280 -0.514002
O52   O     O_R   0.836160 0.421160 0.820720 -0.497856
C97   C     C_3   0.575552 0.359642 0.934416 -0.417512
H69   H     H_    0.579733 0.457137 0.946344 0.134074
H70   H     H_    0.622390 0.314789 0.960170 0.137356
H71   H     H_    0.575460 0.349390 0.878388 0.170148
C98   C     C_3   0.450977 0.387803 0.058452 -0.412380
H72   H     H_    0.458473 0.483759 0.045385 0.128855
H73   H     H_    0.401067 0.358534 0.031082 0.135981
H74   H     H_    0.445983 0.383115 0.113810 0.172597
C99   C     C_3   0.075550 0.859646 0.934417 -0.417499
H75   H     H_    0.079730 0.957140 0.946346 0.134053
H76   H     H_    0.122388 0.814792 0.960169 0.137381
H77   H     H_    0.075457 0.849397 0.878388 0.170195
C100  C     C_3   0.950976 0.887803 0.058452 -0.412371
H78   H     H_    0.958470 0.983758 0.045383 0.128818
H79   H     H_    0.901065 0.858530 0.031085 0.135994
H80   H     H_    0.945984 0.883117 0.113811 0.172674

loop_
_geom_bond_atom_site_label_1
_geom_bond_atom_site_label_2
_ccdc_geom_bond_type
C94   H38   S    
C39   C51   S    
C58   C62   S    
C47   O35   A    
C76   O52   A    
C77   O9    A    
C14   C18   S    
C35   C36   S    
C8    C96   S    
C14   H62   S    
C11   H11   S    
Cr11  O19   S    
C9    C25   S    
Cr10  O18   S    
C31   H67   S    
C76   O48   A    
C67   C83   S    
C32   H68   S    
C11   C19   S    
C79   O11   A    
C48   O32   A    
C12   C28   S    
C42   H25   S    
Cr7   O7    S    
C36   C100  S    
Cr8   O28   S    
C13   C29   S    
C8    H44   S    
C10   C18   S    
C97   H71   S    
C73   O45   A    
C16   H60   S    
C7    C23   S    
C35   C99   S    
C4    O28   A    
Cr11  O35   S    
Cr4   O48   S    
C33   C49   S    
C6    C22   S    
Cr3   O19   S    
Cr6   O50   S    
C86   C89   T    
C3    O27   A    
C49   C78   S    
Cr2   O18   S    
C3    C18   S    
Cr5   O49   S    
C100  H78   S    
C95   H3    S    
Cr1   O17   S    
C37   C42   S    
C51   C80   S    
C21   C25   S    
C84   O44   A    
C59   C67   T    
C12   H12   S    
C5    H41   S    
Cr1   O1    S    
C58   C66   T    
C40   C43   S    
C19   C95   S    
C48   O36   A    
Cr1   O45   S    
C6    C94   S    
C55   C63   T    
C77   O5    A    
C56   C64   T    
C93   H37   S    
C78   O10   A    
Cr8   O32   S    
C23   C27   S    
Cr2   O2    S    
C52   C79   S    
C93   H1    S    
C98   H72   S    
C75   O47   A    
C41   H29   S    
C36   C52   S    
C16   C20   S    
C46   C85   S    
C69   O1    A    
C44   C52   S    
C44   H27   S    
C13   H61   S    
C40   H24   S    
C1    O25   A    
C44   H32   S    
Cr3   O23   S    
C87   C92   T    
C82   O14   A    
C55   C74   S    
C15   H59   S    
Cr12  O20   S    
C36   H20   S    
Cr7   O19   S    
C14   C30   S    
C33   C97   S    
Cr6   O18   S    
C31   H7    S    
C41   H26   S    
Cr12  O36   S    
Cr5   O17   S    
Cr8   O52   S    
Cr4   O20   S    
C24   C72   S    
C80   O12   A    
Cr10  O38   S    
Cr3   O47   S    
C34   C50   S    
Cr9   O37   S    
C37   H34   S    
Cr2   O22   S    
C28   H54   S    
C68   C84   S    
Cr1   O21   S    
C95   H39   S    
Cr10  O10   S    
C38   C41   S    
C29   H65   S    
C91   C92   S    
Cr6   O30   S    
C27   H15   S    
C70   O2    A    
C54   C62   T    
C46   O34   A    
C21   C29   S    
C15   C31   S    
C94   H2    S    
C10   C26   S    
C45   O33   A    
C96   H40   S    
C21   C69   S    
C100  H79   S    
Cr6   O6    S    
C15   C19   S    
C24   C32   S    
Cr3   O3    S    
C97   H69   S    
C10   H10   S    
C23   C71   S    
C66   C82   S    
C96   H4    S    
C16   H64   S    
C13   H57   S    
C82   O42   A    
C88   C91   T    
C11   C27   S    
C34   H18   S    
C81   O41   A    
C12   C20   S    
C22   C70   S    
C33   H17   S    
C33   C34   S    
Cr8   O20   S    
C48   C87   S    
C69   O37   A    
Cr12  O40   S    
C32   H8    S    
C3    O23   A    
C35   H19   S    
C7    H47   S    
C98   H73   S    
C81   O13   A    
C37   C49   S    
C6    H46   S    
C22   C26   S    
Cr5   O29   S    
C42   C50   S    
C7    H43   S    
C4    C17   S    
Cr4   O24   S    
C9    C17   S    
C72   O40   A    
Cr3   O43   S    
C25   H13   S    
Cr2   O42   S    
C35   C51   S    
C15   H63   S    
C38   H33   S    
Cr1   O41   S    
C99   H77   S    
C53   C76   S    
C17   C93   S    
Cr10  O14   S    
Cr9   O33   S    
C53   C61   T    
Cr4   O4    S    
C50   C77   S    
C10   H52   S    
Cr5   O5    S    
C11   H49   S    
C30   H6    S    
C83   O15   A    
C46   O30   A    
C29   H5    S    
C1    C20   S    
C45   O29   A    
C56   C73   S    
C22   C30   S    
Cr8   O8    S    
C2    C19   S    
C2    O22   A    
Cr12  O12   S    
C1    O21   A    
C24   C28   S    
Cr7   O31   S    
Cr11  O39   S    
C5    C93   S    
C85   C90   T    
C28   H16   S    
C57   C61   S    
C39   C44   S    
C38   C50   S    
C47   O31   A    
C43   H31   S    
C16   C32   S    
C41   C49   S    
C7    C95   S    
C74   O46   A    
C59   C63   S    
C6    H42   S    
C38   H22   S    
C13   C17   S    
C60   C64   S    
C100  H80   S    
C12   H50   S    
C47   C88   S    
C72   O4    A    
C99   H76   S    
C45   C86   S    
Cr6   O26   S    
C97   H70   S    
C40   C52   S    
C27   H53   S    
C73   O49   A    
Cr9   O17   S    
C43   C51   S    
C39   H23   S    
C30   H66   S    
C25   H55   S    
C71   O39   A    
Cr2   O46   S    
C75   O51   A    
C2    O26   A    
C8    C24   S    
Cr9   O13   S    
C79   O7    A    
C84   O16   A    
C70   O38   A    
C80   O8    A    
C20   C96   S    
C43   H28   S    
C8    H48   S    
C98   H74   S    
Cr7   O27   S    
C26   H56   S    
Cr9   O9    S    
C60   C68   T    
C71   O3    A    
C54   C75   S    
C5    H45   S    
C4    O24   A    
C5    C21   S    
C39   H36   S    
Cr4   O44   S    
C74   O50   A    
C14   H58   S    
C83   O43   A    
C40   H35   S    
Cr11  O15   S    
C18   C94   S    
C9    H51   S    
C65   C81   S    
Cr12  O16   S    
Cr11  O11   S    
Cr5   O25   S    
C42   H30   S    
C26   H14   S    
C78   O6    A    
C89   C90   S    
C99   H75   S    
C34   C98   S    
Cr7   O51   S    
C37   H21   S    
C9    H9    S    
C23   C31   S    
C57   C65   T    
Cr10  O34   S    
