data_mof_unit_63350.cif
_audit_creation_date              2012-12-10T16:59:48-0500
_audit_creation_method            fapswitch 2.2
_symmetry_space_group_name_H-M    P1
_symmetry_Int_Tables_number       1
_space_group_crystal_system       triclinic
_cell_length_a                    21.7199
_cell_length_b                    21.737996
_cell_length_c                    47.219061
_cell_angle_alpha                 89.956385
_cell_angle_beta                  89.93892
_cell_angle_gamma                 89.54493
_cell_volume                      22293.6205078

loop_
_atom_site_label
_atom_site_type_symbol
_atom_type_description
_atom_site_fract_x
_atom_site_fract_y
_atom_site_fract_z
_atom_type_partial_charge
C1    C     C_R   0.619003 0.499082 0.000114 0.837620
C2    C     C_R   0.502333 0.618890 0.000093 0.850250
C3    C     C_R   0.381003 0.501107 0.000146 0.842060
C4    C     C_R   0.497633 0.381105 0.000116 0.851337
C5    C     C_R   0.118947 0.998781 0.500096 0.831909
C6    C     C_R   0.002294 0.118889 0.500091 0.852004
C7    C     C_R   0.881000 0.001211 0.500145 0.844417
C8    C     C_R   0.998194 0.881076 0.500144 0.831372
C9    C     C_R   0.560837 0.780551 0.000145 -0.083365
C10   C     C_R   0.219042 0.558787 0.996574 -0.083762
C11   C     C_R   0.439136 0.219484 0.000288 -0.085711
C12   C     C_R   0.780976 0.441233 0.996293 -0.085372
C13   C     C_R   0.060861 0.280528 0.499785 -0.083310
C14   C     C_R   0.719003 0.058869 0.497060 -0.083357
C15   C     C_R   0.939888 0.719814 0.498875 -0.085589
C16   C     C_R   0.281029 0.940652 0.496854 -0.084947
C17   C     C_R   0.556079 0.718914 0.009222 -0.071600
C18   C     C_R   0.280076 0.555145 0.006530 -0.033823
C19   C     C_R   0.443943 0.281040 0.009407 -0.046817
C20   C     C_R   0.719834 0.444807 0.006201 -0.057364
C21   C     C_R   0.056306 0.218878 0.508879 -0.071379
C22   C     C_R   0.779994 0.054904 0.507030 -0.034202
C23   C     C_R   0.944506 0.781135 0.508337 -0.039204
C24   C     C_R   0.219529 0.944107 0.506377 -0.062254
C25   C     C_R   0.503293 0.685905 0.000049 -0.059047
C26   C     C_R   0.313897 0.500362 0.000354 -0.066805
C27   C     C_R   0.496702 0.314077 0.000123 -0.054293
C28   C     C_R   0.686124 0.499736 0.000230 -0.066686
C29   C     C_R   0.003250 0.185903 0.500046 -0.058954
C30   C     C_R   0.813888 0.000441 0.500343 -0.067583
C31   C     C_R   0.998395 0.814041 0.500319 -0.065548
C32   C     C_R   0.185965 0.999033 0.500124 -0.066160
C33   C     C_R   0.453926 0.717265 0.986697 0.128526
C34   C     C_R   0.282961 0.447916 0.989687 0.126988
C35   C     C_R   0.545963 0.282739 0.986635 0.144165
C36   C     C_R   0.717210 0.552263 0.989688 0.143099
C37   C     C_R   0.953501 0.217263 0.487013 0.128617
C38   C     C_R   0.783044 0.948494 0.489107 0.125883
C39   C     C_R   0.049321 0.782249 0.488127 0.144685
C40   C     C_R   0.217086 0.051408 0.489420 0.145590
C41   C     C_R   0.452852 0.781352 0.986708 -0.213898
C42   C     C_R   0.218899 0.448528 0.988627 -0.181205
C43   C     C_R   0.547078 0.218670 0.986684 -0.207089
C44   C     C_R   0.781260 0.551613 0.988679 -0.174603
C45   C     C_R   0.952516 0.281353 0.486955 -0.212707
C46   C     C_R   0.718947 0.948976 0.488142 -0.184516
C47   C     C_R   0.048804 0.718278 0.487306 -0.180290
C48   C     C_R   0.281098 0.050852 0.488489 -0.176477
C49   C     C_R   0.505407 0.813770 0.994188 -0.125864
C50   C     C_R   0.186106 0.502981 0.993189 -0.141906
C51   C     C_R   0.494555 0.186254 0.994253 -0.125508
C52   C     C_R   0.813976 0.497076 0.993116 -0.144234
C53   C     C_R   0.005302 0.313765 0.494113 -0.126538
C54   C     C_R   0.686107 0.003163 0.493245 -0.139848
C55   C     C_R   0.995331 0.686230 0.493716 -0.138997
C56   C     C_R   0.313891 0.996585 0.493308 -0.143312
C57   C     C_R   0.499908 0.000012 0.085950 -0.044618
C58   C     C_R   0.000021 0.499937 0.085945 -0.044965
C59   C     C_R   0.999907 0.500006 0.585950 -0.044728
C60   C     C_R   0.500017 0.999937 0.585944 -0.044851
C61   C     C_R   0.499971 1.000000 0.054610 0.801215
C62   C     C_R   0.000004 0.499980 0.054604 0.803315
C63   C     C_R   0.999971 0.499999 0.554610 0.801933
C64   C     C_R   0.500002 0.999980 0.554604 0.802973
C65   C     C_R   0.500989 0.881065 0.997677 0.799471
C66   C     C_R   0.118809 0.500371 0.997211 0.800758
C67   C     C_R   0.499006 0.118947 0.997704 0.802237
C68   C     C_R   0.881220 0.499640 0.997197 0.801087
C69   C     C_R   0.000972 0.381068 0.497645 0.799405
C70   C     C_R   0.618814 0.000398 0.497233 0.800541
C71   C     C_R   0.999125 0.618898 0.497449 0.802221
C72   C     C_R   0.381176 0.999555 0.497285 0.800509
C73   C     C_R   0.041746 0.462035 0.899402 -0.034506
C74   C     C_R   0.537786 0.041479 0.899384 -0.033054
C75   C     C_R   0.958122 0.538123 0.899459 -0.034461
C76   C     C_R   0.462447 0.958380 0.899447 -0.033576
C77   C     C_R   0.541741 0.962008 0.399403 -0.034477
C78   C     C_R   0.037758 0.541492 0.399384 -0.034463
C79   C     C_R   0.458170 0.038155 0.399455 -0.034371
C80   C     C_R   0.962463 0.458356 0.399449 -0.033230
C81   C     C_R   0.555519 0.995351 0.101073 -0.199935
C82   C     C_R   0.004327 0.555472 0.101064 -0.199513
C83   C     C_R   0.444242 0.004695 0.101081 -0.198935
C84   C     C_R   0.995737 0.444368 0.101082 -0.199295
C85   C     C_R   0.055519 0.495355 0.601074 -0.199992
C86   C     C_R   0.504399 0.055466 0.601063 -0.199483
C87   C     C_R   0.944240 0.504673 0.601081 -0.198837
C88   C     C_R   0.495653 0.944374 0.601081 -0.199504
C89   C     C_R   0.500029 0.999992 0.945580 0.890130
C90   C     C_R   0.999996 0.500020 0.945588 0.886222
C91   C     C_R   0.000028 0.499988 0.445580 0.889233
C92   C     C_R   0.499999 0.000021 0.445588 0.886793
C93   C     C_R   0.999960 0.500066 0.914290 -0.090306
C94   C     C_R   0.500093 0.999948 0.914278 -0.092492
C95   C     C_R   0.499974 0.000067 0.414289 -0.090624
C96   C     C_R   0.000090 0.499943 0.414278 -0.091943
C97   C     C_R   0.027201 0.547437 0.809975 0.651738
C98   C     C_R   0.452597 0.027700 0.810016 0.651646
C99   C     C_R   0.972366 0.452835 0.810045 0.651704
C100  C     C_R   0.547683 0.972100 0.809981 0.651655
C101  C     C_R   0.527239 0.047433 0.309974 0.651782
C102  C     C_R   0.952544 0.527611 0.310016 0.651800
C103  C     C_R   0.472405 0.952832 0.310043 0.651813
C104  C     C_R   0.047719 0.472166 0.309982 0.651715
C105  C     C_R   0.971970 0.451819 0.780252 -0.064267
C106  C     C_R   0.548681 0.971702 0.780188 -0.064274
C107  C     C_R   0.027545 0.548456 0.780181 -0.064315
C108  C     C_R   0.451558 0.028068 0.780224 -0.064274
C109  C     C_R   0.472004 0.951817 0.280251 -0.064334
C110  C     C_R   0.048721 0.471773 0.280188 -0.064259
C111  C     C_R   0.527577 0.048455 0.280180 -0.064297
C112  C     C_R   0.951506 0.527979 0.280224 -0.064314
C113  C     C_R   0.999749 0.500135 0.765189 -0.019087
C114  C     C_R   0.500108 0.999877 0.765179 -0.019130
C115  C     C_R   0.499778 0.000136 0.265188 -0.019090
C116  C     C_R   0.000104 0.499869 0.265179 -0.019107
C117  C     C_R   0.944386 0.403643 0.765382 -0.254494
C118  C     C_R   0.597085 0.943723 0.765264 -0.254571
C119  C     C_R   0.055104 0.596633 0.765241 -0.254422
C120  C     C_R   0.403130 0.056029 0.765337 -0.254458
C121  C     C_R   0.444418 0.903641 0.265381 -0.254294
C122  C     C_R   0.097173 0.443876 0.265265 -0.254420
C123  C     C_R   0.555131 0.096635 0.265239 -0.254362
C124  C     C_R   0.903032 0.555859 0.265337 -0.254303
C125  C     C_R   0.444039 0.902588 0.235606 0.447603
C126  C     C_R   0.098204 0.443491 0.235489 0.447530
C127  C     C_R   0.555471 0.097682 0.235463 0.447503
C128  C     C_R   0.901963 0.556218 0.235562 0.447578
C129  C     C_R   0.944015 0.402587 0.735607 0.447586
C130  C     C_R   0.598112 0.943333 0.735488 0.447497
C131  C     C_R   0.055453 0.597674 0.735465 0.447501
C132  C     C_R   0.402058 0.056387 0.735563 0.447550
C133  C     C_R   0.471926 0.951155 0.220279 -0.040355
C134  C     C_R   0.049335 0.471695 0.220216 -0.040311
C135  C     C_R   0.527579 0.049103 0.220208 -0.040579
C136  C     C_R   0.950816 0.528005 0.220253 -0.040580
C137  C     C_R   0.971908 0.451149 0.720280 -0.040322
C138  C     C_R   0.549288 0.971617 0.720216 -0.040339
C139  C     C_R   0.027564 0.549095 0.720209 -0.040597
C140  C     C_R   0.450862 0.028091 0.720254 -0.040574
C141  C     C_R   0.499760 0.000132 0.235196 -0.153350
C142  C     C_R   0.000085 0.499856 0.235187 -0.153375
C143  C     C_R   0.999739 0.500127 0.735197 -0.153373
C144  C     C_R   0.500086 0.999861 0.735187 -0.153406
C145  C     C_R   0.473068 0.952298 0.190364 0.574124
C146  C     C_R   0.048146 0.472832 0.190303 0.574088
C147  C     C_R   0.526436 0.047932 0.190296 0.574228
C148  C     C_R   0.951973 0.526858 0.190340 0.574380
C149  C     C_R   0.973058 0.452289 0.690365 0.574077
C150  C     C_R   0.548099 0.972753 0.690303 0.574048
C151  C     C_R   0.026429 0.547920 0.690297 0.574250
C152  C     C_R   0.452014 0.026938 0.690341 0.574301
C153  C     C_R   0.499805 0.000067 0.145643 0.324791
C154  C     C_R   0.000053 0.499872 0.145637 0.324841
C155  C     C_R   0.999801 0.500055 0.645643 0.324787
C156  C     C_R   0.500046 0.999872 0.645637 0.324907
C157  C     C_R   0.999856 0.500114 0.854748 0.250378
C158  C     C_R   0.500153 0.999902 0.854735 0.250247
C159  C     C_R   0.499890 0.000114 0.354747 0.250291
C160  C     C_R   0.000144 0.499894 0.354735 0.250253
C161  C     C_R   0.041665 0.462107 0.869346 0.354686
C162  C     C_R   0.537771 0.041420 0.869328 0.354285
C163  C     C_R   0.958100 0.538101 0.869404 0.354784
C164  C     C_R   0.462522 0.958394 0.869392 0.354316
C165  C     C_R   0.541670 0.962080 0.369348 0.354777
C166  C     C_R   0.037740 0.541433 0.369328 0.354633
C167  C     C_R   0.458157 0.038130 0.369399 0.354799
C168  C     C_R   0.962535 0.458367 0.369394 0.354382
C169  C     C_R   0.555405 0.995270 0.130662 -0.091383
C170  C     C_R   0.004446 0.555376 0.130652 -0.091247
C171  C     C_R   0.444254 0.004831 0.130671 -0.090830
C172  C     C_R   0.995649 0.444400 0.130671 -0.090707
C173  C     C_R   0.055404 0.495270 0.630662 -0.091324
C174  C     C_R   0.504518 0.055369 0.630652 -0.091265
C175  C     C_R   0.944251 0.504807 0.630671 -0.090761
C176  C     C_R   0.495563 0.944406 0.630671 -0.090815
C177  C     C_R   0.605687 0.693043 0.025351 0.390013
C178  C     C_R   0.304871 0.607252 0.020795 0.320664
C179  C     C_R   0.394482 0.306812 0.025720 0.326637
C180  C     C_R   0.694740 0.392421 0.020135 0.385598
C181  C     C_R   0.106282 0.192939 0.524729 0.389454
C182  C     C_R   0.804710 0.106546 0.521691 0.320980
C183  C     C_R   0.894055 0.806837 0.524018 0.326601
C184  C     C_R   0.194236 0.891747 0.520426 0.390112
C185  C     C_R   0.661025 0.726524 0.028325 0.014066
C186  C     C_R   0.272922 0.664569 0.019360 0.012039
C187  C     C_R   0.338814 0.273299 0.028589 0.012309
C188  C     C_R   0.725937 0.335081 0.018247 0.012751
C189  C     C_R   0.161734 0.226346 0.527401 0.014250
C190  C     C_R   0.772786 0.163913 0.520598 0.011897
C191  C     C_R   0.837813 0.773902 0.525670 0.010415
C192  C     C_R   0.227807 0.835586 0.520647 0.012983
C193  C     C_R   0.669196 0.780370 0.012816 -0.233852
C194  C     C_R   0.220124 0.669690 0.002875 -0.140515
C195  C     C_R   0.330746 0.219826 0.012988 -0.142762
C196  C     C_R   0.779238 0.330085 0.001896 -0.229182
C197  C     C_R   0.169538 0.280246 0.511884 -0.233404
C198  C     C_R   0.720086 0.169567 0.504084 -0.140975
C199  C     C_R   0.830556 0.720818 0.509694 -0.142921
C200  C     C_R   0.281504 0.830168 0.504638 -0.230511
C201  C     C_R   0.620934 0.805496 0.997258 0.434859
C202  C     C_R   0.194191 0.618078 0.990439 0.397836
C203  C     C_R   0.379023 0.194680 0.997413 0.397703
C204  C     C_R   0.805795 0.382006 0.989940 0.435042
C205  C     C_R   0.120887 0.305483 0.496615 0.434776
C206  C     C_R   0.694226 0.118359 0.491272 0.397802
C207  C     C_R   0.879937 0.695320 0.494986 0.398782
C208  C     C_R   0.306545 0.881308 0.491389 0.437097
Cu1   Cu    Cu3+1 0.500000 0.500000 0.971900 1.026492
Cu2   Cu    Cu3+1 0.000000 0.000000 0.471900 1.022224
Cu3   Cu    Cu3+1 0.500000 0.500000 0.028180 1.115830
Cu4   Cu    Cu3+1 0.000000 0.000000 0.528180 1.116037
Cu5   Cu    Cu3+1 0.438160 0.999960 0.000050 1.023277
Cu6   Cu    Cu3+1 0.000040 0.438160 0.000050 1.020092
Cu7   Cu    Cu3+1 0.561840 0.000040 0.000050 1.015991
Cu8   Cu    Cu3+1 0.999960 0.561840 0.000050 1.017169
Cu9   Cu    Cu3+1 0.938160 0.499960 0.500050 1.023190
Cu10  Cu    Cu3+1 0.500040 0.938160 0.500050 1.020302
Cu11  Cu    Cu3+1 0.061840 0.500040 0.500050 1.016237
Cu12  Cu    Cu3+1 0.499960 0.061840 0.500050 1.017316
H1    H     H_    0.598582 0.991316 0.141986 0.151160
H2    H     H_    0.008114 0.598489 0.141974 0.151396
H3    H     H_    0.401039 0.008807 0.142003 0.151972
H4    H     H_    0.991990 0.401262 0.142008 0.151657
H5    H     H_    0.098581 0.491325 0.641988 0.151138
H6    H     H_    0.508248 0.098477 0.641973 0.151377
H7    H     H_    0.901034 0.508773 0.642002 0.151953
H8    H     H_    0.491842 0.901275 0.642007 0.151563
H9    H     H_    0.922939 0.366397 0.776912 0.187416
H10   H     H_    0.634530 0.921973 0.776753 0.187457
H11   H     H_    0.076557 0.633885 0.776717 0.187506
H12   H     H_    0.365701 0.077788 0.776855 0.187524
H13   H     H_    0.422975 0.866393 0.276911 0.187541
H14   H     H_    0.134653 0.422189 0.276754 0.187497
H15   H     H_    0.576585 0.133888 0.276714 0.187520
H16   H     H_    0.865566 0.577555 0.276853 0.187574
H17   H     H_    0.599145 0.991535 0.090070 0.166739
H18   H     H_    0.007824 0.599025 0.090059 0.167389
H19   H     H_    0.400656 0.008494 0.090083 0.168464
H20   H     H_    0.992229 0.400841 0.090090 0.167676
H21   H     H_    0.099147 0.491551 0.590071 0.166681
H22   H     H_    0.507960 0.099012 0.590058 0.167401
H23   H     H_    0.900654 0.508462 0.590083 0.168407
H24   H     H_    0.492082 0.900854 0.590089 0.167514
H25   H     H_    0.714059 0.801767 0.012124 0.180532
H26   H     H_    0.199410 0.714545 0.999324 0.192366
H27   H     H_    0.285863 0.198474 0.012295 0.192533
H28   H     H_    0.799609 0.285209 0.998027 0.180483
H29   H     H_    0.214387 0.301633 0.510975 0.180552
H30   H     H_    0.699438 0.214541 0.500784 0.192388
H31   H     H_    0.785624 0.699764 0.508205 0.192679
H32   H     H_    0.303328 0.785535 0.502033 0.180622
H33   H     H_    0.412074 0.805883 0.979594 0.164285
H34   H     H_    0.194789 0.406565 0.983426 0.172844
H35   H     H_    0.587812 0.194159 0.979478 0.157010
H36   H     H_    0.805423 0.593661 0.983623 0.168160
H37   H     H_    0.911540 0.305884 0.480087 0.164438
H38   H     H_    0.694843 0.907289 0.482487 0.171436
H39   H     H_    0.089944 0.693576 0.480735 0.165368
H40   H     H_    0.305212 0.092800 0.483205 0.167706
N1    N     N_R   0.999801 0.500133 0.824242 -0.413549
N2    N     N_R   0.500148 0.999905 0.824229 -0.413356
N3    N     N_R   0.499841 0.000128 0.324240 -0.413589
N4    N     N_R   0.000139 0.499894 0.324230 -0.413459
N5    N     N_R   0.499760 0.000104 0.176171 -0.496600
N6    N     N_R   0.000055 0.499846 0.176164 -0.496609
N7    N     N_R   0.999754 0.500092 0.676172 -0.496600
N8    N     N_R   0.500050 0.999846 0.676164 -0.496611
O1    O     O_R   0.590150 0.499950 0.976270 -0.594149
O2    O     O_R   0.500050 0.590150 0.976270 -0.581036
O3    O     O_R   0.409850 0.500050 0.976270 -0.592144
O4    O     O_R   0.499950 0.409850 0.976270 -0.583207
O5    O     O_R   0.090150 0.999950 0.476270 -0.598930
O6    O     O_R   0.000050 0.090150 0.476270 -0.580477
O7    O     O_R   0.909850 0.000050 0.476270 -0.588256
O8    O     O_R   0.999950 0.909850 0.476270 -0.595438
O9    O     O_R   0.590130 0.499930 0.023800 -0.512922
O10   O     O_R   0.500070 0.590130 0.023800 -0.516705
O11   O     O_R   0.409870 0.500070 0.023800 -0.514638
O12   O     O_R   0.499930 0.409870 0.023800 -0.512205
O13   O     O_R   0.090130 0.999930 0.523800 -0.511391
O14   O     O_R   0.000070 0.090130 0.523800 -0.517540
O15   O     O_R   0.909870 0.000070 0.523800 -0.513935
O16   O     O_R   0.999930 0.909870 0.523800 -0.507420
O17   O     O_R   0.447770 0.999940 0.041110 -0.582478
O18   O     O_R   0.000060 0.447770 0.041110 -0.583385
O19   O     O_R   0.552230 0.000060 0.041110 -0.583999
O20   O     O_R   0.999940 0.552230 0.041110 -0.583960
O21   O     O_R   0.947770 0.499940 0.541110 -0.582657
O22   O     O_R   0.500060 0.947770 0.541110 -0.583371
O23   O     O_R   0.052230 0.500060 0.541110 -0.583969
O24   O     O_R   0.499940 0.052230 0.541110 -0.583892
O25   O     O_R   0.447760 0.909780 0.000050 -0.579959
O26   O     O_R   0.090220 0.447760 0.000050 -0.583811
O27   O     O_R   0.552240 0.090220 0.000050 -0.582725
O28   O     O_R   0.909780 0.552240 0.000050 -0.585335
O29   O     O_R   0.947760 0.409780 0.500050 -0.580331
O30   O     O_R   0.590220 0.947760 0.500050 -0.583144
O31   O     O_R   0.052240 0.590220 0.500050 -0.584157
O32   O     O_R   0.409780 0.052240 0.500050 -0.584874
O33   O     O_R   0.552140 0.909770 0.000040 -0.555615
O34   O     O_R   0.090230 0.552140 0.000040 -0.551659
O35   O     O_R   0.447860 0.090230 0.000040 -0.553903
O36   O     O_R   0.909770 0.447860 0.000040 -0.552469
O37   O     O_R   0.052140 0.409770 0.500040 -0.555428
O38   O     O_R   0.590230 0.052140 0.500040 -0.552010
O39   O     O_R   0.947860 0.590230 0.500040 -0.552267
O40   O     O_R   0.409770 0.947860 0.500040 -0.552917
O41   O     O_R   0.447770 0.999980 0.958990 -0.563556
O42   O     O_R   0.000020 0.447770 0.958990 -0.561603
O43   O     O_R   0.552230 0.000020 0.958990 -0.564494
O44   O     O_R   0.999980 0.552230 0.958990 -0.562025
O45   O     O_R   0.947770 0.499980 0.458990 -0.562985
O46   O     O_R   0.500020 0.947770 0.458990 -0.561834
O47   O     O_R   0.052230 0.500020 0.458990 -0.564246
O48   O     O_R   0.499980 0.052230 0.458990 -0.562272
O49   O     O_2   0.054156 0.593225 0.824594 -0.515705
O50   O     O_2   0.406578 0.055012 0.824686 -0.516164
O51   O     O_2   0.945437 0.407046 0.824731 -0.515919
O52   O     O_2   0.593720 0.944801 0.824618 -0.516363
O53   O     O_2   0.554197 0.093220 0.324592 -0.515691
O54   O     O_2   0.906480 0.554850 0.324685 -0.515787
O55   O     O_2   0.445477 0.907042 0.324730 -0.515570
O56   O     O_2   0.093799 0.444939 0.324619 -0.516139
O57   O     O_2   0.448271 0.905819 0.175412 -0.451077
O58   O     O_2   0.094857 0.447702 0.175299 -0.451385
O59   O     O_2   0.551231 0.094398 0.175277 -0.450265
O60   O     O_2   0.905246 0.551980 0.175372 -0.450186
O61   O     O_2   0.948263 0.405808 0.675413 -0.451172
O62   O     O_2   0.594767 0.947546 0.675298 -0.451318
O63   O     O_2   0.051230 0.594385 0.675279 -0.450162
O64   O     O_2   0.405326 0.052135 0.675373 -0.450242
N9    N     N_3   0.084885 0.425209 0.915169 -0.578516
H41   H     H_    0.078116 0.378885 0.910232 0.243618
H42   H     H_    0.129595 0.437926 0.909566 0.225802
N10   N     N_3   0.574189 0.084355 0.915145 -0.581598
H43   H     H_    0.620631 0.077308 0.910190 0.240914
H44   H     H_    0.561040 0.129110 0.909557 0.223531
N11   N     N_3   0.915030 0.574913 0.915287 -0.579381
H45   H     H_    0.921775 0.621248 0.910324 0.243253
H46   H     H_    0.870304 0.562199 0.909763 0.225343
N12   N     N_3   0.426019 0.915521 0.915271 -0.580204
H47   H     H_    0.379586 0.922549 0.910334 0.241981
H48   H     H_    0.439191 0.870760 0.909723 0.223983
N13   N     N_3   0.584851 0.925155 0.415173 -0.578689
H49   H     H_    0.578053 0.878835 0.410237 0.243544
H50   H     H_    0.629571 0.937844 0.409574 0.225874
N14   N     N_3   0.074137 0.584389 0.415144 -0.579848
H51   H     H_    0.120583 0.577366 0.410190 0.242141
H52   H     H_    0.060963 0.629136 0.409554 0.225789
N15   N     N_3   0.415100 0.074979 0.415278 -0.579141
H53   H     H_    0.421882 0.121308 0.410315 0.243103
H54   H     H_    0.370366 0.062297 0.409752 0.225577
N16   N     N_3   0.926058 0.415480 0.415275 -0.580107
H55   H     H_    0.879621 0.422486 0.410340 0.242163
H56   H     H_    0.939250 0.370725 0.409726 0.223990
O65   O     O_3   0.416500 0.854592 0.221337 -0.653669
H57   H     H_    0.399433 0.824918 0.235182 0.327714
O66   O     O_3   0.146475 0.415641 0.221168 -0.653886
H58   H     H_    0.176339 0.398382 0.234979 0.327663
O67   O     O_3   0.582983 0.145680 0.221124 -0.653364
H59   H     H_    0.600057 0.175363 0.234925 0.327828
O68   O     O_3   0.853673 0.584054 0.221276 -0.653351
H60   H     H_    0.823825 0.601322 0.235110 0.327838
O69   O     O_3   0.916477 0.354591 0.721338 -0.653780
H61   H     H_    0.899405 0.324921 0.735182 0.327609
O70   O     O_3   0.646334 0.915399 0.721166 -0.653870
H62   H     H_    0.676170 0.898090 0.734977 0.327648
O71   O     O_3   0.082971 0.645668 0.721127 -0.653338
H63   H     H_    0.100043 0.675352 0.734927 0.327820
O72   O     O_3   0.353814 0.084304 0.721278 -0.653393
H64   H     H_    0.323997 0.101625 0.735111 0.327793
N17   N     N_3   0.405731 0.683880 0.972787 -0.558883
H65   H     H_    0.371966 0.713935 0.964967 0.223748
H66   H     H_    0.384438 0.656352 0.987811 0.213218
N18   N     N_3   0.314729 0.394014 0.979330 -0.563533
H67   H     H_    0.295499 0.355433 0.988959 0.217687
H68   H     H_    0.361083 0.393680 0.984959 0.217129
N19   N     N_3   0.593909 0.316114 0.972483 -0.559921
H69   H     H_    0.627521 0.286069 0.964505 0.218349
H70   H     H_    0.615459 0.343547 0.987408 0.220994
N20   N     N_3   0.685733 0.606478 0.979536 -0.566323
H71   H     H_    0.703926 0.644454 0.990005 0.220096
H72   H     H_    0.638904 0.606077 0.984292 0.218201
N21   N     N_3   0.904740 0.183847 0.473552 -0.559741
H73   H     H_    0.870791 0.213901 0.465901 0.224120
H74   H     H_    0.883910 0.156624 0.488833 0.212271
N22   N     N_3   0.815117 0.895696 0.477773 -0.561137
H75   H     H_    0.794336 0.855997 0.485585 0.217755
H76   H     H_    0.860607 0.893704 0.484689 0.217795
N23   N     N_3   0.101286 0.813218 0.475772 -0.561567
H77   H     H_    0.141520 0.791816 0.482957 0.217893
H78   H     H_    0.104135 0.858686 0.482538 0.223937
N24   N     N_3   0.185633 0.105402 0.478978 -0.565651
H79   H     H_    0.204098 0.143691 0.489099 0.219564
H80   H     H_    0.138892 0.105400 0.483915 0.219870
O73   O     O_3   0.598564 0.637215 0.038843 -0.712852
H81   H     H_    0.637930 0.623066 0.047218 0.361633
O74   O     O_3   0.357918 0.600366 0.036633 -0.716422
H82   H     H_    0.370990 0.640044 0.044702 0.327470
O75   O     O_3   0.402592 0.361968 0.039618 -0.715763
H83   H     H_    0.363801 0.376481 0.048341 0.328836
O76   O     O_3   0.641535 0.398632 0.035969 -0.712981
H84   H     H_    0.629402 0.358683 0.044218 0.361273
O77   O     O_3   0.099387 0.137115 0.538256 -0.713574
H85   H     H_    0.138909 0.122960 0.546473 0.361489
O78   O     O_3   0.857657 0.099173 0.537551 -0.715613
H86   H     H_    0.870688 0.138590 0.545899 0.327623
O79   O     O_3   0.901858 0.861151 0.538652 -0.714244
H87   H     H_    0.862586 0.875832 0.546848 0.328478
O80   O     O_3   0.139178 0.897177 0.534891 -0.714338
H88   H     H_    0.125484 0.856586 0.541850 0.360147
N25   N     N_3   0.710551 0.703675 0.045508 -0.590988
H89   H     H_    0.721021 0.737297 0.060536 0.247546
H90   H     H_    0.749274 0.697496 0.032611 0.220899
N26   N     N_3   0.294665 0.719031 0.033069 -0.582242
H91   H     H_    0.297046 0.710920 0.054867 0.244079
H92   H     H_    0.338518 0.729366 0.025369 0.220493
N27   N     N_3   0.288480 0.294079 0.045870 -0.579967
H93   H     H_    0.304057 0.299146 0.066673 0.248887
H94   H     H_    0.272502 0.336502 0.038334 0.216268
N28   N     N_3   0.701317 0.281065 0.031317 -0.596086
H95   H     H_    0.734972 0.262602 0.044742 0.245417
H96   H     H_    0.692555 0.248771 0.015447 0.224194
N29   N     N_3   0.211675 0.203420 0.544308 -0.591433
H97   H     H_    0.222522 0.236982 0.559306 0.247469
H98   H     H_    0.250081 0.197286 0.531208 0.220764
N30   N     N_3   0.794536 0.217963 0.534646 -0.582096
H99   H     H_    0.796827 0.209248 0.556396 0.244096
H100  H     H_    0.838429 0.228462 0.527038 0.220537
N31   N     N_3   0.786363 0.794667 0.542249 -0.580671
H101  H     H_    0.800287 0.798661 0.563350 0.248805
H102  H     H_    0.771584 0.837615 0.534841 0.216432
N32   N     N_3   0.205832 0.783158 0.535949 -0.592980
H103  H     H_    0.239783 0.770042 0.550477 0.247455
H104  H     H_    0.200225 0.746856 0.521693 0.219214
O81   O     O_3   0.635926 0.848532 0.976933 -0.691778
H105  H     H_    0.603069 0.848826 0.962348 0.328602
O82   O     O_3   0.149447 0.628136 0.970176 -0.693228
H106  H     H_    0.147708 0.591480 0.957713 0.327732
O83   O     O_3   0.364030 0.151727 0.977096 -0.692433
H107  H     H_    0.396901 0.151470 0.962486 0.330632
O84   O     O_3   0.850957 0.372370 0.969795 -0.692118
H108  H     H_    0.852979 0.409296 0.957486 0.324938
O85   O     O_3   0.135353 0.348734 0.476305 -0.691630
H109  H     H_    0.102125 0.349184 0.461900 0.328305
O86   O     O_3   0.649764 0.129084 0.470948 -0.693282
H110  H     H_    0.648182 0.092826 0.458234 0.328211
O87   O     O_3   0.866544 0.651740 0.474707 -0.692461
H111  H     H_    0.900735 0.650689 0.460761 0.329660
O88   O     O_3   0.351212 0.870633 0.471120 -0.690947
H112  H     H_    0.352491 0.906693 0.458250 0.325774
O89   O     O_3   0.081665 0.426609 0.853279 -0.698613
H113  H     H_    0.108230 0.401109 0.865611 0.334770
O90   O     O_3   0.572943 0.081178 0.853256 -0.699219
H114  H     H_    0.598198 0.107543 0.865584 0.333846
O91   O     O_3   0.918044 0.573624 0.853392 -0.698669
H115  H     H_    0.891525 0.599107 0.865760 0.334659
O92   O     O_3   0.427381 0.918612 0.853380 -0.698968
H116  H     H_    0.402120 0.892247 0.865749 0.334117
O93   O     O_3   0.581651 0.926555 0.353283 -0.698497
H117  H     H_    0.608200 0.901042 0.365618 0.334821
O94   O     O_3   0.072887 0.581211 0.353256 -0.698664
H118  H     H_    0.098141 0.607580 0.365583 0.334591
O95   O     O_3   0.418129 0.073679 0.353384 -0.698560
H119  H     H_    0.391621 0.099178 0.365750 0.334687
O96   O     O_3   0.927416 0.418563 0.353383 -0.698904
H120  H     H_    0.902157 0.392198 0.365754 0.334163

loop_
_geom_bond_atom_site_label_1
_geom_bond_atom_site_label_2
_ccdc_geom_bond_type
C4    O4    A    
C157  N1    S    
O92   H116  S    
C115  C141  A    
O65   H57   S    
C164  O92   S    
C19   C179  A    
C198  C206  A    
N29   H97   S    
C108  C120  A    
C34   C42   A    
C73   C93   A    
C147  N5    A    
C53   C69   S    
C92   O48   A    
C91   O45   A    
N9    H41   S    
N20   H71   S    
C112  C124  A    
C58   C82   A    
Cu4   O15   S    
C195  C203  A    
C42   H34   S    
C189  C197  A    
C76   N12   S    
Cu2   O5    S    
C98   C108  A    
C30   C38   A    
Cu3   O12   S    
O91   H115  S    
C89   C94   S    
C70   O38   A    
Cu5   O41   S    
C76   C94   A    
C91   C96   S    
C102  C112  A    
C188  N28   S    
C78   C96   A    
C56   C72   S    
C83   C171  A    
C57   C83   A    
C81   C169  A    
C196  C204  A    
C140  C152  A    
C132  O72   S    
C147  O59   S    
C97   N1    A    
C15   C23   A    
Cu12  O24   S    
N25   H90   S    
C196  H28   S    
C75   N11   S    
C6    O14   A    
C204  O84   S    
C89   O43   A    
C41   C49   A    
C90   O44   A    
C92   O46   A    
Cu5   Cu7   S    
C134  C146  A    
O94   H118  S    
C149  O61   S    
C182  C190  A    
C59   C87   A    
C60   C86   A    
N12   H47   S    
C44   H36   S    
C20   C28   A    
C27   C35   A    
O81   H105  S    
C21   C29   A    
C67   O35   A    
C86   C174  A    
C23   C31   A    
C24   C32   A    
C191  N31   S    
C124  H16   S    
C190  N30   S    
C3    O11   A    
C54   C70   S    
C197  H29   S    
C86   H22   S    
C11   C19   A    
C12   C20   A    
C97   O49   S    
C13   C21   A    
C39   N23   S    
C99   O51   S    
C10   C202  A    
C8    O8    A    
Cu12  O38   S    
Cu10  O22   S    
C116  C142  A    
C122  H14   S    
C101  O53   S    
C14   C206  A    
C4    O12   A    
C36   C44   A    
C133  C145  A    
C149  N7    A    
C37   C45   A    
C130  C138  A    
C110  C116  A    
C7    O15   A    
C75   C93   A    
C90   C93   S    
C39   C47   A    
C17   C177  A    
C40   C48   A    
C152  O64   S    
C91   O47   A    
C103  O55   S    
C59   C63   S    
C3    C26   S    
N10   H43   S    
C171  H3    S    
C57   C61   S    
C100  C106  A    
C60   C64   S    
Cu3   O10   S    
C17   C25   A    
N26   H91   S    
C71   O31   A    
N17   H66   S    
Cu9   O29   S    
C173  H5    S    
O69   H61   S    
C104  C110  A    
C109  C121  A    
Cu5   O17   S    
C10   C18   A    
N14   H51   S    
Cu7   O19   S    
C160  C168  A    
O85   H109  S    
C62   O20   A    
C117  H9    S    
N24   H79   S    
C72   O40   A    
C178  C186  A    
C129  C137  A    
C126  C134  A    
C194  H26   S    
O66   H58   S    
C74   N10   S    
C104  N4    A    
C79   C167  A    
O79   H87   S    
O77   H85   S    
C162  O90   S    
C80   C168  A    
C55   C71   S    
C90   O42   A    
N21   H74   S    
C177  O73   S    
C46   H38   S    
C79   N15   S    
O76   H84   S    
N15   H53   S    
C120  H12   S    
C62   O18   A    
O75   H83   S    
C60   C88   A    
C193  C201  A    
N31   H102  S    
O93   H117  S    
C152  N8    A    
C121  C125  A    
C154  C170  A    
C203  O83   S    
C102  O54   S    
C105  C113  A    
Cu7   O43   S    
Cu6   Cu8   S    
Cu8   O44   S    
C1    O1    A    
C66   O26   A    
C148  N6    A    
O74   H82   S    
C41   H33   S    
Cu8   O34   S    
C64   O22   A    
Cu11  O47   S    
C148  O60   S    
C80   N16   S    
C170  H2    S    
C139  C143  A    
C107  C113  A    
O96   H120  S    
C159  C167  A    
N22   H75   S    
C158  N2    S    
C21   C181  A    
C73   C161  A    
C145  O57   S    
C192  N32   S    
C161  O89   S    
C44   C52   A    
Cu8   O20   S    
C45   C53   A    
N18   H68   S    
O95   H119  S    
C180  O76   S    
Cu10  O40   S    
C176  H8    S    
Cu7   O27   S    
C61   O19   A    
C9    C49   A    
C178  O74   S    
C74   C162  A    
C192  C200  A    
C65   O33   A    
C159  C165  A    
C15   C55   A    
C16   C56   A    
C23   C183  A    
C98   N2    A    
C123  C127  A    
N31   H101  S    
C156  N8    S    
C51   C67   S    
C77   N13   S    
C136  C148  A    
C42   C50   A    
Cu1   O2    S    
C135  C147  A    
N28   H95   S    
N14   H52   S    
C67   O27   A    
C150  N8    A    
C112  C116  A    
C4    C27   S    
N30   H99   S    
C199  H31   S    
N23   H78   S    
C22   C30   A    
N11   H46   S    
C8    C31   S    
Cu9   O45   S    
C186  C194  A    
C84   C172  A    
C156  C176  A    
C2    O10   A    
C195  H27   S    
Cu11  O31   S    
C24   C184  A    
C87   C175  A    
Cu2   Cu4   S    
C107  C119  A    
C64   O24   A    
C78   N14   S    
C14   C22   A    
C104  O56   S    
C22   C182  A    
C138  C144  A    
O73   H81   S    
Cu4   O16   S    
Cu11  O23   S    
Cu12  O32   S    
C139  C151  A    
Cu2   O6    S    
C81   H17   S    
Cu3   O11   S    
C12   C204  A    
C34   N18   S    
C6    O6    A    
C38   C46   A    
C131  C139  A    
C150  O62   S    
O88   H112  S    
C135  C141  A    
C18   C178  A    
C200  C208  A    
N16   H55   S    
C151  O63   S    
C160  N4    S    
C145  N5    A    
C106  C118  A    
C87   H23   S    
C25   C33   A    
C58   C62   S    
N25   H89   S    
C74   C94   A    
C197  C205  A    
C18   C26   A    
N32   H103  S    
N19   H69   S    
Cu6   O18   S    
C156  C174  A    
C184  O80   S    
C99   N1    A    
N27   H94   S    
C127  C135  A    
C109  C115  A    
C128  C136  A    
C8    O16   A    
N12   H48   S    
C127  O67   S    
C179  C187  A    
C166  O94   S    
C43   H35   S    
O72   H64   S    
C194  C202  A    
C177  C185  A    
C108  C114  A    
C163  O91   S    
C136  C142  A    
C202  O82   S    
C180  C188  A    
C182  O78   S    
C12   C52   A    
C181  C189  A    
Cu1   O4    S    
C36   N20   S    
N27   H93   S    
C47   H39   S    
C1    C28   S    
O68   H60   S    
C184  C192  A    
N13   H50   S    
Cu6   O36   S    
C124  C128  A    
C5    C32   S    
C68   O36   A    
O90   H114  S    
C7    C30   S    
C69   O29   A    
N29   H98   S    
C105  C117  A    
C2    O2    A    
Cu9   O21   S    
Cu5   O35   S    
C13   C53   A    
N9    H42   S    
Cu7   O33   S    
C78   C166  A    
C189  N29   S    
C111  C123  A    
O86   H110  S    
N10   H44   S    
C71   O39   A    
C183  O79   S    
C185  N25   S    
C129  O69   S    
C165  O93   S    
C206  O86   S    
C113  C143  A    
C89   O41   A    
Cu3   O9    S    
N26   H92   S    
C200  H32   S    
C153  N5    S    
O82   H106  S    
C79   C95   A    
C172  H4    S    
C134  C142  A    
C198  H30   S    
N11   H45   S    
C207  O87   S    
C46   C54   A    
C48   H40   S    
C11   C203  A    
Cu8   O28   S    
C9    C201  A    
C123  H15   S    
C151  N7    A    
C121  H13   S    
C102  N4    A    
C13   C205  A    
C10   C50   A    
C157  C161  A    
C190  C198  A    
N21   H73   S    
C131  O71   S    
C155  C175  A    
C66   O34   A    
C140  C144  A    
C88   C176  A    
C88   H24   S    
Cu12  O48   S    
C159  N3    S    
C45   H37   S    
N30   H100  S    
C132  C140  A    
C133  C141  A    
C98   O50   S    
Cu10  Cu12  S    
C103  C109  A    
C33   C41   A    
C174  H6    S    
C179  O75   S    
C110  C122  A    
C43   C51   A    
C119  H11   S    
C101  C111  A    
C2    C25   S    
C6    C29   S    
C28   C36   A    
N22   H76   S    
C33   N17   S    
C29   C37   A    
O80   H88   S    
C193  H25   S    
Cu6   O42   S    
C69   O37   A    
C77   C165  A    
C59   C85   A    
C114  C144  A    
C82   C170  A    
C153  C169  A    
O70   H62   S    
C35   C43   A    
Cu10  O30   S    
C128  O68   S    
C126  O66   S    
C3    O3    A    
N23   H77   S    
C20   C180  A    
C138  C150  A    
C181  O77   S    
C49   C65   S    
C106  C114  A    
C118  C130  A    
C75   C163  A    
C191  C199  A    
C7    O7    A    
N19   H70   S    
C82   H18   S    
C1    O9    A    
C146  N6    A    
C5    O13   A    
C26   C34   A    
C169  H1    S    
Cu6   O26   S    
C146  O58   S    
C85   C173  A    
O78   H86   S    
C97   C107  A    
C61   O17   A    
C80   C96   A    
C201  O81   S    
C157  C163  A    
C52   C68   S    
C158  C164  A    
C167  O95   S    
Cu5   O25   S    
C155  C173  A    
C35   N19   S    
C137  C143  A    
C16   C24   A    
C63   O23   A    
C137  C149  A    
C84   H20   S    
Cu4   O14   S    
C72   O32   A    
C85   H21   S    
C19   C27   A    
C37   N21   S    
C125  O65   S    
C99   C105  A    
C83   H19   S    
C208  O88   S    
C73   N9    S    
C186  N26   S    
C119  C131  A    
C77   C95   A    
C92   C95   S    
C122  C126  A    
N15   H54   S    
C58   C84   A    
Cu4   O13   S    
Cu2   O8    S    
C160  C166  A    
C205  O85   S    
C153  C171  A    
C199  C207  A    
Cu2   O7    S    
C70   O30   A    
C154  C172  A    
N28   H96   S    
C50   C66   S    
C100  O52   S    
N24   H80   S    
C9    C17   A    
C14   C54   A    
C100  N2    A    
O87   H111  S    
N16   H56   S    
C101  N3    A    
C57   C81   A    
C130  O70   S    
C76   C164  A    
C187  N27   S    
C175  H7    S    
Cu9   O39   S    
C117  C129  A    
N18   H67   S    
C47   C55   A    
O71   H63   S    
C125  C133  A    
C48   C56   A    
C154  N6    S    
N20   H72   S    
C187  C195  A    
C120  C132  A    
Cu11  O37   S    
C185  C193  A    
C16   C208  A    
C183  C191  A    
N32   H104  S    
Cu9   Cu11  S    
O67   H59   S    
C40   N24   S    
O84   H108  S    
N17   H65   S    
C168  O96   S    
O83   H107  S    
C118  H10   S    
C68   O28   A    
Cu1   O1    S    
Cu1   Cu3   S    
C31   C39   A    
C32   C40   A    
O89   H113  S    
C15   C207  A    
C11   C51   A    
C158  C162  A    
C65   O25   A    
Cu1   O3    S    
C5    O5    A    
C188  C196  A    
C63   O21   A    
C103  N3    A    
C111  C115  A    
Cu10  O46   S    
N13   H49   S    
C155  N7    S    
C38   N22   S    
