data_mof_unit_25771.cif
_audit_creation_date              2013-03-05T15:55:17-0500
_audit_creation_method            fapswitch 2.2
_symmetry_space_group_name_H-M    P1
_symmetry_Int_Tables_number       1
_space_group_crystal_system       triclinic
_cell_length_a                    27.266076
_cell_length_b                    10.606599
_cell_length_c                    10.032883
_cell_angle_alpha                 91.013838
_cell_angle_beta                  91.767216
_cell_angle_gamma                 93.814105
_cell_volume                      2893.14243687

loop_
_atom_site_label
_atom_site_type_symbol
_atom_site_description
_atom_site_fract_x
_atom_site_fract_y
_atom_site_fract_z
_atom_type_partial_charge
O1    O     O_R   0.500000 0.316780 0.614690 -0.577914
O2    O     O_R   0.500000 0.316750 0.385360 -0.551984
C1    C     C_R   0.508976 0.264851 0.500657 0.935816
O3    O     O_R   0.428760 0.500030 0.614650 -0.590198
O4    O     O_R   0.428750 0.500010 0.385320 -0.615390
C2    C     C_R   0.405939 0.505248 0.498081 0.981986
Zn1   Zn    Zn3+2 0.500000 0.500020 0.653130 1.077898
Zn2   Zn    Zn3+2 0.500000 0.499980 0.346870 1.006143
O5    O     O_R   0.500000 0.683250 0.614640 -0.592510
O6    O     O_R   0.500000 0.683220 0.385310 -0.647824
O7    O     O_R   0.571250 0.499990 0.614680 -0.538167
O8    O     O_R   0.571240 0.499970 0.385350 -0.635977
C3    C     C_R   0.499532 0.741259 0.501712 0.901455
C4    C     C_R   0.594015 0.500254 0.501173 0.976150
C5    C     C_R   0.178349 0.394642 0.425409 0.575446
O9    O     O_2   0.208728 0.300729 0.410037 -0.457425
N1    N     N_R   0.198109 0.515184 0.451750 -0.351912
C6    C     C_R   0.169071 0.614777 0.453609 0.651629
C7    C     C_R   0.280574 0.601135 0.382313 0.437703
C8    C     C_R   0.331715 0.592618 0.393112 -0.225989
C9    C     C_R   0.322468 0.463738 0.587755 -0.058651
C10   C     C_R   0.272018 0.472135 0.579614 -0.082297
C11   C     C_R   0.250332 0.535311 0.474260 0.130340
C12   C     C_R   0.098504 0.475676 0.388878 -0.089972
C13   C     C_R   0.126857 0.370448 0.409709 -0.156513
C14   C     C_R   0.102739 0.247683 0.409402 0.454593
C15   C     C_R   0.120859 0.598522 0.403375 -0.093066
C16   C     C_R   0.352658 0.520043 0.492706 -0.084551
H1    H     H_    0.337410 0.409967 0.666457 0.202200
H2    H     H_    0.249252 0.422740 0.651239 0.182474
C17   C     C_R   0.645845 0.475356 0.498392 -0.183032
C18   C     C_R   0.971055 0.326213 0.362434 0.078749
C19   C     C_R   0.969340 0.553726 0.313716 0.058038
C20   C     C_R   0.944453 0.434514 0.338142 0.089828
C21   C     C_R   0.944446 0.212052 0.395017 -0.175284
C22   C     C_R   0.893966 0.207008 0.411394 -0.114686
C23   C     C_R   0.867788 0.314008 0.391424 -0.048508
C24   C     C_R   0.892529 0.425827 0.348177 -0.057009
C25   C     C_R   0.865521 0.531371 0.322533 -0.041827
C26   C     C_R   0.814615 0.521816 0.335770 0.537898
N2    N     N_R   0.792202 0.418617 0.395057 -0.325637
C27   C     C_R   0.817914 0.314858 0.422470 0.603730
C28   C     C_R   0.704918 0.336077 0.405754 0.612637
C29   C     C_R   0.656569 0.359951 0.438879 -0.425288
C30   C     C_R   0.684110 0.567729 0.530152 0.457223
C31   C     C_R   0.732347 0.537353 0.512667 -0.262862
C32   C     C_R   0.742977 0.427810 0.441315 0.144566
O10   O     O_2   0.796152 0.215165 0.484444 -0.534907
C33   C     C_R   0.023227 0.338361 0.365858 -0.004164
C34   C     C_R   0.047572 0.459751 0.357377 0.052095
C35   C     C_R   0.021570 0.566154 0.319407 -0.079018
C36   C     C_R   0.051937 0.233865 0.385089 -0.240352
H3    H     H_    0.626304 0.293513 0.407934 0.152155
H4    H     H_    0.875678 0.119194 0.442887 0.194355
H5    H     H_    0.961672 0.126186 0.417380 0.167410
H6    H     H_    0.035518 0.138947 0.381585 0.222840
O11   O     O_2   0.186820 0.728525 0.502479 -0.465792
C37   C     C_R   0.096628 0.700700 0.355226 -0.128058
H7    H     H_    0.355341 0.640450 0.322477 0.172816
H8    H     H_    0.116837 0.791484 0.346254 0.257220
C38   C     C_R   0.940960 0.659609 0.301392 -0.115396
C39   C     C_R   0.890063 0.647382 0.296803 -0.125881
O12   O     O_2   0.787847 0.617085 0.293885 -0.504707
C40   C     C_R   0.049711 0.681825 0.296519 0.391482
H9    H     H_    0.957124 0.754549 0.302432 0.207075
H10   H     H_    0.870170 0.731780 0.284758 0.199840
H11   H     H_    0.762051 0.606502 0.540863 0.188908
H12   H     H_    0.529627 0.114047 0.291433 0.202868
C41   C     C_R   0.542745 0.135147 0.747866 -0.188400
H13   H     H_    0.562701 0.226934 0.748266 0.177978
C42   C     C_R   0.532624 0.080014 0.869709 -0.121310
H14   H     H_    0.543380 0.131056 0.961567 0.178466
C43   C     C_R   0.504042 0.966184 0.873228 0.547936
C44   C     C_R   0.490657 0.901356 0.752287 -0.236706
H15   H     H_    0.464916 0.819921 0.755032 0.219484
C45   C     C_R   0.507274 0.948245 0.629205 0.052953
C46   C     C_R   0.525868 0.073964 0.627333 0.120825
C47   C     C_R   0.523570 0.136299 0.504661 -0.165215
C48   C     C_R   0.524749 0.067853 0.385778 -0.143486
H16   H     H_    0.519800 0.887241 0.294782 0.174592
C49   C     C_R   0.517258 0.938677 0.387632 -0.123689
C50   C     C_R   0.505043 0.878083 0.506610 -0.070626
H17   H     H_    0.572349 0.569796 0.137932 0.216635
C51   C     C_R   0.414049 0.408575 0.126024 0.368478
C52   C     C_R   0.370394 0.441648 0.059886 0.300028
C53   C     C_R   0.373982 0.479939 0.925934 0.057649
C54   C     C_R   0.412704 0.429522 0.858353 0.335402
C55   C     C_R   0.458456 0.456951 0.924215 -0.040892
C56   C     C_R   0.458904 0.452031 0.067521 -0.075863
N3    N     N_R   0.499540 0.498800 0.142780 -0.139715
C57   C     C_R   0.540252 0.537076 0.078125 -0.177714
C58   C     C_R   0.540703 0.540090 0.936916 0.371946
N4    N     N_R   0.499520 0.498720 0.857170 -0.159657
S1    S     S_3+6 0.256035 0.688409 0.249485 0.096003
O13   O     O_2   0.214593 0.611791 0.178057 -0.271480
O14   O     O_2   0.237121 0.809046 0.301553 -0.201365
O15   O     O_3   0.299505 0.726902 0.140470 -0.435644
H18   H     H_    0.316767 0.805634 0.177353 0.382020
S2    S     S_3+6 0.674890 0.728615 0.564885 0.074793
O16   O     O_2   0.624466 0.762554 0.519918 -0.286932
O17   O     O_2   0.682215 0.755031 0.712033 -0.218145
O18   O     O_3   0.716501 0.819943 0.483286 -0.538265
H19   H     H_    0.744577 0.837582 0.547401 0.370376
S3    S     S_3+6 0.036666 0.786878 0.165956 0.042698
O19   O     O_2   0.997749 0.728769 0.070058 -0.278583
O20   O     O_2   0.020358 0.908328 0.223906 -0.317122
O21   O     O_3   0.088461 0.819446 0.082661 -0.473250
H20   H     H_    0.079836 0.883727 0.017044 0.401752
O22   O     O_3   0.483695 0.931194 0.992882 -0.555737
C59   C     C_3   0.496771 0.809356 0.025662 -0.250914
H21   H     H_    0.537346 0.807167 0.038633 0.164645
H22   H     H_    0.481709 0.737299 0.951477 0.163606
H23   H     H_    0.480064 0.783088 0.121282 0.193257
S4    S     S_3+6 0.409863 0.255465 0.195628 0.118552
O23   O     O_2   0.456677 0.192382 0.173933 -0.245167
O24   O     O_2   0.400175 0.260582 0.342099 -0.272491
O25   O     O_3   0.363835 0.165664 0.118755 -0.494565
H24   H     H_    0.338934 0.148863 0.187228 0.388877
O26   O     O_3   0.328475 0.451743 0.132831 -0.599199
C60   C     C_3   0.287211 0.389545 0.065807 0.000674
H25   H     H_    0.274942 0.443088 0.978591 0.196207
H26   H     H_    0.256453 0.382591 0.135693 0.197189
H27   H     H_    0.294104 0.291678 0.034240 0.185752
S5    S     S_3+6 0.358498 0.634798 0.884958 0.069665
O27   O     O_2   0.379256 0.671736 0.753439 -0.310074
O28   O     O_2   0.303658 0.641151 0.875783 -0.179817
O29   O     O_3   0.382265 0.740740 0.000295 -0.464460
H28   H     H_    0.394708 0.691220 0.075251 0.316857
S6    S     S_3+6 0.399748 0.269071 0.805133 0.056926
O30   O     O_2   0.347110 0.228268 0.831684 -0.306014
O31   O     O_2   0.407339 0.251289 0.658765 -0.248915
O32   O     O_3   0.436393 0.176135 0.889815 -0.499720
H29   H     H_    0.417282 0.093612 0.893606 0.436287
S7    S     S_3+6 0.595155 0.614068 0.875631 0.063743
O33   O     O_2   0.623930 0.687024 0.985552 -0.308087
O34   O     O_2   0.627250 0.515716 0.823583 -0.248925
O35   O     O_3   0.581401 0.715884 0.756572 -0.474034
H30   H     H_    0.584793 0.800567 0.800302 0.360631
S8    S     S_3+6 0.131928 0.109356 0.456680 0.107789
O36   O     O_2   0.161805 0.064988 0.343698 -0.171752
O37   O     O_2   0.164951 0.137906 0.577808 -0.232676
O38   O     O_3   0.089662 0.993311 0.493505 -0.569941
H31   H     H_    0.107715 0.933612 0.548175 0.397787
O39   O     O_3   0.715311 0.234636 0.323798 -0.592514
C61   C     C_3   0.689236 0.121398 0.359893 -0.089847
H32   H     H_    0.651725 0.114379 0.312794 0.134145
H33   H     H_    0.687593 0.111101 0.470068 0.175710
H34   H     H_    0.708720 0.040695 0.320818 0.237776

loop_
_geom_bond_atom_site_label_1
_geom_bond_atom_site_label_2
_geom_bond_distance
_ccdc_geom_bond_type
C54   C55   1.404109 A    
C47   C48   1.387631 A    
N2    C27   1.371053 A    
C41   C46   1.411900 A    
C21   C22   1.388796 A    
C12   C15   1.404499 A    
C4    C17   1.455822 S    
S7    O35   1.674994 S    
S3    O20   1.503593 D    
S4    O23   1.499988 D    
C30   C31   1.390348 A    
Zn1   O7    1.992292 S    
N1    C11   1.436032 S    
C26   O12   1.350772 S    
C44   C45   1.415550 A    
C22   C23   1.394492 A    
C61   H32   1.110712 S    
O4    C2    1.309804 A    
O7    C4    1.313645 A    
C5    C13   1.413792 A    
C37   H8    1.083735 S    
C5    O9    1.346962 S    
O15   H18   0.990877 S    
C52   O26   1.385130 S    
C43   C44   1.409985 A    
C23   C27   1.404992 A    
C41   C42   1.391789 A    
O5    C3    1.298930 A    
C59   H21   1.111785 S    
C55   N4    1.376003 A    
C29   H3    1.083058 S    
C2    C16   1.470987 S    
C7    C8    1.404313 A    
O32   H29   0.990362 S    
O21   H20   0.990567 S    
C6    C15   1.392007 A    
C38   C39   1.384436 A    
C60   H27   1.109568 S    
S6    O32   1.673358 S    
H12   C48   1.081306 S    
O1    Zn1   1.974743 S    
C9    C10   1.384354 A    
C12   C34   1.413070 A    
C28   O39   1.391999 S    
O18   H19   0.990515 S    
O3    Zn1   1.968728 S    
S3    O19   1.503535 D    
C61   H33   1.114660 S    
C60   H26   1.109178 S    
C49   C50   1.404305 A    
C45   C46   1.395352 A    
C10   C11   1.398242 A    
C37   C40   1.392396 A    
Zn1   N4    2.047838 S    
O2    Zn2   1.988131 S    
C17   C29   1.404582 A    
C39   H10   1.083765 S    
C21   H5    1.076122 S    
C18   C21   1.418176 A    
C12   C13   1.414257 A    
O3    C2    1.311491 A    
C14   S8    1.779813 S    
C44   H15   1.077407 S    
C45   C50   1.423845 A    
C57   C58   1.418072 A    
C48   C49   1.372294 A    
C53   C54   1.402455 A    
H16   C49   1.077615 S    
S7    O34   1.502351 D    
C8    C16   1.402702 A    
S1    O15   1.673077 S    
C34   C35   1.423527 A    
C40   S3    1.777530 S    
C46   C47   1.409034 A    
C9    H1    1.068526 S    
C3    C50   1.448823 S    
O6    C3    1.311307 A    
O1    C1    1.298109 A    
C18   C20   1.419474 A    
C7    C11   1.418263 A    
C28   C29   1.407460 A    
C23   C24   1.407047 A    
C14   C36   1.396616 A    
C6    O11   1.347941 S    
S2    O16   1.502238 D    
Zn2   O8    1.968725 S    
C33   C36   1.411429 A    
N1    C6    1.361819 A    
N2    C32   1.442402 S    
S1    O13   1.502671 D    
C27   O10   1.348839 S    
C51   C52   1.412518 A    
C8    H7    1.082593 S    
S1    O14   1.502281 D    
C59   H23   1.106789 S    
C52   C53   1.415199 A    
C7    S1    1.775269 S    
S5    O29   1.683006 S    
Zn2   O6    1.974743 S    
C26   N2    1.371813 A    
S2    O17   1.502551 D    
C9    C16   1.395297 A    
O8    C4    1.300417 A    
C33   C34   1.413954 A    
C30   S2    1.771453 S    
Zn2   N3    2.047074 S    
C51   C56   1.425361 A    
O29   H28   0.989183 S    
C25   C26   1.395571 A    
C61   H34   1.109097 S    
C60   H25   1.106763 S    
S5    O28   1.501320 D    
S6    O30   1.504376 D    
Zn1   O5    1.988133 S    
C25   C39   1.393146 A    
C31   C32   1.405202 A    
C51   S4    1.777181 S    
C10   H2    1.083403 S    
C20   C24   1.419429 A    
C58   S7    1.765348 S    
C35   C40   1.429072 A    
O39   C61   1.413107 S    
C15   C37   1.392303 A    
O4    Zn2   1.992295 S    
S4    O24   1.501763 D    
S8    O36   1.503017 D    
C5    N1    1.372008 A    
S7    O33   1.505402 D    
C19   C35   1.420736 A    
H17   C57   1.079928 S    
O35   H30   0.990106 S    
C54   S6    1.783921 S    
O2    C1    1.313010 A    
C13   C14   1.419088 A    
C42   H14   1.083054 S    
O22   C59   1.405117 S    
C53   S5    1.774988 S    
S8    O37   1.504157 D    
N3    C57   1.345957 A    
C24   C25   1.403516 A    
C58   N4    1.400078 A    
S8    O38   1.683213 S    
C19   C20   1.423514 A    
C43   O22   1.384234 S    
C41   H13   1.083112 S    
C59   H22   1.107255 S    
C18   C33   1.419067 A    
S4    O25   1.682967 S    
C22   H4    1.083665 S    
C38   H9    1.071769 S    
C31   H11   1.083237 S    
S2    O18   1.683722 S    
C55   C56   1.439342 A    
C19   C38   1.410667 A    
O26   C60   1.411429 S    
C17   C30   1.408009 A    
C42   C43   1.394393 A    
O38   H31   0.990550 S    
C56   N3    1.380516 A    
O25   H24   0.990801 S    
C1    C47   1.446460 S    
C28   C32   1.407608 A    
S3    O21   1.682334 S    
C36   H6    1.073801 S    
S5    O27   1.499946 D    
S6    O31   1.499672 D    
