data_mof_unit_17517.cif
_audit_creation_date              2012-12-11T15:39:33-0500
_audit_creation_method            fapswitch 2.2
_symmetry_space_group_name_H-M    P1
_symmetry_Int_Tables_number       1
_space_group_crystal_system       triclinic
_cell_length_a                    6.953333
_cell_length_b                    15.211695
_cell_length_c                    16.621609
_cell_angle_alpha                 95.416951
_cell_angle_beta                  90.664966
_cell_angle_gamma                 90.161419
_cell_volume                      1750.11757618

loop_
_atom_site_label
_atom_site_type_symbol
_atom_type_description
_atom_site_fract_x
_atom_site_fract_y
_atom_site_fract_z
_atom_type_partial_charge
O1    O     O_R   0.633330 0.174290 0.828230 -0.544049
O2    O     O_R   0.366670 0.825710 0.171770 -0.544045
O3    O     O_R   0.301450 0.154140 0.662030 -0.548996
O4    O     O_R   0.698550 0.845860 0.337970 -0.548996
O5    O     O_R   0.133140 0.325730 0.671770 -0.529995
O6    O     O_R   0.866860 0.674270 0.328230 -0.529989
C1    C     C_R   0.470358 0.130641 0.634265 0.712826
C2    C     C_R   0.529639 0.869356 0.365736 0.712840
O7    O     O_R   0.303490 0.163670 0.827000 -0.540577
O8    O     O_R   0.696510 0.836330 0.173000 -0.540578
O9    O     O_R   0.135190 0.335320 0.837920 -0.527289
O10   O     O_R   0.864810 0.664680 0.162080 -0.527267
C3    C     C_R   0.473117 0.141604 0.852591 0.696846
C4    C     C_R   0.526883 0.858400 0.147413 0.696828
O11   O     O_R   0.631280 0.164690 0.662080 -0.531497
O12   O     O_R   0.368720 0.835310 0.337920 -0.531489
O13   O     O_3   0.467420 0.306310 0.753380 -0.355145
O14   O     O_3   0.532580 0.693690 0.246620 -0.355170
V1    V     V_3+5 0.191790 0.239560 0.749370 1.451168
V2    V     V_3+5 0.808210 0.760440 0.250630 1.451151
O15   O     O_R   0.805590 0.345870 0.837970 -0.541420
O16   O     O_R   0.194410 0.654130 0.162030 -0.541513
C5    C     C_R   0.975835 0.366836 0.867411 0.763901
C6    C     C_R   0.024169 0.633170 0.132584 0.763861
O17   O     O_R   0.803560 0.336340 0.672990 -0.531848
O18   O     O_R   0.196440 0.663660 0.327010 -0.531845
C7    C     C_R   0.971961 0.356717 0.645902 0.752422
C8    C     C_R   0.028039 0.643283 0.354098 0.752456
V3    V     V_3+5 0.692030 0.260450 0.750630 1.468024
V4    V     V_3+5 0.307970 0.739550 0.249370 1.467926
O19   O     O_3   0.966260 0.193700 0.746610 -0.383283
O20   O     O_3   0.033740 0.806300 0.253390 -0.383267
C9    C     C_1   0.981802 0.418750 0.583468 -0.180425
C10   C     C_1   0.018197 0.581250 0.416532 -0.180430
C11   C     C_1   0.992898 0.469945 0.530992 0.014415
C12   C     C_1   0.007101 0.530055 0.469008 0.014416
C13   C     C_3   0.944886 0.577579 0.973358 -0.159227
C14   C     C_3   0.055142 0.422432 0.026627 -0.159168
C15   C     C_3   0.115751 0.520127 0.941025 0.280850
C16   C     C_3   0.884278 0.479884 0.058963 0.280697
C17   C     C_3   0.991925 0.435526 0.938175 -0.239704
C18   C     C_3   0.008099 0.564486 0.061813 -0.239742
C19   C     C_3   0.822443 0.492568 0.971602 0.309786
C20   C     C_3   0.177584 0.507444 0.028384 0.309835
C21   C     C_3   0.665810 0.040422 0.514212 0.407884
C22   C     C_3   0.334168 0.959571 0.485791 0.407869
C23   C     C_3   0.636655 0.939692 0.515064 -0.303454
C24   C     C_3   0.363323 0.060301 0.484941 -0.303445
H1    H     H_    0.754005 0.893181 0.527005 0.158494
H2    H     H_    0.245970 0.106811 0.473000 0.158497
C25   C     C_3   0.517125 0.939836 0.435696 -0.160574
C26   C     C_3   0.482857 0.060157 0.564307 -0.160585
C27   C     C_3   0.549599 0.040549 0.435201 -0.025876
C28   C     C_3   0.450378 0.959445 0.564803 -0.025862
C29   C     C_1   0.484121 0.078586 0.914222 -0.193237
C30   C     C_1   0.515878 0.921427 0.085789 -0.193257
C31   C     C_1   0.494025 0.028651 0.967836 -0.004243
C32   C     C_1   0.505974 0.971367 0.032180 -0.004266
O21   O     O_3   0.244289 0.538863 0.880817 -0.619996
H3    H     H_    0.313581 0.593159 0.902667 0.298197
O22   O     O_3   0.755756 0.461150 0.119178 -0.620080
H4    H     H_    0.686382 0.406903 0.097327 0.298253
C33   C     C_R   0.857958 0.658157 0.941929 0.150130
C34   C     C_R   0.921879 0.689919 0.870239 -0.138172
C35   C     C_R   0.828974 0.761130 0.839379 -0.152054
C36   C     C_R   0.670501 0.799946 0.878932 -0.087045
C37   C     C_R   0.598451 0.764743 0.946905 -0.158007
C38   C     C_R   0.695259 0.696258 0.979905 -0.083621
H5    H     H_    0.039999 0.659115 0.836996 0.143438
H6    H     H_    0.876333 0.784924 0.783657 0.126539
H7    H     H_    0.600728 0.855874 0.855727 0.131557
H8    H     H_    0.466291 0.789785 0.973531 0.106291
H9    H     H_    0.640720 0.671612 0.033988 0.116276
C39   C     C_R   0.142094 0.341850 0.058042 0.150163
C40   C     C_R   0.304851 0.303785 0.020073 -0.083667
C41   C     C_R   0.401707 0.235316 0.053071 -0.158070
C42   C     C_R   0.329642 0.200084 0.121030 -0.086957
C43   C     C_R   0.171062 0.238839 0.160563 -0.152003
C44   C     C_R   0.078108 0.310039 0.129708 -0.138171
H10   H     H_    0.359378 0.328439 0.965992 0.116298
H11   H     H_    0.533903 0.210301 0.026449 0.106282
H12   H     H_    0.399462 0.144170 0.144235 0.131552
H13   H     H_    0.123660 0.215008 0.216268 0.126491
H14   H     H_    0.959905 0.340800 0.162937 0.143394
O23   O     O_3   0.635150 0.485849 0.940588 -0.604914
H15   H     H_    0.593079 0.425314 0.948836 0.305842
O24   O     O_3   0.364890 0.514148 0.059389 -0.604987
H16   H     H_    0.406856 0.574769 0.051322 0.305770
O25   O     O_3   0.842683 0.083800 0.527330 -0.641030
H17   H     H_    0.899045 0.060758 0.576160 0.292152
O26   O     O_3   0.157292 0.916191 0.472677 -0.641053
H18   H     H_    0.100909 0.939238 0.423863 0.292186
C45   C     C_R   0.613245 0.089286 0.365653 0.122095
C46   C     C_R   0.763439 0.056189 0.316007 -0.114914
C47   C     C_R   0.817558 0.099801 0.249549 -0.142883
C48   C     C_R   0.727991 0.178754 0.234481 -0.119320
C49   C     C_R   0.586061 0.214729 0.286259 -0.120559
C50   C     C_R   0.526511 0.169591 0.350926 -0.127431
H19   H     H_    0.837878 0.996566 0.328182 0.121576
H20   H     H_    0.929162 0.072480 0.209884 0.117321
H21   H     H_    0.766474 0.211660 0.182170 0.116276
H22   H     H_    0.518919 0.276597 0.275099 0.137831
H23   H     H_    0.414042 0.197918 0.389492 0.108882
C51   C     C_R   0.386716 0.910717 0.634357 0.122085
C52   C     C_R   0.236518 0.943822 0.683999 -0.114912
C53   C     C_R   0.182432 0.900235 0.750486 -0.142852
C54   C     C_R   0.272025 0.821293 0.765584 -0.119340
C55   C     C_R   0.413938 0.785302 0.713802 -0.120572
C56   C     C_R   0.473463 0.830419 0.649108 -0.127440
H24   H     H_    0.162067 0.003439 0.671805 0.121571
H25   H     H_    0.070840 0.927568 0.790155 0.117332
H26   H     H_    0.233573 0.788408 0.817922 0.116301
H27   H     H_    0.481105 0.723444 0.724988 0.137846
H28   H     H_    0.585936 0.802084 0.610545 0.108882

loop_
_geom_bond_atom_site_label_1
_geom_bond_atom_site_label_2
_ccdc_geom_bond_type
C4    C30   S    
C52   H24   S    
C45   C46   A    
C6    C18   S    
C54   H26   S    
C47   C48   A    
O4    C2    A    
V1    O19   S    
C49   C50   A    
C23   H1    S    
C42   C43   A    
C7    C9    S    
O9    V1    S    
C42   H12   S    
C28   C51   S    
C1    C26   S    
O3    C1    A    
V2    O20   S    
C51   C56   A    
C9    C11   T    
C53   C54   A    
O12   V4    S    
C35   H6    S    
O13   V3    S    
C55   C56   A    
C37   H8    S    
O9    C5    A    
C13   C18   S    
O7    C3    A    
C1    O11   A    
O5    C7    A    
C43   H13   S    
O7    V1    S    
C16   C19   S    
O6    C8    A    
C11   C12   S    
O8    V2    S    
C54   C55   A    
O3    V1    S    
O14   V4    S    
V4    O20   S    
C20   O24   S    
C21   O25   S    
C40   H10   S    
C10   C12   T    
C49   H22   S    
C16   C18   S    
C36   C37   A    
C8    C10   S    
O21   H3    S    
C2    O12   A    
C48   H21   S    
C17   C19   S    
O10   V2    S    
O22   H4    S    
C18   C20   S    
C51   C52   A    
C13   C33   S    
C26   C28   S    
O11   V3    S    
C53   H25   S    
C21   C23   S    
O17   V3    S    
C24   C27   S    
C22   C24   S    
C39   C40   A    
C27   C45   S    
C37   C38   A    
C19   O23   S    
C41   C42   A    
C14   C17   S    
C15   C17   S    
O8    C4    A    
O26   H18   S    
C47   H20   S    
C23   C25   S    
C22   O26   S    
C21   C26   S    
C38   H9    S    
O23   H15   S    
O15   V3    S    
C22   C25   S    
C16   O22   S    
C25   C27   S    
C55   H27   S    
C13   C19   S    
C40   C41   A    
C14   C20   S    
C36   H7    S    
C15   O21   S    
C48   C49   A    
C22   C28   S    
O1    V3    S    
C34   H5    S    
C2    C25   S    
C56   H28   S    
C23   C28   S    
O18   V4    S    
C39   C44   A    
C29   C31   T    
O16   C6    A    
O1    C3    A    
C14   C39   S    
C33   C38   A    
O16   V4    S    
C43   C44   A    
C41   H11   S    
C15   C20   S    
O5    V1    S    
O17   C7    A    
O6    V2    S    
C52   C53   A    
O10   C6    A    
O18   C8    A    
C5    C17   S    
O2    V4    S    
C34   C35   A    
O15   C5    A    
V3    O19   S    
C14   C16   S    
C31   C32   S    
C44   H14   S    
C46   H19   S    
C24   H2    S    
O13   V1    S    
C30   C32   T    
O14   V2    S    
C46   C47   A    
O2    C4    A    
C21   C27   S    
C33   C34   A    
O4    V2    S    
C24   C26   S    
O24   H16   S    
C13   C15   S    
C35   C36   A    
O25   H17   S    
C45   C50   A    
C50   H23   S    
C3    C29   S    
