data_mof_unit_46011.cif
_audit_creation_date              2012-12-10T18:43:43-0500
_audit_creation_method            fapswitch 2.2
_symmetry_space_group_name_H-M    P1
_symmetry_Int_Tables_number       1
_space_group_crystal_system       triclinic
_cell_length_a                    10.773147
_cell_length_b                    10.646736
_cell_length_c                    9.841614
_cell_angle_alpha                 90.26014
_cell_angle_beta                  104.266812
_cell_angle_gamma                 90.294773
_cell_volume                      1093.973303

loop_
_atom_site_label
_atom_site_type_symbol
_atom_type_description
_atom_site_fract_x
_atom_site_fract_y
_atom_site_fract_z
_atom_type_partial_charge
C1    C     C_R   0.501462 0.260103 0.500020 0.945380
C2    C     C_R   0.499352 0.739838 0.500144 0.919793
C3    C     C_R   0.258682 0.495879 0.441418 0.926828
C4    C     C_R   0.741301 0.496046 0.558486 0.945478
C5    C     C_R   0.582282 0.575600 0.094768 -0.311243
C6    C     C_R   0.416755 0.425382 0.905018 -0.309017
C7    C     C_R   0.585130 0.573756 0.950618 0.575456
C8    C     C_R   0.418326 0.422598 0.050319 0.551859
C9    C     C_2   0.121706 0.480006 0.407884 -0.367803
C10   C     C_2   0.878057 0.479824 0.591502 -0.372988
C11   C     C_2   0.067712 0.450622 0.511634 -0.177889
C12   C     C_2   0.931467 0.451325 0.486911 -0.124618
C13   C     C_R   0.578678 0.063976 0.425173 0.480841
C14   C     C_R   0.419336 0.936807 0.569823 0.493036
C15   C     C_R   0.577113 0.933837 0.428210 -0.384610
C16   C     C_R   0.424031 0.065749 0.571533 -0.365216
C17   C     C_R   0.498090 0.872152 0.499698 -0.177948
C18   C     C_R   0.502313 0.127672 0.499315 -0.183882
H1    H     H_    0.645383 0.637551 0.168144 0.172415
H2    H     H_    0.348934 0.368271 0.830534 0.169595
H3    H     H_    0.934804 0.492655 0.698552 0.141648
H4    H     H_    0.065275 0.494207 0.301165 0.152163
H5    H     H_    0.639847 0.880217 0.379510 0.158835
H6    H     H_    0.365140 0.117440 0.627152 0.180096
N1    N     N_R   0.499970 0.499970 0.857200 -0.131297
N2    N     N_R   0.500030 0.500030 0.142800 -0.134242
O1    O     O_R   0.499990 0.316750 0.614620 -0.637285
O2    O     O_R   0.500010 0.683250 0.385380 -0.640770
O3    O     O_R   0.499990 0.316780 0.385290 -0.567948
O4    O     O_R   0.500010 0.683220 0.614710 -0.526707
O5    O     O_R   0.317810 0.500000 0.571850 -0.627390
O6    O     O_R   0.682190 0.500000 0.428150 -0.619180
O7    O     O_R   0.317810 0.500030 0.342520 -0.574386
O8    O     O_R   0.682190 0.499970 0.657480 -0.600769
Zn1   Zn    Zn3+2 0.500000 0.499980 0.653120 0.993370
Zn2   Zn    Zn3+2 0.500000 0.500020 0.346880 0.985535
H7    H     H_    0.875212 0.438955 0.379440 0.188840
H8    H     H_    0.123733 0.436855 0.618718 0.185859
O9    O     O_3   0.664784 0.653736 0.899681 -0.573958
C19   C     C_3   0.794786 0.640667 0.973498 0.102148
H9    H     H_    0.851085 0.618125 0.896108 0.168697
H10   H     H_    0.813845 0.563482 0.052220 0.098839
C20   C     C_3   0.845050 0.764618 0.044547 -0.874907
H11   H     H_    0.791136 0.791079 0.122852 0.235609
H12   H     H_    0.947958 0.755392 0.098735 0.213873
H13   H     H_    0.834584 0.840169 0.965132 0.269260
O10   O     O_3   0.330785 0.351019 0.099132 -0.585101
C21   C     C_3   0.335282 0.222544 0.062351 0.099470
H14   H     H_    0.355680 0.166861 0.160439 0.171048
H15   H     H_    0.411339 0.198234 0.007698 0.116300
C22   C     C_3   0.205372 0.180923 0.972306 -0.866885
H16   H     H_    0.181192 0.234518 0.872839 0.244557
H17   H     H_    0.207691 0.079241 0.947240 0.225644
H18   H     H_    0.130068 0.197029 0.029787 0.261650
O11   O     O_3   0.663810 0.131714 0.367178 -0.602664
C23   C     C_3   0.668327 0.084566 0.233959 0.119489
H19   H     H_    0.572215 0.053668 0.170879 0.121304
H20   H     H_    0.736264 0.004788 0.246179 0.142941
C24   C     C_3   0.716979 0.187720 0.153471 -0.826585
H21   H     H_    0.814757 0.217823 0.211023 0.252366
H22   H     H_    0.720286 0.152435 0.048071 0.210605
H23   H     H_    0.652238 0.269883 0.140899 0.246560
O12   O     O_3   0.343243 0.874682 0.642789 -0.585989
C25   C     C_3   0.221546 0.853220 0.551459 0.090171
H24   H     H_    0.229168 0.794119 0.460135 0.116940
H25   H     H_    0.174385 0.943667 0.512997 0.135867
C26   C     C_3   0.137240 0.783953 0.630215 -0.781046
H26   H     H_    0.123422 0.842623 0.718874 0.246619
H27   H     H_    0.042300 0.763338 0.558406 0.206256
H28   H     H_    0.182696 0.694084 0.671923 0.269086

loop_
_geom_bond_atom_site_label_1
_geom_bond_atom_site_label_2
_ccdc_geom_bond_type
C11   H8    S    
C6    C8    A    
C11   C12   S    
C22   H16   S    
C15   C17   A    
C13   C15   A    
C5    H1    S    
C6    H2    S    
C19   H10   S    
O10   C21   S    
C7    N1    A    
C23   C24   S    
C2    O4    A    
C7    O9    S    
C20   H11   S    
C22   H18   S    
O3    Zn2   S    
C25   H24   S    
C26   H28   S    
O11   C23   S    
C15   H5    S    
C8    O10   S    
C24   H21   S    
C16   H6    S    
C16   C18   A    
C2    C17   S    
C3    O5    A    
C21   H15   S    
C20   H12   S    
C14   C17   A    
C1    C18   S    
C4    O6    A    
C10   C12   D    
C13   C18   A    
N1    Zn1   S    
C3    C9    S    
C14   O12   S    
O6    Zn2   S    
O5    Zn1   S    
N2    Zn2   S    
C19   H9    S    
C23   H20   S    
C4    O8    A    
C9    C11   D    
C10   H3    S    
C20   H13   S    
C14   C16   A    
C9    H4    S    
C24   H22   S    
C6    N1    A    
C1    O3    A    
C22   H17   S    
C4    C10   S    
C5    N2    A    
C25   C26   S    
O4    Zn1   S    
O9    C19   S    
O7    Zn2   S    
C8    N2    A    
C23   H19   S    
O2    Zn2   S    
C1    O1    A    
O8    Zn1   S    
C12   H7    S    
C5    C7    A    
C3    O7    A    
C21   H14   S    
C24   H23   S    
C2    O2    A    
O1    Zn1   S    
C21   C22   S    
C26   H26   S    
C13   O11   S    
O12   C25   S    
C26   H27   S    
C19   C20   S    
C25   H25   S    
