data_mof_unit_28732.cif
_audit_creation_date              2012-12-11T17:39:23-0500
_audit_creation_method            fapswitch 2.2
_symmetry_space_group_name_H-M    P1
_symmetry_Int_Tables_number       1
_space_group_crystal_system       triclinic
_cell_length_a                    24.911422
_cell_length_b                    7.300578
_cell_length_c                    22.593842
_cell_angle_alpha                 90.011943
_cell_angle_beta                  96.372792
_cell_angle_gamma                 89.985663
_cell_volume                      4083.70053144

loop_
_atom_site_label
_atom_site_type_symbol
_atom_type_description
_atom_site_fract_x
_atom_site_fract_y
_atom_site_fract_z
_atom_type_partial_charge
O1    O     O_R   0.801910 0.607900 0.699140 -0.543339
O2    O     O_R   0.198090 0.392100 0.300860 -0.538491
O3    O     O_R   0.698090 0.107900 0.800860 -0.543398
O4    O     O_R   0.301910 0.892100 0.199140 -0.538403
O5    O     O_R   0.692320 0.276320 0.686350 -0.532206
O6    O     O_R   0.307680 0.723680 0.313650 -0.533538
O7    O     O_R   0.807680 0.776320 0.813650 -0.532259
O8    O     O_R   0.192320 0.223680 0.186350 -0.533309
C1    C     C_R   0.674149 0.446192 0.671511 0.702236
C2    C     C_R   0.325902 0.553784 0.328401 0.705452
C3    C     C_R   0.825851 0.946186 0.828489 0.702164
C4    C     C_R   0.174097 0.053791 0.171600 0.705412
O9    O     O_R   0.801140 0.278070 0.692060 -0.501842
O10   O     O_R   0.198860 0.721930 0.307940 -0.507025
O11   O     O_R   0.698860 0.778070 0.807940 -0.501802
O12   O     O_R   0.301140 0.221930 0.192060 -0.506834
O13   O     O_R   0.807690 0.109570 0.806600 -0.535389
O14   O     O_R   0.192310 0.890430 0.193400 -0.536875
O15   O     O_R   0.692310 0.609570 0.693400 -0.535407
O16   O     O_R   0.307690 0.390430 0.306600 -0.536693
C5    C     C_R   0.817304 0.446331 0.677509 0.752467
C6    C     C_R   0.182580 0.553862 0.322227 0.753600
C7    C     C_R   0.682676 0.946391 0.822478 0.752433
C8    C     C_R   0.317370 0.053794 0.177740 0.753818
O17   O     O_3   0.752020 0.441970 0.787570 -0.364448
O18   O     O_3   0.247980 0.558030 0.212430 -0.363740
O19   O     O_3   0.747980 0.941970 0.712430 -0.364356
O20   O     O_3   0.252020 0.058030 0.287570 -0.363769
V1    V     V_3+5 0.749620 0.166420 0.743030 1.514179
V2    V     V_3+5 0.250380 0.833580 0.256970 1.517104
V3    V     V_3+5 0.750380 0.666420 0.756970 1.514092
V4    V     V_3+5 0.249620 0.333580 0.243030 1.518025
C9    C     C_R   0.405729 0.176736 0.053846 0.355828
C10   C     C_R   0.590146 0.827657 0.943661 0.359514
C11   C     C_R   0.093224 0.677488 0.445227 0.350726
C12   C     C_R   0.909560 0.326987 0.556132 0.359385
C13   C     C_R   0.364811 0.188298 0.092265 0.345183
C14   C     C_R   0.630313 0.807225 0.904331 0.351517
C15   C     C_R   0.134150 0.689759 0.406853 0.341973
C16   C     C_R   0.869481 0.306809 0.595562 0.351805
C17   C     C_R   0.358499 0.046065 0.134001 -0.255468
C18   C     C_R   0.642276 0.956563 0.867288 -0.258791
C19   C     C_R   0.141294 0.546194 0.365818 -0.256419
C20   C     C_R   0.857634 0.456270 0.632638 -0.258884
C21   C     C_R   0.392695 0.892535 0.134306 -0.194296
C22   C     C_R   0.619210 0.127361 0.878620 -0.197246
C23   C     C_R   0.107817 0.391030 0.366115 -0.203409
C24   C     C_R   0.880720 0.626939 0.621262 -0.197337
H1    H     H_    0.388297 0.780884 0.164981 0.176746
H2    H     H_    0.633339 0.250891 0.858939 0.217285
H3    H     H_    0.113108 0.278003 0.336222 0.181598
H4    H     H_    0.866655 0.750564 0.640976 0.217215
C25   C     C_R   0.433032 0.879312 0.095732 0.296165
C26   C     C_R   0.582599 0.145174 0.921047 0.227185
C27   C     C_R   0.067122 0.377703 0.404329 0.307162
C28   C     C_R   0.917242 0.644507 0.578739 0.227225
C29   C     C_R   0.439995 0.023110 0.055474 -0.128540
C30   C     C_R   0.560616 0.989256 0.944678 -0.109229
C31   C     C_R   0.059570 0.522439 0.444048 -0.128175
C32   C     C_R   0.939134 0.488422 0.555058 -0.109232
C33   C     C_1   0.482470 0.014697 0.016209 0.098351
C34   C     C_1   0.517847 0.005903 0.983579 0.105525
C35   C     C_1   0.017143 0.513587 0.483359 0.102038
C36   C     C_1   0.981823 0.504799 0.516057 0.105133
C37   C     C_3   0.960910 0.900058 0.023430 0.245503
C38   C     C_3   0.038203 0.090611 0.978088 0.197739
C39   C     C_3   0.539091 0.399950 0.476576 0.245432
C40   C     C_3   0.461801 0.590735 0.521909 0.197754
C41   C     C_3   0.984478 0.084838 0.048060 0.206623
C42   C     C_3   0.014656 0.906634 0.953540 0.199839
C43   C     C_3   0.515524 0.584727 0.451933 0.206696
C44   C     C_3   0.485348 0.406761 0.546467 0.199894
C45   C     C_1   0.128398 0.045708 0.125992 -0.176308
C46   C     C_1   0.871338 0.953540 0.874423 -0.174579
C47   C     C_1   0.371601 0.545693 0.374010 -0.176321
C48   C     C_1   0.628663 0.453556 0.625577 -0.174509
C49   C     C_3   0.018468 0.829129 0.017491 0.264191
C50   C     C_3   0.980489 0.161230 0.983812 0.176780
C51   C     C_3   0.481534 0.329139 0.482522 0.264179
C52   C     C_3   0.519516 0.661235 0.516177 0.176784
C53   C     C_3   0.042668 0.013507 0.042597 -0.106024
C54   C     C_3   0.956559 0.976222 0.958827 -0.128764
C55   C     C_3   0.457333 0.513513 0.457404 -0.106043
C56   C     C_3   0.543444 0.476230 0.541173 -0.128789
C57   C     C_1   0.089855 0.034879 0.088237 0.015009
C58   C     C_1   0.909647 0.961072 0.912578 0.007413
C59   C     C_1   0.410145 0.534872 0.411765 0.015034
C60   C     C_1   0.590355 0.461085 0.587422 0.007406
Cl1   Cl    Cl    0.413853 0.355736 0.002748 -0.567097
Cl2   Cl    Cl    0.587346 0.683608 0.005174 -0.693692
Cl3   Cl    Cl    0.084441 0.857156 0.495910 -0.566529
Cl4   Cl    Cl    0.912123 0.182918 0.494571 -0.694592
Cl5   Cl    Cl    0.320561 0.378726 0.084364 -0.549389
Cl6   Cl    Cl    0.669150 0.604666 0.908554 -0.628536
Cl7   Cl    Cl    0.177356 0.882940 0.414034 -0.550460
Cl8   Cl    Cl    0.830603 0.104383 0.591411 -0.628305
N1    N     N_2   0.465316 0.717805 0.097238 -0.453019
H5    H     H_    0.480422 0.685393 0.057897 0.324242
C61   C     C_3   0.505337 0.702844 0.148492 -0.492308
H6    H     H_    0.526760 0.569769 0.147031 0.212947
H7    H     H_    0.485895 0.708225 0.190392 0.182038
H8    H     H_    0.535319 0.815500 0.148213 0.198102
N2    N     N_2   0.585074 0.306167 0.955751 -0.433528
H9    H     H_    0.547352 0.355042 0.962398 0.308751
C62   C     C_3   0.621502 0.288086 0.010884 -0.304667
H10   H     H_    0.599119 0.311456 0.050127 0.183751
H11   H     H_    0.654791 0.388809 0.011389 0.262941
H12   H     H_    0.640931 0.150798 0.016230 0.155700
N3    N     N_2   0.035736 0.214111 0.404083 -0.449796
H13   H     H_    0.017542 0.184282 0.441710 0.323503
C63   C     C_3   0.004880 0.161389 0.348533 -0.490510
H14   H     H_    0.961011 0.172685 0.352844 0.210234
H15   H     H_    0.014324 0.016964 0.338354 0.207319
H16   H     H_    0.014000 0.248990 0.310669 0.171276
N4    N     N_2   0.914707 0.805413 0.544006 -0.433997
H17   H     H_    0.952404 0.854174 0.537236 0.309192
C64   C     C_3   0.878150 0.787298 0.488971 -0.303286
H18   H     H_    0.900409 0.810816 0.449647 0.185956
H19   H     H_    0.844827 0.887894 0.488605 0.262576
H20   H     H_    0.858772 0.649952 0.483646 0.156024
N5    N     N_2   0.971458 0.181532 0.100715 -0.508223
H21   H     H_    0.993235 0.300135 0.109518 0.264559
C65   C     C_3   0.915449 0.189559 0.112321 -0.534110
H22   H     H_    0.906629 0.324765 0.131483 0.178412
H23   H     H_    0.907607 0.084185 0.145522 0.209815
H24   H     H_    0.887407 0.168184 0.071261 0.194020
N6    N     N_2   0.030230 0.808566 0.902325 -0.522349
H25   H     H_    0.012435 0.858889 0.862261 0.259952
C66   C     C_3   0.087374 0.772214 0.902530 -0.496059
H26   H     H_    0.093584 0.676451 0.865761 0.191351
H27   H     H_    0.104398 0.709123 0.945197 0.210746
H28   H     H_    0.109644 0.900220 0.895350 0.234093
N7    N     N_2   0.528542 0.681298 0.399273 -0.508027
H29   H     H_    0.506757 0.799899 0.390450 0.264656
C67   C     C_3   0.584551 0.689231 0.387667 -0.534079
H30   H     H_    0.593389 0.824497 0.368581 0.178229
H31   H     H_    0.592375 0.583965 0.354402 0.209739
H32   H     H_    0.612594 0.667633 0.428714 0.194061
N8    N     N_2   0.469777 0.308818 0.597690 -0.522249
H33   H     H_    0.487575 0.359179 0.637750 0.259984
C68   C     C_3   0.412633 0.272568 0.597492 -0.496484
H34   H     H_    0.406427 0.176862 0.634261 0.191406
H35   H     H_    0.395604 0.209455 0.554826 0.210602
H36   H     H_    0.390366 0.400624 0.604675 0.234041
N9    N     N_2   0.918721 0.796502 0.047371 -0.499891
H37   H     H_    0.881647 0.860503 0.042182 0.257952
C69   C     C_3   0.932930 0.718055 0.105833 -0.529306
H38   H     H_    0.895930 0.669145 0.124123 0.177719
H39   H     H_    0.953769 0.819107 0.137000 0.210712
H40   H     H_    0.960157 0.599832 0.102758 0.230223
N10   N     N_2   0.081779 0.192269 0.955899 -0.495414
H41   H     H_    0.100175 0.284804 0.986091 0.270896
C70   C     C_3   0.071796 0.264771 0.896160 -0.541863
H42   H     H_    0.110999 0.290171 0.878616 0.215166
H43   H     H_    0.049903 0.396631 0.896530 0.204754
H44   H     H_    0.048099 0.167506 0.865919 0.204380
N11   N     N_2   0.581279 0.296259 0.452644 -0.499960
H45   H     H_    0.618359 0.360162 0.457846 0.257962
C71   C     C_3   0.567077 0.217783 0.394178 -0.528866
H46   H     H_    0.604077 0.168735 0.375900 0.177444
H47   H     H_    0.546262 0.318863 0.363006 0.211121
H48   H     H_    0.539832 0.099650 0.397240 0.230270
N12   N     N_2   0.418227 0.692512 0.544096 -0.495659
H49   H     H_    0.399829 0.785023 0.513901 0.270645
C72   C     C_3   0.428215 0.765106 0.603831 -0.542073
H50   H     H_    0.389014 0.790605 0.621378 0.215008
H51   H     H_    0.450108 0.896927 0.603452 0.204816
H52   H     H_    0.451915 0.667855 0.634075 0.204484
N13   N     N_2   0.961215 0.338014 0.961038 -0.499841
H53   H     H_    0.964340 0.350641 0.916168 0.261954
C73   C     C_3   0.908623 0.395022 0.975099 -0.448350
H54   H     H_    0.895994 0.520542 0.949439 0.206688
H55   H     H_    0.910460 0.430024 0.022716 0.240275
H56   H     H_    0.878027 0.286553 0.963584 0.177050
N14   N     N_2   0.035128 0.642384 0.032109 -0.494515
H57   H     H_    0.039608 0.560723 0.995906 0.300041
C74   C     C_3   0.075755 0.614065 0.081946 -0.558502
H58   H     H_    0.079996 0.465155 0.091223 0.193607
H59   H     H_    0.063658 0.681899 0.122414 0.205584
H60   H     H_    0.115332 0.667066 0.071278 0.214391
N15   N     N_2   0.538796 0.838024 0.538935 -0.499823
H61   H     H_    0.535669 0.850761 0.583804 0.261952
C75   C     C_3   0.591394 0.894867 0.524876 -0.448217
H62   H     H_    0.604027 0.020420 0.550521 0.206717
H63   H     H_    0.589566 0.929749 0.477254 0.240232
H64   H     H_    0.621985 0.786353 0.536407 0.177059
N16   N     N_2   0.464874 0.142396 0.467918 -0.494532
H65   H     H_    0.460395 0.060818 0.504127 0.300024
C76   C     C_3   0.424243 0.114052 0.418087 -0.558374
H66   H     H_    0.420002 0.965131 0.408820 0.193569
H67   H     H_    0.436337 0.181785 0.377613 0.206177
H68   H     H_    0.384667 0.167142 0.428756 0.214053

loop_
_geom_bond_atom_site_label_1
_geom_bond_atom_site_label_2
_ccdc_geom_bond_type
C42   N6    S    
C40   C52   S    
C67   H32   S    
C55   C59   S    
C73   H54   S    
O1    C5    A    
N11   H45   S    
C27   C31   A    
O19   V1    S    
O13   V1    S    
N13   H53   S    
O12   C8    A    
O3    C7    A    
C63   H14   S    
C24   C28   A    
C52   C56   S    
O15   V3    S    
N6    C66   S    
N9    H37   S    
C67   H30   S    
N14   C74   S    
N15   H61   S    
O7    C3    A    
C62   H11   S    
C72   H50   S    
C7    C18   S    
C51   N16   S    
C65   H22   S    
O2    V4    S    
O9    V1    S    
N12   C72   S    
C16   Cl8   S    
C14   C18   A    
C44   C51   S    
C64   H19   S    
O16   V4    S    
O4    C8    A    
C10   C30   A    
C65   H23   S    
N4    H17   S    
C6    C19   S    
O1    V3    S    
C11   C31   A    
C43   N7    S    
C18   C22   A    
O3    V1    S    
N3    C63   S    
N9    C69   S    
C24   H4    S    
C1    O15   A    
C44   N8    S    
C69   H38   S    
C2    O16   A    
C74   H59   S    
O2    C6    A    
N10   H41   S    
C71   H47   S    
O14   V2    S    
C1    C48   S    
C49   C53   S    
C70   H43   S    
C48   C60   T    
O5    V1    S    
C40   C44   S    
C66   H28   S    
C12   Cl4   S    
O11   C7    A    
C21   C25   A    
C39   C56   S    
C49   N14   S    
C4    C45   S    
C27   N3    S    
C42   C49   S    
C8    C17   S    
N13   C73   S    
C22   C26   A    
C41   C50   S    
C72   H51   S    
O10   V2    S    
C75   H64   S    
C43   C52   S    
N1    C61   S    
N1    H5    S    
C43   C55   S    
N15   C75   S    
C38   C50   S    
C73   H56   S    
O7    V3    S    
O9    C5    A    
O8    V4    S    
C26   N2    S    
C12   C16   A    
C69   H40   S    
C37   C49   S    
C63   H15   S    
N3    H13   S    
C64   H20   S    
C25   C29   A    
O18   V4    S    
C65   H24   S    
C23   H3    S    
C25   N1    S    
C54   C58   S    
C50   N13   S    
C9    C13   A    
C28   C32   A    
C76   H68   S    
C11   C15   A    
C75   H62   S    
C10   Cl2   S    
O5    C1    A    
C9    Cl1   S    
C5    C20   S    
C73   H55   S    
C2    C47   S    
C50   C54   S    
C71   H46   S    
C41   N5    S    
O8    C4    A    
C74   H60   S    
C45   C57   T    
C14   Cl6   S    
C21   H1    S    
C71   H48   S    
C13   Cl5   S    
C39   N11   S    
C62   H12   S    
C46   C58   T    
C70   H44   S    
O11   V3    S    
C15   Cl7   S    
N5    H21   S    
C44   C56   S    
C30   C34   S    
C47   C59   T    
O6    V2    S    
C72   H52   S    
N7    H29   S    
N2    C62   S    
C68   H36   S    
C37   N9    S    
N6    H25   S    
N5    C65   S    
C23   C27   A    
C66   H26   S    
C26   C30   A    
C40   N12   S    
C76   H66   S    
C67   H31   S    
N4    C64   S    
C3    O13   A    
C9    C29   A    
C69   H39   S    
C10   C14   A    
C40   C55   S    
O17   V3    S    
C56   C60   S    
C52   N15   S    
C3    C46   S    
O6    C2    A    
C15   C19   A    
N8    H33   S    
C29   C33   S    
O12   V4    S    
C62   H10   S    
C22   H2    S    
C31   C35   S    
C61   H6    S    
C32   C36   S    
O10   C6    A    
C68   H35   S    
C38   N10   S    
N14   H57   S    
C17   C21   A    
C68   H34   S    
C38   C53   S    
C51   C55   S    
N8    C68   S    
C37   C54   S    
C38   C42   S    
C37   C41   S    
O20   V2    S    
C28   N4    S    
C63   H16   S    
C39   C43   S    
N10   C70   S    
C13   C17   A    
C33   C34   T    
C42   C54   S    
O4    V2    S    
N16   C76   S    
N12   H49   S    
C41   C53   S    
C35   C36   T    
C16   C20   A    
C61   H8    S    
C75   H63   S    
N11   C71   S    
C74   H58   S    
C4    O14   A    
N2    H9    S    
N7    C67   S    
C12   C32   A    
N16   H65   S    
C76   H67   S    
C70   H42   S    
C64   H18   S    
C19   C23   A    
C61   H7    S    
C39   C51   S    
C53   C57   S    
C20   C24   A    
C66   H27   S    
C11   Cl3   S    
