data_mof_unit_21470.cif
_audit_creation_date              2012-12-10T19:44:33-0500
_audit_creation_method            fapswitch 2.2
_symmetry_space_group_name_H-M    P1
_symmetry_Int_Tables_number       1
_space_group_crystal_system       triclinic
_cell_length_a                    8.621341
_cell_length_b                    15.035138
_cell_length_c                    14.185131
_cell_angle_alpha                 87.225682
_cell_angle_beta                  97.180465
_cell_angle_gamma                 90.34455
_cell_volume                      1822.16137718

loop_
_atom_site_label
_atom_site_type_symbol
_atom_type_description
_atom_site_fract_x
_atom_site_fract_y
_atom_site_fract_z
_atom_type_partial_charge
C1    C     C_R   0.505674 0.327285 0.503374 1.001360
C2    C     C_R   0.499081 0.672511 0.496868 1.001346
C3    C     C_R   0.423075 0.428270 0.104588 0.287655
C4    C     C_R   0.577982 0.570694 0.895982 0.277007
C5    C     C_R   0.406145 0.441149 0.201654 0.168332
C6    C     C_R   0.597902 0.556562 0.799553 0.169131
C7    C     C_R   0.609815 0.546852 0.210743 0.074179
C8    C     C_R   0.384919 0.457099 0.788290 0.012021
C9    C     C_R   0.615360 0.544397 0.112719 -0.191708
C10   C     C_R   0.377753 0.459840 0.886197 -0.191619
C11   C     C_R   0.506941 0.493691 0.054423 0.027942
C12   C     C_R   0.490444 0.506909 0.945256 0.028286
C13   C     C_R   0.201821 0.503335 0.476740 0.987908
C14   C     C_R   0.797741 0.496974 0.523354 0.987561
C15   C     C_2   0.041823 0.524153 0.471148 0.068593
C16   C     C_2   0.957014 0.476657 0.529593 0.061124
C17   C     C_R   0.484421 0.084871 0.583217 0.002496
C18   C     C_R   0.444393 0.914570 0.417387 -0.003135
C19   C     C_R   0.496806 0.176796 0.592848 0.449387
C20   C     C_R   0.444671 0.822063 0.409461 0.355615
C21   C     C_R   0.527170 0.230920 0.511647 -0.189950
C22   C     C_R   0.511977 0.768637 0.490046 -0.160994
C23   C     C_R   0.582779 0.191639 0.434790 -0.191867
C24   C     C_R   0.600983 0.807607 0.566363 -0.169936
C25   C     C_R   0.598037 0.100657 0.434480 -0.177447
C26   C     C_R   0.619735 0.898366 0.566080 -0.174096
C27   C     C_R   0.539926 0.047254 0.504915 -0.000589
C28   C     C_R   0.535327 0.951924 0.495129 0.015259
H1    H     H_    0.617437 0.231447 0.375182 0.210514
H2    H     H_    0.660407 0.767421 0.625345 0.203047
H3    H     H_    0.646918 0.071619 0.376267 0.177595
H4    H     H_    0.694237 0.927281 0.623944 0.179777
H5    H     H_    0.692964 0.586764 0.253629 0.220250
H6    H     H_    0.298652 0.420618 0.744607 0.240224
H7    H     H_    0.707229 0.581273 0.084109 0.227212
H8    H     H_    0.282043 0.425939 0.914282 0.238670
N1    N     N_R   0.500000 0.499980 0.252470 -0.114555
N2    N     N_R   0.500000 0.500020 0.747530 -0.123586
O1    O     O_R   0.500010 0.369070 0.579480 -0.528128
O2    O     O_R   0.499990 0.630930 0.420520 -0.533211
O3    O     O_R   0.500010 0.369060 0.420520 -0.648969
O4    O     O_R   0.499990 0.630940 0.579480 -0.615275
O5    O     O_R   0.271750 0.500000 0.560890 -0.616598
O6    O     O_R   0.728250 0.500000 0.439110 -0.622463
O7    O     O_R   0.271750 0.499990 0.401930 -0.576332
O8    O     O_R   0.728250 0.500010 0.598070 -0.605010
Zn1   Zn    Zn3+2 0.500000 0.500010 0.606140 1.077753
Zn2   Zn    Zn3+2 0.500000 0.499990 0.393860 1.083749
S1    S     S_3+6 0.990576 0.633175 0.421239 0.033168
O9    O     O_2   0.980034 0.631893 0.314816 -0.243703
O10   O     O_2   0.839312 0.667056 0.448037 -0.347468
O11   O     O_3   0.132762 0.703711 0.461743 -0.568654
H9    H     H_    0.095284 0.763500 0.436839 0.393688
S2    S     S_3+6 0.007452 0.369173 0.583085 0.038839
O12   O     O_2   0.149982 0.331143 0.548914 -0.314725
O13   O     O_2   0.032893 0.375782 0.689170 -0.272985
O14   O     O_3   0.857564 0.299407 0.556060 -0.569853
H10   H     H_    0.884709 0.244368 0.595788 0.405514
N3    N     N_3   0.406516 0.031443 0.649766 -0.355405
H11   H     H_    0.317654 0.994846 0.612315 0.202201
H12   H     H_    0.486191 0.987677 0.688955 0.234130
N4    N     N_3   0.346214 0.969471 0.349098 -0.367109
H13   H     H_    0.276379 0.009535 0.384883 0.203164
H14   H     H_    0.415403 0.009728 0.309250 0.224978
S3    S     S_3+6 0.488391 0.217894 0.708322 0.094455
O15   O     O_2   0.332610 0.260977 0.710599 -0.233331
O16   O     O_2   0.508302 0.143739 0.783825 -0.231156
O17   O     O_3   0.632871 0.291857 0.734503 -0.507902
H15   H     H_    0.621844 0.309530 0.799699 0.393398
S4    S     S_3+6 0.386219 0.778346 0.294864 0.092543
O18   O     O_2   0.276315 0.701231 0.300855 -0.170024
O19   O     O_2   0.308479 0.846741 0.223943 -0.234035
O20   O     O_3   0.547848 0.742613 0.253353 -0.520734
H16   H     H_    0.615882 0.795780 0.250887 0.366774
S5    S     S_3+6 0.387915 0.318762 0.062807 0.012050
O21   O     O_2   0.479853 0.301920 0.982105 -0.260674
O22   O     O_2   0.437306 0.250414 0.141505 -0.296920
O23   O     O_3   0.195785 0.306275 0.027379 -0.558396
H17   H     H_    0.186015 0.246495 0.000791 0.417592
S6    S     S_3+6 0.595059 0.682685 0.932643 0.023921
O24   O     O_2   0.762021 0.701900 0.970569 -0.295702
O25   O     O_2   0.546821 0.745408 0.848387 -0.272855
O26   O     O_3   0.477893 0.700765 0.016182 -0.490381
H18   H     H_    0.505452 0.761197 0.037677 0.419187
N5    N     N_3   0.291753 0.392580 0.248338 -0.365160
H19   H     H_    0.184453 0.396640 0.204957 0.219309
H20   H     H_    0.324320 0.325940 0.259777 0.239320
N6    N     N_3   0.716275 0.603166 0.753994 -0.378612
H21   H     H_    0.807459 0.557863 0.753402 0.207462
H22   H     H_    0.766639 0.654346 0.794339 0.235567

loop_
_geom_bond_atom_site_label_1
_geom_bond_atom_site_label_2
_ccdc_geom_bond_type
C25   H3    S    
C1    C21   S    
C5    N1    A    
O20   H16   S    
C14   O8    A    
N5    H19   S    
C26   H4    S    
C23   H1    S    
O1    Zn1   S    
C19   C21   A    
C24   C26   A    
C4    S6    S    
C15   C16   D    
C6    N6    S    
O2    Zn2   S    
N4    H14   S    
S2    O12   D    
O17   H15   S    
S1    O10   D    
C2    C22   S    
C6    N2    A    
S4    O18   D    
C4    C12   A    
C3    S5    S    
C18   C20   A    
C5    N5    S    
S3    O17   S    
C15   S1    S    
N3    H11   S    
C7    H5    S    
C20   S4    S    
C8    N2    A    
S6    O26   S    
C16   S2    S    
N5    H20   S    
S2    O13   D    
N3    H12   S    
C17   C27   A    
C18   C28   A    
C4    C6    A    
O23   H17   S    
C18   N4    S    
S3    O16   D    
S5    O21   D    
N4    H13   S    
S5    O22   D    
O26   H18   S    
S1    O11   S    
S4    O20   S    
C7    N1    A    
C8    H6    S    
N1    Zn2   S    
C9    C11   A    
N2    Zn1   S    
C10   C12   A    
C17   N3    S    
S6    O25   D    
N6    H22   S    
S1    O9    D    
C13   C15   S    
C14   C16   S    
C13   O5    A    
O11   H9    S    
C14   O6    A    
O7    Zn2   S    
C1    O3    A    
C7    C9    A    
O8    Zn1   S    
C20   C22   A    
S6    O24   D    
C3    C5    A    
S4    O19   D    
C11   C12   S    
C25   C27   A    
C26   C28   A    
C21   C23   A    
C13   O7    A    
O14   H10   S    
C2    O4    A    
C17   C19   A    
O3    Zn2   S    
C19   S3    S    
C22   C24   A    
O4    Zn1   S    
C23   C25   A    
S5    O23   S    
C24   H2    S    
C3    C11   A    
C1    O1    A    
C2    O2    A    
N6    H21   S    
C8    C10   A    
S3    O15   D    
C27   C28   S    
C9    H7    S    
C10   H8    S    
O5    Zn1   S    
O6    Zn2   S    
S2    O14   S    
