data_mof_unit_37487.cif
_audit_creation_date              2013-03-05T16:21:52-0500
_audit_creation_method            fapswitch 2.2
_symmetry_space_group_name_H-M    P1
_symmetry_Int_Tables_number       1
_space_group_crystal_system       triclinic
_cell_length_a                    15.132456
_cell_length_b                    14.08085
_cell_length_c                    10.867077
_cell_angle_alpha                 89.548017
_cell_angle_beta                  91.475738
_cell_angle_gamma                 90.563845
_cell_volume                      2314.58570863

loop_
_atom_site_label
_atom_site_type_symbol
_atom_site_description
_atom_site_fract_x
_atom_site_fract_y
_atom_site_fract_z
_atom_type_partial_charge
O1    O     O_R   0.371460 0.581430 0.500010 -0.632113
O2    O     O_R   0.628540 0.581430 0.499990 -0.595646
O3    O     O_R   0.371470 0.418560 0.500010 -0.479521
O4    O     O_R   0.628530 0.418560 0.499990 -0.536475
C1    C     C_R   0.329958 0.499157 0.500315 0.847506
C2    C     C_R   0.669267 0.500508 0.496956 0.847452
O5    O     O_R   0.500000 0.581450 0.319650 -0.606382
O6    O     O_R   0.500000 0.581450 0.680350 -0.617343
O7    O     O_R   0.500010 0.418580 0.319650 -0.557405
O8    O     O_R   0.499990 0.418580 0.680350 -0.532847
C3    C     C_R   0.509250 0.501432 0.263178 0.835101
C4    C     C_R   0.492746 0.499749 0.737869 0.829610
Cu1   Cu    Cu3+1 0.500000 0.596430 0.500000 0.956778
Cu2   Cu    Cu3+1 0.500000 0.403570 0.500000 1.067165
C5    C     C_R   0.528555 0.683397 0.111738 -0.222428
C6    C     C_R   0.448588 0.671814 0.880907 -0.267365
H1    H     H_    0.565391 0.690708 0.197255 0.254123
H2    H     H_    0.408046 0.667619 0.797798 0.216105
C7    C     C_R   0.511164 0.767184 0.045600 0.253456
C8    C     C_R   0.464440 0.761470 0.931916 0.270516
C9    C     C_R   0.481873 0.588472 0.937313 -0.021581
C10   C     C_R   0.508797 0.592847 0.061728 0.019741
C11   C     C_R   0.521411 0.506681 0.128563 -0.103160
C12   C     C_R   0.485869 0.500791 0.874259 -0.129367
C13   C     C_R   0.532631 0.421993 0.063951 0.050011
C14   C     C_R   0.498169 0.415850 0.943117 0.083310
C15   C     C_R   0.094375 0.564202 0.425431 -0.146610
C16   C     C_R   0.904915 0.482554 0.602060 -0.145087
H3    H     H_    0.060559 0.618587 0.371829 0.144970
H4    H     H_    0.940861 0.470399 0.688120 0.150568
C17   C     C_R   0.186214 0.563239 0.428267 -0.249828
C18   C     C_R   0.813103 0.483838 0.602037 -0.177105
H5    H     H_    0.220952 0.613409 0.371600 0.159197
H6    H     H_    0.779283 0.471361 0.687478 0.175701
C19   C     C_R   0.232612 0.496255 0.499832 -0.122762
C20   C     C_R   0.765162 0.501894 0.492858 -0.130674
C21   C     C_R   0.184671 0.425037 0.563906 0.374576
C22   C     C_R   0.809582 0.518040 0.381659 0.327153
C23   C     C_R   0.092341 0.425797 0.558393 -0.212303
C24   C     C_R   0.901822 0.514591 0.382494 -0.195048
H7    H     H_    0.055645 0.371896 0.607838 0.177752
H8    H     H_    0.936271 0.525586 0.297316 0.173574
C25   C     C_R   0.046896 0.496108 0.491901 0.059654
C26   C     C_R   0.949836 0.497824 0.492194 0.050095
C27   C     C_R   0.553836 0.109105 0.586522 -0.075494
C28   C     C_R   0.446032 0.107751 0.416437 -0.078624
C29   C     C_R   0.561491 0.209327 0.569848 0.417377
C30   C     C_R   0.437753 0.207809 0.432167 0.429544
N1    N     N_R   0.500000 0.258690 0.500000 -0.302938
C31   C     C_R   0.500432 0.054783 0.501712 -0.004082
C32   C     C_R   0.422716 0.891395 0.486907 -0.164830
C33   C     C_R   0.578386 0.892436 0.517969 -0.213068
H9    H     H_    0.359640 0.926758 0.480540 0.140867
H10   H     H_    0.641424 0.928974 0.526843 0.138526
C34   C     C_R   0.427327 0.793430 0.459666 0.309867
C35   C     C_R   0.573323 0.793248 0.541503 0.312020
N2    N     N_R   0.500000 0.741330 0.500000 -0.200419
C36   C     C_R   0.500607 0.945410 0.502663 0.119575
C37   C     C_3   0.606516 0.355613 0.105784 -0.313992
C38   C     C_3   0.574875 0.260823 0.159637 -0.424886
C39   C     C_3   0.646159 0.214729 0.241449 -0.763435
H11   H     H_    0.707103 0.203791 0.188755 0.261563
H12   H     H_    0.661976 0.260315 0.322149 0.281490
H13   H     H_    0.621985 0.144762 0.275260 0.249552
H14   H     H_    0.515661 0.270933 0.214552 0.266668
H15   H     H_    0.557562 0.211491 0.084240 0.205512
H16   H     H_    0.649739 0.341321 0.026886 0.216469
H17   H     H_    0.649250 0.392431 0.175553 0.235835
C40   C     C_3   0.432456 0.335507 0.921188 -0.374312
C41   C     C_3   0.342138 0.364104 0.971565 -0.317098
C42   C     C_3   0.273299 0.284465 0.962060 -0.680438
H18   H     H_    0.281007 0.241937 0.877516 0.293373
H19   H     H_    0.279573 0.237564 0.043681 0.242041
H20   H     H_    0.205920 0.315041 0.960879 0.249425
H21   H     H_    0.349778 0.384779 0.069749 0.238079
H22   H     H_    0.317052 0.427580 0.920962 0.241359
H23   H     H_    0.426302 0.317281 0.822688 0.256421
H24   H     H_    0.453984 0.269545 0.967861 0.179302
C43   C     C_3   0.353059 0.751178 0.381160 -0.395780
C44   C     C_3   0.325353 0.813083 0.269658 -0.452161
C45   C     C_3   0.263982 0.759538 0.179984 -0.807763
H25   H     H_    0.296314 0.694349 0.146811 0.250449
H26   H     H_    0.201243 0.740119 0.225005 0.252543
H27   H     H_    0.248260 0.805706 0.099198 0.263691
H28   H     H_    0.289996 0.876966 0.300541 0.225671
H29   H     H_    0.384843 0.835493 0.219314 0.265979
H30   H     H_    0.375237 0.684378 0.340793 0.257267
H31   H     H_    0.295147 0.740066 0.440304 0.204985
C46   C     C_3   0.646380 0.749810 0.621381 -0.385258
C47   C     C_3   0.672168 0.809658 0.734913 -0.449115
C48   C     C_3   0.729202 0.753380 0.827102 -0.733087
H32   H     H_    0.691528 0.691421 0.863092 0.258702
H33   H     H_    0.789873 0.728076 0.782752 0.249321
H34   H     H_    0.748755 0.799559 0.905771 0.269152
H35   H     H_    0.710241 0.873646 0.706607 0.221271
H36   H     H_    0.611636 0.832278 0.781831 0.270343
H37   H     H_    0.623194 0.682060 0.659888 0.261259
H38   H     H_    0.705732 0.738553 0.565319 0.210011
N3    N     N_R   0.545427 0.855803 0.092144 0.142486
O9    O     O_R   0.554160 0.869019 0.210246 -0.405971
O10   O     O_R   0.585278 0.914257 0.018327 -0.366217
N4    N     N_R   0.433027 0.844508 0.866764 0.127213
O11   O     O_R   0.407343 0.838840 0.751931 -0.395714
O12   O     O_R   0.420723 0.923608 0.924060 -0.375617
N5    N     N_R   0.227694 0.353673 0.638056 0.137439
O13   O     O_R   0.297148 0.375673 0.704427 -0.432606
O14   O     O_R   0.190258 0.271070 0.654412 -0.337800
N6    N     N_R   0.762787 0.538059 0.267961 0.082050
O15   O     O_R   0.698651 0.598661 0.265453 -0.399845
O16   O     O_R   0.794127 0.509745 0.164185 -0.384757
C49   C     C_3   0.605640 0.063601 0.693487 -0.373038
C50   C     C_3   0.584713 0.103272 0.821125 -0.306032
C51   C     C_3   0.666274 0.097125 0.906883 -0.712222
H39   H     H_    0.698553 0.026985 0.898694 0.267940
H40   H     H_    0.714561 0.153899 0.883245 0.264538
H41   H     H_    0.647438 0.105232 0.003834 0.252142
H42   H     H_    0.561171 0.177327 0.817539 0.229959
H43   H     H_    0.530080 0.060973 0.861275 0.268906
H44   H     H_    0.590553 0.987634 0.703293 0.204053
H45   H     H_    0.677270 0.070594 0.674568 0.230648
C52   C     C_3   0.391943 0.059053 0.313651 -0.378572
C53   C     C_3   0.402887 0.099563 0.183598 -0.379037
C54   C     C_3   0.332762 0.057035 0.096205 -0.733842
H46   H     H_    0.334171 0.978423 0.100397 0.284665
H47   H     H_    0.265863 0.080080 0.122348 0.245445
H48   H     H_    0.344923 0.081069 0.000523 0.266701
H49   H     H_    0.395721 0.177068 0.180022 0.249491
H50   H     H_    0.469497 0.081491 0.150494 0.254630
H51   H     H_    0.413571 0.985710 0.302045 0.220221
H52   H     H_    0.321144 0.058316 0.338293 0.234904
N7    N     N_R   0.638225 0.257007 0.620391 0.142667
O17   O     O_R   0.715500 0.237960 0.577530 -0.384534
O18   O     O_R   0.633705 0.309100 0.718165 -0.390911
N8    N     N_R   0.358749 0.252841 0.386052 0.142726
O19   O     O_R   0.282334 0.222542 0.422940 -0.327840
O20   O     O_R   0.360946 0.314544 0.296698 -0.416063

loop_
_geom_bond_atom_site_label_1
_geom_bond_atom_site_label_2
_geom_bond_distance
_ccdc_geom_bond_type
C22   C24   1.396924 A    
C22   N6    1.435588 S    
C6    C9    1.411020 A    
C15   H3    1.083009 S    
C40   H23   1.104093 S    
C7    C8    1.409992 A    
C52   H52   1.110918 S    
O7    Cu2   1.969587 S    
C43   H30   1.100054 S    
C45   H25   1.111326 S    
C54   H46   1.107895 S    
C23   H7    1.083393 S    
N6    O15   1.298223 A    
C5    C7    1.400262 A    
N5    O14   1.301657 A    
O6    Cu1   1.969539 S    
O1    C1    1.312338 A    
C18   C20   1.397551 A    
C30   N8    1.435802 S    
C19   C21   1.420362 A    
C12   C14   1.417109 A    
C40   C41   1.543580 S    
C50   H42   1.105314 S    
C54   H47   1.110674 S    
Cu2   N1    2.040032 S    
C8    N4    1.440464 S    
C35   N2    1.390116 A    
C49   H44   1.096514 S    
C3    C11   1.480271 S    
C53   H49   1.098054 S    
C39   H12   1.110593 S    
O2    Cu1   1.958628 S    
C43   H31   1.109197 S    
C44   H29   1.107404 S    
C37   H16   1.112490 S    
C5    C10   1.416144 A    
C49   C50   1.540957 S    
C2    C20   1.452904 S    
C17   H5    1.075681 S    
C28   C52   1.530271 S    
C41   C42   1.525322 S    
O6    C4    1.309927 A    
C51   H41   1.105574 S    
C24   H8    1.083300 S    
C38   H15   1.103100 S    
C37   C38   1.530597 S    
Cu1   Cu2   2.715634 S    
C53   H50   1.111461 S    
C40   H24   1.102747 S    
O2    C2    1.301805 A    
C50   C51   1.530004 S    
C45   H26   1.110038 S    
C33   H10   1.081820 S    
C27   C29   1.425338 A    
C33   C36   1.405196 A    
C28   C30   1.427681 A    
C15   C17   1.389496 A    
N4    O11   1.300248 A    
C31   C36   1.540046 S    
C16   C18   1.389645 A    
C29   N1    1.375920 A    
O8    Cu2   1.972901 S    
C48   H32   1.111495 S    
C42   H19   1.104337 S    
C7    N3    1.437168 S    
C54   H48   1.110237 S    
C23   C25   1.397043 A    
O3    C1    1.302595 A    
C13   C14   1.403334 A    
C16   C26   1.403076 A    
C46   H37   1.096805 S    
C49   H45   1.111729 S    
C32   H9    1.081306 S    
C18   H6    1.083975 S    
C39   H13   1.110653 S    
O5    C3    1.297736 A    
C25   C26   1.469277 S    
C21   N5    1.433874 S    
C44   H28   1.109740 S    
C37   H17   1.111828 S    
C48   H33   1.110890 S    
C34   C43   1.513369 S    
N3    O9    1.301475 A    
C24   C26   1.399688 A    
C6    C8    1.398844 A    
C32   C36   1.403959 A    
N4    O12   1.297640 A    
O7    C3    1.321782 A    
C52   C53   1.532210 S    
O3    Cu2   1.958462 S    
O8    C4    1.313879 A    
O4    C2    1.303470 A    
C35   C46   1.518325 S    
N3    O10   1.299741 A    
C38   H14   1.100311 S    
C34   N2    1.387687 A    
C41   H22   1.110653 S    
C17   C19   1.400264 A    
O1    Cu1   1.954495 S    
N7    O17   1.300945 A    
C45   H27   1.110500 S    
C51   H39   1.111328 S    
C5    H1    1.076403 S    
C28   C31   1.433383 A    
C30   N1    1.379584 A    
C52   H51   1.095632 S    
C44   C45   1.527010 S    
N7    O18   1.299496 A    
C47   H35   1.110364 S    
C42   H20   1.110407 S    
N8    O20   1.298701 A    
C27   C49   1.525602 S    
C47   H36   1.110328 S    
N8    O19   1.300507 A    
N5    O13   1.295717 A    
C4    C12   1.488683 S    
C46   H38   1.111511 S    
C16   H4    1.083007 S    
C53   C54   1.526817 S    
C42   H18   1.109896 S    
C21   C23   1.397073 A    
C48   H34   1.110480 S    
C50   H43   1.110579 S    
C47   C48   1.527383 S    
C27   C31   1.431145 A    
C1    C19   1.473118 S    
C20   C22   1.413594 A    
N6    O16   1.301542 A    
C32   C34   1.415889 A    
C11   C13   1.402563 A    
O4    Cu2   1.954331 S    
C39   H11   1.110641 S    
C43   C44   1.538886 S    
C15   C25   1.399842 A    
O5    Cu1   1.972850 S    
Cu1   N2    2.040315 S    
C6    H2    1.080350 S    
C9    C12   1.419294 A    
C29   N7    1.434703 S    
C41   H21   1.111055 S    
C14   C40   1.515044 S    
C10   C11   1.421113 A    
C38   C39   1.526617 S    
C13   C37   1.522510 S    
C46   C47   1.539400 S    
C9    C10   1.403642 A    
C33   C35   1.419573 A    
C51   H40   1.110815 S    
