data_mof_unit_9504.cif
_audit_creation_date              2012-12-11T15:50:33-0500
_audit_creation_method            fapswitch 2.2
_symmetry_space_group_name_H-M    P1
_symmetry_Int_Tables_number       1
_space_group_crystal_system       triclinic
_cell_length_a                    19.004674
_cell_length_b                    10.947346
_cell_length_c                    18.778805
_cell_angle_alpha                 89.888232
_cell_angle_beta                  91.170313
_cell_angle_gamma                 89.988496
_cell_volume                      3906.12177957

loop_
_atom_site_label
_atom_site_type_symbol
_atom_type_description
_atom_site_fract_x
_atom_site_fract_y
_atom_site_fract_z
_atom_type_partial_charge
C1    C     C_R   0.273796 0.039455 0.854757 0.543322
C2    C     C_R   0.759225 0.574553 0.927580 0.055014
C3    C     C_R   0.229136 0.546493 0.353365 0.556732
C4    C     C_R   0.471032 0.823344 0.647664 0.554695
C5    C     C_R   0.532940 0.823332 0.354852 0.554494
C6    C     C_R   0.971032 0.323344 0.647664 0.554695
C7    C     C_R   0.032940 0.323332 0.354852 0.554494
C8    C     C_R   0.260144 0.638710 0.642952 0.547973
C9    C     C_R   0.738211 0.643199 0.358898 0.549748
C10   C     C_R   0.760144 0.138710 0.642952 0.547973
C11   C     C_R   0.238211 0.143199 0.358898 0.549748
C12   C     C_3   0.478784 0.927890 0.034795 -0.131957
C13   C     C_R   0.740745 0.074726 0.072409 0.054922
C14   C     C_3   0.521135 0.927732 0.964828 -0.131680
C15   C     C_3   0.978784 0.427890 0.034795 -0.131957
C16   C     C_3   0.021135 0.427732 0.964828 -0.131680
C17   C     C_3   0.430705 0.827260 0.003733 -0.018852
C18   C     C_3   0.569232 0.827202 0.996235 -0.018920
C19   C     C_3   0.930705 0.327260 0.003733 -0.018852
C20   C     C_3   0.069232 0.327202 0.996235 -0.018920
C21   C     C_3   0.472533 0.826460 0.935242 0.034886
C22   C     C_3   0.527401 0.826743 0.064731 0.034640
C23   C     C_3   0.972533 0.326460 0.935242 0.034886
C24   C     C_R   0.259225 0.074553 0.927580 0.055014
C25   C     C_3   0.027402 0.326743 0.064731 0.034640
C26   C     C_1   0.354600 0.829425 0.010416 0.180263
C27   C     C_1   0.645347 0.829417 0.989605 0.180100
C28   C     C_1   0.854600 0.329425 0.010416 0.180263
C29   C     C_1   0.145347 0.329417 0.989605 0.180100
C30   C     C_R   0.304717 0.551071 0.039509 0.033993
C31   C     C_R   0.695281 0.550932 0.960583 0.034104
C32   C     C_R   0.804717 0.051071 0.039509 0.033993
C33   C     C_R   0.195281 0.050932 0.960583 0.034104
C34   C     C_R   0.310644 0.561640 0.966208 0.047565
C35   C     C_R   0.689382 0.561619 0.033875 0.047642
C36   C     C_R   0.810644 0.061640 0.966208 0.047565
C37   C     C_R   0.726202 0.039589 0.145256 0.543803
C38   C     C_R   0.189382 0.061619 0.033875 0.047642
C39   C     C_R   0.187998 0.616800 0.956150 -0.137442
C40   C     C_R   0.811947 0.617121 0.043754 -0.137547
C41   C     C_R   0.687998 0.116800 0.956150 -0.137442
C42   C     C_R   0.311947 0.117121 0.043754 -0.137547
C43   C     C_R   0.183335 0.614060 0.029545 -0.131952
C44   C     C_R   0.816601 0.614119 0.970347 -0.131573
C45   C     C_R   0.683335 0.114060 0.029545 -0.131952
C46   C     C_R   0.316601 0.114119 0.970347 -0.131573
C47   C     C_3   0.352693 0.443611 0.043679 -0.268906
C48   C     C_R   0.773796 0.539455 0.854757 0.543322
C49   C     C_3   0.647320 0.443495 0.956724 -0.268947
C50   C     C_3   0.852692 0.943611 0.043679 -0.268906
C51   C     C_3   0.147320 0.943495 0.956724 -0.268948
C52   C     C_3   0.359812 0.455240 0.963448 -0.276459
C53   C     C_3   0.640262 0.455195 0.036943 -0.276285
C54   C     C_3   0.859812 0.955240 0.963448 -0.276459
C55   C     C_3   0.140262 0.955195 0.036943 -0.276285
C56   C     C_R   0.251562 0.589224 0.923047 0.051472
C57   C     C_R   0.748435 0.589477 0.076973 0.051142
C58   C     C_R   0.751562 0.089223 0.923047 0.051472
C59   C     C_R   0.226202 0.539589 0.145256 0.543803
C60   C     C_R   0.248435 0.089477 0.076973 0.051142
C61   C     C_R   0.517579 0.829789 0.430321 0.018569
C62   C     C_R   0.506074 0.829709 0.579409 0.017780
C63   C     C_R   0.017579 0.329789 0.430321 0.018569
C64   C     C_R   0.006074 0.329709 0.579409 0.017780
C65   C     C_R   0.442532 0.817771 0.863017 0.563159
C66   C     C_R   0.557414 0.817951 0.136973 0.563263
C67   C     C_R   0.942532 0.317771 0.863017 0.563159
C68   C     C_R   0.057414 0.317951 0.136973 0.563263
C69   C     C_R   0.523807 0.722115 0.469504 0.039940
C70   C     C_3   0.521481 0.726360 0.965689 -0.128277
C71   C     C_R   0.518872 0.721311 0.542211 0.027500
C72   C     C_R   0.023807 0.222115 0.469504 0.039939
C73   C     C_R   0.018872 0.221311 0.542211 0.027500
C74   C     C_R   0.512712 0.940888 0.542544 -0.169543
C75   C     C_R   0.517197 0.940966 0.467909 -0.164079
C76   C     C_R   0.012712 0.440888 0.542544 -0.169543
C77   C     C_R   0.017197 0.440966 0.467909 -0.164080
C78   C     C_3   0.485249 0.604535 0.460259 -0.278685
C79   C     C_3   0.480320 0.601703 0.540445 -0.269420
C80   C     C_3   0.985248 0.104535 0.460259 -0.278685
C81   C     C_3   0.478469 0.726518 0.034618 -0.127980
C82   C     C_3   0.980320 0.101703 0.540445 -0.269420
C83   C     C_R   0.252764 0.592682 0.421157 0.017171
C84   C     C_R   0.748463 0.607138 0.581913 0.019946
C85   C     C_R   0.752764 0.092682 0.421157 0.017171
C86   C     C_R   0.248463 0.107138 0.581913 0.019946
C87   C     C_R   0.216876 0.687995 0.453550 0.016557
C88   C     C_R   0.796945 0.679169 0.545315 0.021861
C89   C     C_R   0.716876 0.187995 0.453550 0.016557
C90   C     C_R   0.296945 0.179169 0.545315 0.021861
C91   C     C_R   0.217133 0.695269 0.526164 0.049010
C92   C     C_3   0.021481 0.226360 0.965689 -0.128277
C93   C     C_R   0.793370 0.685252 0.472804 0.037042
C94   C     C_R   0.717133 0.195269 0.526164 0.049010
C95   C     C_R   0.293370 0.185251 0.472804 0.037042
C96   C     C_R   0.298367 0.527112 0.536632 -0.175185
C97   C     C_R   0.684301 0.574137 0.471486 -0.153370
C98   C     C_R   0.798367 0.027111 0.536632 -0.175185
C99   C     C_R   0.184301 0.074138 0.471486 -0.153370
C100  C     C_R   0.299175 0.519994 0.462741 -0.165877
C101  C     C_R   0.687275 0.568224 0.545807 -0.155207
C102  C     C_R   0.799175 0.019994 0.462742 -0.165876
C103  C     C_3   0.978469 0.226518 0.034618 -0.127980
C104  C     C_R   0.187275 0.068224 0.545807 -0.155207
C105  C     C_3   0.141680 0.729721 0.448064 -0.271475
C106  C     C_3   0.876094 0.676222 0.544102 -0.269320
C107  C     C_3   0.641680 0.229721 0.448064 -0.271475
C108  C     C_3   0.376094 0.176222 0.544102 -0.269320
C109  C     C_3   0.141958 0.733829 0.528407 -0.266099
C110  C     C_3   0.871048 0.682894 0.464052 -0.278421
C111  C     C_3   0.641958 0.233829 0.528408 -0.266099
C112  C     C_3   0.371048 0.182894 0.464052 -0.278421
C113  C     C_R   0.260825 0.635221 0.851259 0.540664
C114  C     C_R   0.240745 0.574726 0.072409 0.054922
C115  C     C_R   0.739166 0.635375 0.148729 0.541674
C116  C     C_R   0.760825 0.135221 0.851259 0.540664
C117  C     C_R   0.239166 0.135375 0.148729 0.541674
C118  C     C_R   0.253460 0.610526 0.568739 0.026090
C119  C     C_R   0.741528 0.622695 0.434475 0.022703
C120  C     C_R   0.753459 0.110526 0.568739 0.026090
C121  C     C_R   0.241528 0.122695 0.434475 0.022703
C122  C     C_R   0.270753 0.049075 0.647489 0.551925
C123  C     C_R   0.729136 0.046493 0.353365 0.556732
C124  C     C_R   0.770753 0.549075 0.647489 0.551925
Cr1   Cr    Cr6+3 0.229640 0.835880 0.747370 1.007595
Cr2   Cr    Cr6+3 0.614230 0.677220 0.250660 1.010402
Cr3   Cr    Cr6+3 0.885770 0.177220 0.749340 1.007956
Cr4   Cr    Cr6+3 0.114230 0.177220 0.250660 1.010402
Cr5   Cr    Cr6+3 0.770360 0.835880 0.252630 1.006638
Cr6   Cr    Cr6+3 0.729640 0.335880 0.747370 1.007595
Cr7   Cr    Cr6+3 0.270360 0.335880 0.252630 1.006638
Cr8   Cr    Cr6+3 0.387390 0.989720 0.750850 1.007443
Cr9   Cr    Cr6+3 0.612610 0.989720 0.249150 1.008569
Cr10  Cr    Cr6+3 0.887390 0.489720 0.750850 1.007443
Cr11  Cr    Cr6+3 0.112610 0.489720 0.249150 1.008569
Cr12  Cr    Cr6+3 0.385770 0.677220 0.749340 1.007956
H1    H     H_    0.508921 0.026749 0.570463 0.114182
H2    H     H_    0.511336 0.526527 0.565642 0.123424
H3    H     H_    0.933613 0.116843 0.432332 0.143273
H4    H     H_    0.011336 0.026527 0.565642 0.123425
H5    H     H_    0.331359 0.466413 0.568388 0.123061
H6    H     H_    0.639149 0.537267 0.443204 0.127500
H7    H     H_    0.831359 0.966413 0.568388 0.123061
H8    H     H_    0.139149 0.037267 0.443204 0.127500
H9    H     H_    0.330439 0.449204 0.438949 0.140547
H10   H     H_    0.645550 0.523578 0.574116 0.118596
H11   H     H_    0.830439 0.949203 0.438949 0.140547
H12   H     H_    0.517441 0.026897 0.439672 0.117811
H13   H     H_    0.145550 0.023578 0.574116 0.118596
H14   H     H_    0.104417 0.660818 0.426818 0.163518
H15   H     H_    0.897967 0.587768 0.562372 0.172958
H16   H     H_    0.604417 0.160817 0.426818 0.163518
H17   H     H_    0.397967 0.087768 0.562372 0.172958
H18   H     H_    0.136719 0.821167 0.422813 0.126755
H19   H     H_    0.900435 0.758599 0.568841 0.125847
H20   H     H_    0.636719 0.321167 0.422813 0.126755
H21   H     H_    0.400434 0.258599 0.568841 0.125848
H22   H     H_    0.135263 0.826675 0.550012 0.140389
H23   H     H_    0.008921 0.526749 0.570463 0.114182
H24   H     H_    0.892306 0.769202 0.442124 0.133773
H25   H     H_    0.635262 0.326675 0.550012 0.140389
H26   H     H_    0.392306 0.269202 0.442124 0.133773
H27   H     H_    0.107933 0.663274 0.552699 0.135010
H28   H     H_    0.889217 0.598403 0.437272 0.139484
H29   H     H_    0.607932 0.163274 0.552699 0.135010
H30   H     H_    0.389217 0.098403 0.437272 0.139485
H31   H     H_    0.461710 0.010113 0.064244 0.116135
H32   H     H_    0.538211 0.009820 0.935081 0.116307
H33   H     H_    0.961710 0.510113 0.064244 0.116135
H34   H     H_    0.017442 0.526897 0.439672 0.117811
H35   H     H_    0.038211 0.509820 0.935081 0.116307
H36   H     H_    0.539209 0.644273 0.936822 0.129164
H37   H     H_    0.460701 0.644552 0.063751 0.129372
H38   H     H_    0.039209 0.144273 0.936822 0.129164
H39   H     H_    0.960701 0.144552 0.063751 0.129372
H40   H     H_    0.141833 0.644347 0.925372 0.117754
H41   H     H_    0.858090 0.644831 0.074438 0.117663
H42   H     H_    0.641833 0.144347 0.925372 0.117754
H43   H     H_    0.358090 0.144831 0.074438 0.117663
H44   H     H_    0.132456 0.634085 0.051743 0.130548
H45   H     H_    0.018387 0.030214 0.438895 0.130765
H46   H     H_    0.867462 0.634182 0.948088 0.130640
H47   H     H_    0.632456 0.134085 0.051743 0.130548
H48   H     H_    0.367461 0.134182 0.948088 0.130640
H49   H     H_    0.825100 0.859749 0.060430 0.189759
H50   H     H_    0.174892 0.859602 0.940138 0.189662
H51   H     H_    0.325100 0.359749 0.060430 0.189759
H52   H     H_    0.674892 0.359602 0.940138 0.189662
H53   H     H_    0.402188 0.462728 0.073936 0.116654
H54   H     H_    0.597802 0.462630 0.926457 0.116674
H55   H     H_    0.902188 0.962728 0.073936 0.116654
H56   H     H_    0.925599 0.110098 0.558582 0.174652
H57   H     H_    0.097802 0.962630 0.926457 0.116674
H58   H     H_    0.413462 0.483345 0.947494 0.131107
H59   H     H_    0.586612 0.483283 0.052868 0.131026
H60   H     H_    0.913462 0.983345 0.947494 0.131107
H61   H     H_    0.086612 0.983283 0.052868 0.131026
H62   H     H_    0.337507 0.376795 0.933077 0.163597
H63   H     H_    0.662628 0.376781 0.067493 0.163685
H64   H     H_    0.837507 0.876795 0.933077 0.163597
H65   H     H_    0.162628 0.876781 0.067493 0.163685
H66   H     H_    0.518388 0.530214 0.438895 0.130765
H67   H     H_    0.425599 0.610098 0.558582 0.174652
H68   H     H_    0.433613 0.616843 0.432332 0.143273
N1    N     N_1   0.294359 0.831194 0.016647 -0.343865
N2    N     N_1   0.705596 0.831235 0.983435 -0.343836
N3    N     N_1   0.794359 0.331194 0.016647 -0.343865
N4    N     N_1   0.205596 0.331235 0.983435 -0.343836
O1    O     O_R   0.214300 0.709080 0.827500 -0.532462
O2    O     O_R   0.543340 0.717710 0.330180 -0.516373
O3    O     O_R   0.956660 0.217710 0.669820 -0.521215
O4    O     O_R   0.043340 0.217710 0.330180 -0.516373
O5    O     O_R   0.320590 0.625770 0.672930 -0.512235
O6    O     O_R   0.679410 0.625770 0.327070 -0.510939
O7    O     O_R   0.820590 0.125770 0.672930 -0.512235
O8    O     O_R   0.179410 0.125770 0.327070 -0.510939
O9    O     O_3   0.334270 0.834280 0.749190 -0.263734
O10   O     O_3   0.665730 0.834280 0.250810 -0.266199
O11   O     O_3   0.834270 0.334280 0.749190 -0.263734
O12   O     O_R   0.785700 0.709080 0.172500 -0.531910
O13   O     O_3   0.165730 0.334280 0.250810 -0.266199
O14   O     O_R   0.236190 0.958390 0.823150 -0.504459
O15   O     O_R   0.763810 0.958390 0.176850 -0.504140
O16   O     O_R   0.736190 0.458390 0.823150 -0.504459
O17   O     O_R   0.263810 0.458390 0.176850 -0.504140
O18   O     O_R   0.332090 0.075280 0.831290 -0.537373
O19   O     O_R   0.667910 0.075280 0.168710 -0.537290
O20   O     O_R   0.832090 0.575280 0.831290 -0.537373
O21   O     O_R   0.167910 0.575280 0.168710 -0.537290
O22   O     O_R   0.446280 0.918040 0.826620 -0.504268
O23   O     O_R   0.714300 0.209080 0.827500 -0.532462
O24   O     O_R   0.553720 0.918040 0.173380 -0.503623
O25   O     O_R   0.946280 0.418040 0.826620 -0.504268
O26   O     O_R   0.053720 0.418040 0.173380 -0.503623
O27   O     O_R   0.457080 0.716270 0.831760 -0.523042
O28   O     O_R   0.542920 0.716270 0.168240 -0.522914
O29   O     O_R   0.957080 0.216270 0.831760 -0.523042
O30   O     O_R   0.042920 0.216270 0.168240 -0.522914
O31   O     O_R   0.320980 0.624440 0.823040 -0.512693
O32   O     O_R   0.679020 0.624440 0.176960 -0.512484
O33   O     O_R   0.820980 0.124440 0.823040 -0.512693
O34   O     O_R   0.285700 0.209080 0.172500 -0.531910
O35   O     O_R   0.179020 0.124440 0.176960 -0.512484
O36   O     O_R   0.213880 0.710510 0.665560 -0.518074
O37   O     O_R   0.786120 0.710510 0.334440 -0.518932
O38   O     O_R   0.713880 0.210510 0.665560 -0.518074
O39   O     O_R   0.286120 0.210510 0.334440 -0.518932
O40   O     O_R   0.235800 0.959720 0.673040 -0.504028
O41   O     O_R   0.764200 0.959720 0.326960 -0.509713
O42   O     O_R   0.735800 0.459720 0.673040 -0.504028
O43   O     O_R   0.264200 0.459720 0.326960 -0.509713
O44   O     O_R   0.331670 0.076720 0.669350 -0.526714
O45   O     O_R   0.445900 0.919370 0.676500 -0.505665
O46   O     O_R   0.668330 0.076720 0.330650 -0.525520
O47   O     O_R   0.831670 0.576720 0.669350 -0.526714
O48   O     O_R   0.168330 0.576720 0.330650 -0.525520
O49   O     O_R   0.554100 0.919370 0.323500 -0.504102
O50   O     O_R   0.945900 0.419370 0.676500 -0.505665
O51   O     O_R   0.054100 0.419370 0.323500 -0.504102
O52   O     O_R   0.456660 0.717710 0.669820 -0.521215

loop_
_geom_bond_atom_site_label_1
_geom_bond_atom_site_label_2
_ccdc_geom_bond_type
C1    O18   A    
C18   C70   S    
C83   C87   A    
C108  H21   S    
C76   H23   S    
C34   C56   A    
C39   H40   S    
C87   C91   A    
C98   H7    S    
C35   C53   S    
C30   C114  A    
C14   C18   S    
C13   C32   A    
C7    O51   A    
C111  H25   S    
Cr5   O15   S    
C86   C104  A    
C12   H31   S    
C71   C79   S    
C7    O4    A    
Cr6   O38   S    
C8    C118  S    
C90   C95   A    
C57   C115  S    
Cr5   O37   S    
Cr1   O14   S    
C61   C75   A    
C15   C19   S    
C5    O2    A    
C20   C92   S    
C45   H47   S    
C50   C54   S    
C29   N4    T    
C65   O22   A    
C17   C26   S    
C32   C36   A    
C14   C21   S    
C96   C118  A    
C16   C20   S    
C3    O43   A    
C41   C58   A    
C123  O41   A    
Cr5   O12   S    
C36   C58   A    
C95   C112  S    
C43   C114  A    
C63   C77   A    
C115  O32   A    
C48   O20   A    
C49   H52   S    
C49   C53   S    
C10   O7    A    
C15   C25   S    
C20   C25   S    
C8    O36   A    
Cr4   O30   S    
Cr10  O11   S    
C55   H65   S    
Cr12  O27   S    
C4    C62   S    
C94   C111  S    
C54   H64   S    
C68   O26   A    
C15   H33   S    
Cr1   O36   S    
Cr8   O9    S    
C42   C46   A    
C3    C83   S    
C6    C64   S    
C89   C94   A    
C69   C71   A    
C70   C81   S    
C70   H36   S    
C3    O48   A    
C22   C66   S    
C123  O46   A    
C124  O42   A    
C34   C52   S    
Cr2   O6    S    
C92   C103  S    
C96   H5    S    
C88   C93   A    
C94   C120  A    
C108  H17   S    
C2    C44   A    
C77   H34   S    
Cr3   O33   S    
C12   C17   S    
Cr12  O52   S    
C82   H4    S    
C56   C113  S    
C111  H29   S    
Cr11  O48   S    
C41   H42   S    
Cr2   O28   S    
C42   H43   S    
C13   C37   S    
C107  H20   S    
Cr10  O50   S    
C11   O8    A    
C99   C121  A    
C21   C65   S    
C117  O34   A    
C95   C121  A    
Cr9   O49   S    
C99   C104  A    
Cr2   O32   S    
C4    O52   A    
C58   C116  S    
C84   C101  A    
Cr1   O1    S    
C69   C78   S    
C11   C121  S    
C25   C68   S    
C19   C103  S    
C4    O45   A    
C31   C49   S    
C124  O47   A    
C109  H22   S    
C103  H39   S    
C90   C108  S    
Cr7   O43   S    
C20   C29   S    
Cr6   O42   S    
Cr11  O13   S    
C74   H1    S    
Cr5   O41   S    
C43   H44   S    
C91   C118  A    
C54   H60   S    
C74   C75   A    
C30   C34   A    
C21   C70   S    
Cr3   O11   S    
C19   C28   S    
C53   H63   S    
C22   C81   S    
Cr9   O19   S    
C99   H8    S    
C60   C117  S    
C52   H58   S    
C76   C77   A    
C37   O15   A    
C80   C82   S    
C8    O5    A    
C86   C90   A    
C42   C60   A    
C85   C89   A    
C78   C79   S    
C25   C103  S    
C39   C43   A    
C6    O3    A    
C48   O16   A    
C2    C48   S    
C98   C102  A    
C46   H48   S    
C67   O29   A    
C17   C21   S    
C37   O19   A    
C108  C112  S    
C66   O28   A    
C1    O14   A    
Cr10  O20   S    
C104  H13   S    
C47   H53   S    
C19   C23   S    
C86   C122  S    
Cr5   O10   S    
C105  H14   S    
C24   C33   A    
Cr8   O18   S    
C102  H11   S    
C88   C106  S    
Cr7   O17   S    
C39   C56   A    
C87   C105  S    
C113  O31   A    
C100  H9    S    
C64   C73   A    
C62   C74   A    
C112  H30   S    
C89   C107  S    
C5    O49   A    
C64   C76   A    
Cr11  O26   S    
C5    C61   S    
C101  H10   S    
Cr7   O13   S    
C80   H45   S    
C50   H55   S    
C7    C63   S    
Cr7   O39   S    
Cr8   O45   S    
Cr4   O8    S    
C38   C60   A    
C107  H16   S    
C117  O35   A    
C30   C47   S    
Cr3   O3    S    
C12   C14   S    
Cr3   O29   S    
C16   C23   S    
C79   H67   S    
C83   C100  A    
C116  O23   A    
Cr2   O2    S    
C53   H59   S    
C12   C22   S    
C31   C35   A    
C115  O12   A    
C26   N1    T    
C84   C124  S    
C14   H32   S    
C59   O21   A    
C44   H46   S    
C73   C82   S    
C40   C57   A    
C9    O37   A    
Cr8   O44   S    
C38   C55   S    
C122  O40   A    
Cr12  O5    S    
C106  C110  S    
C61   C69   A    
Cr4   O35   S    
C105  C109  S    
C116  O33   A    
C67   O25   A    
C17   C81   S    
C110  H28   S    
C106  H15   S    
C82   H56   S    
Cr9   O46   S    
C18   C22   S    
C107  C111  S    
C65   O27   A    
C32   C50   S    
C18   C27   S    
C78   H66   S    
C78   H68   S    
C72   C73   A    
Cr1   O40   S    
Cr7   O34   S    
Cr8   O22   S    
Cr4   O13   S    
Cr10  O47   S    
C98   C120  A    
C47   C52   S    
C49   H54   S    
C9    O6    A    
C33   C51   S    
C80   H3    S    
C112  H26   S    
C93   C110  S    
Cr11  O51   S    
Cr9   O10   S    
C6    O50   A    
C10   O38   A    
C35   C57   A    
C27   N2    T    
C92   H38   S    
C91   C109  S    
Cr6   O16   S    
Cr9   O24   S    
C11   O39   A    
C72   C80   S    
C51   H57   S    
C68   O30   A    
Cr4   O4    S    
C66   O24   A    
C13   C45   A    
C16   H35   S    
Cr3   O7    S    
C55   H61   S    
C84   C88   A    
C23   C67   S    
Cr6   O23   S    
C59   C114  S    
C9    C119  S    
C15   C16   S    
C96   C100  A    
C75   H12   S    
C105  H18   S    
C97   C119  A    
Cr10  O25   S    
C62   C71   A    
C85   C123  S    
C109  H27   S    
C51   C55   S    
Cr6   O11   S    
C59   O17   A    
C110  H24   S    
C97   H6    S    
C36   C54   S    
C122  O44   A    
C40   H41   S    
C40   C44   A    
C79   H2    S    
C52   H62   S    
C63   C72   A    
C1    C24   S    
C106  H19   S    
Cr11  O21   S    
Cr12  O31   S    
C51   H50   S    
C28   N3    T    
C41   C45   A    
C23   C92   S    
C2    C31   A    
C33   C38   A    
C93   C119  A    
C50   H49   S    
C47   H51   S    
Cr12  O9    S    
C10   C120  S    
C97   C101  A    
C85   C102  A    
Cr2   O10   S    
C81   H37   S    
C24   C46   A    
C113  O1    A    
Cr1   O9    S    
