data_mof_unit_5758.cif
_audit_creation_date              2012-12-11T16:24:10-0500
_audit_creation_method            fapswitch 2.2
_symmetry_space_group_name_H-M    P1
_symmetry_Int_Tables_number       1
_space_group_crystal_system       triclinic
_cell_length_a                    14.742406
_cell_length_b                    14.747103
_cell_length_c                    33.333911
_cell_angle_alpha                 96.034766
_cell_angle_beta                  96.125106
_cell_angle_gamma                 61.192517
_cell_volume                      6301.92004331

loop_
_atom_site_label
_atom_site_type_symbol
_atom_type_description
_atom_site_fract_x
_atom_site_fract_y
_atom_site_fract_z
_atom_type_partial_charge
C1    C     C_R   0.391092 0.699379 0.446041 0.545371
C2    C     C_R   0.331210 0.347413 0.307974 -0.037340
C3    C     C_R   0.423270 0.274089 0.326301 -0.059331
C4    C     C_R   0.443184 0.282004 0.367843 0.373850
C5    C     C_R   0.391707 0.250119 0.165962 -0.123566
C6    C     C_R   0.382787 0.231395 0.124282 -0.174897
C7    C     C_R   0.212445 0.383247 0.121257 0.383063
C8    C     C_R   0.221902 0.401424 0.163043 -0.061775
C9    C     C_R   0.309896 0.332985 0.185440 -0.021720
C10   C     C_1   0.313518 0.342312 0.228603 0.005372
C11   C     C_1   0.319096 0.346032 0.264844 0.002573
C12   C     C_R   0.405733 0.386229 0.433840 0.562856
C13   C     C_R   0.291364 0.295115 0.101652 0.025268
C14   C     C_R   0.756198 0.372880 0.410137 -0.042395
C15   C     C_R   0.787522 0.435200 0.392890 -0.151758
C16   C     C_R   0.816533 0.413391 0.353206 -0.176057
C17   C     C_R   0.814760 0.328901 0.329979 0.035783
C18   C     C_R   0.792898 0.260727 0.348578 0.394710
C19   C     C_R   0.763933 0.282828 0.388361 -0.073371
C20   C     C_R   0.835119 0.308722 0.204681 0.351096
C21   C     C_R   0.826281 0.319109 0.286064 0.350172
C22   C     C_R   0.837765 0.387632 0.142776 -0.167756
C23   C     C_R   0.700765 0.409936 0.447522 0.546453
C24   C     C_R   0.867675 0.377689 0.103695 -0.129807
C25   C     C_R   0.907430 0.197429 0.098320 -0.081369
C26   C     C_R   0.877692 0.207006 0.137539 0.393824
C27   C     C_R   0.847306 0.301298 0.160888 0.034238
C28   C     C_R   0.907500 0.281243 0.081889 -0.043113
C29   C     C_R   0.371285 0.753615 0.408872 0.021838
C30   C     C_R   0.277660 0.781987 0.385472 -0.121895
C31   C     C_R   0.267794 0.809480 0.345943 -0.109496
C32   C     C_R   0.351198 0.809485 0.329156 0.032664
C33   C     C_R   0.441321 0.790397 0.353737 -0.110824
C34   C     C_R   0.393135 0.701833 0.561159 0.572384
C35   C     C_R   0.451342 0.762563 0.393312 -0.123794
C36   C     C_R   0.344455 0.828655 0.204459 0.352148
C37   C     C_R   0.347187 0.820265 0.285496 0.346373
C38   C     C_R   0.262901 0.827373 0.135100 -0.058769
C39   C     C_R   0.242654 0.857493 0.095496 0.391509
C40   C     C_R   0.378621 0.907105 0.105595 -0.188013
C41   C     C_R   0.398760 0.876707 0.145157 -0.138879
C42   C     C_R   0.337629 0.841337 0.160824 -0.027426
C43   C     C_R   0.296948 0.902729 0.081038 0.023473
C44   C     C_R   0.370545 0.368085 0.584522 0.004613
C45   C     C_R   0.407191 0.388730 0.548920 0.539965
C46   C     C_R   0.291620 0.449831 0.605987 -0.127511
C47   C     C_R   0.273247 0.436476 0.644437 -0.119518
C48   C     C_R   0.333351 0.341301 0.662193 0.047040
C49   C     C_R   0.405698 0.255234 0.639017 -0.001591
C50   C     C_R   0.423692 0.269939 0.600372 -0.102134
C51   C     C_R   0.314053 0.341678 0.786489 0.351412
C52   C     C_R   0.325156 0.337421 0.705572 0.342846
C53   C     C_R   0.210984 0.392066 0.847365 -0.134812
C54   C     C_R   0.201380 0.374603 0.886560 -0.181303
C55   C     C_R   0.385570 0.253982 0.892852 0.375015
C56   C     C_R   0.702216 0.413029 0.562575 0.562332
C57   C     C_R   0.394991 0.271975 0.853676 -0.081477
C58   C     C_R   0.307035 0.337453 0.829957 -0.023235
C59   C     C_R   0.287502 0.301679 0.908964 0.033127
C60   C     C_R   0.756732 0.379400 0.602770 0.037342
C61   C     C_R   0.760183 0.455037 0.631830 0.365406
C62   C     C_R   0.789283 0.432553 0.672130 -0.073113
C63   C     C_R   0.816494 0.334779 0.684304 -0.032326
C64   C     C_R   0.822083 0.256276 0.655797 -0.098199
C65   C     C_R   0.793356 0.276860 0.614854 -0.063924
C66   C     C_R   0.861067 0.225300 0.824039 -0.089736
C67   C     C_R   0.370836 0.365340 0.391974 0.029619
C68   C     C_R   0.886393 0.213738 0.865678 -0.022845
C69   C     C_R   0.902429 0.371568 0.870407 -0.111209
C70   C     C_R   0.877956 0.382110 0.828949 0.003995
C71   C     C_R   0.860300 0.306479 0.805602 0.041516
C72   C     C_1   0.845151 0.310022 0.762440 -0.006903
C73   C     C_1   0.833295 0.318021 0.726555 -0.009088
C74   C     C_R   0.911909 0.285677 0.889069 0.019846
C75   C     C_R   0.375206 0.756789 0.601658 -0.042611
C76   C     C_R   0.277679 0.798860 0.618138 0.406767
C77   C     C_R   0.267715 0.829224 0.659268 0.429683
C78   C     C_R   0.272537 0.434344 0.373443 -0.062981
C79   C     C_R   0.354458 0.818486 0.684241 -0.019650
C80   C     C_R   0.449677 0.783703 0.667642 -0.197521
C81   C     C_R   0.459943 0.753570 0.626558 -0.194085
C82   C     C_R   0.391748 0.898422 0.831698 -0.011853
C83   C     C_R   0.371710 0.923253 0.872696 -0.161789
C84   C     C_R   0.233968 0.876036 0.862804 0.371688
C85   C     C_R   0.254132 0.850481 0.822043 -0.072575
C86   C     C_R   0.330433 0.864232 0.806141 -0.011637
C87   C     C_1   0.340756 0.848148 0.763219 0.010559
C88   C     C_1   0.347569 0.835631 0.727220 0.047650
C89   C     C_R   0.254608 0.424683 0.331365 -0.107503
C90   C     C_R   0.290466 0.916049 0.888338 0.011031
C91   C     C_R   0.963430 0.264197 0.045528 0.547037
C92   C     C_R   0.272672 0.259719 0.060003 0.568071
C93   C     C_R   0.259197 0.959588 0.043811 0.568606
C94   C     C_R   0.962576 0.267597 0.930601 0.532297
C95   C     C_R   0.270665 0.263891 0.945203 0.570725
C96   C     C_R   0.256112 0.965274 0.928850 0.565902
Cr1   Cr    Cr6+3 0.576280 0.580550 0.506370 1.061605
Cr2   Cr    Cr6+3 0.346780 0.572400 0.496520 1.050441
Cr3   Cr    Cr6+3 0.576960 0.347070 0.497150 1.053277
Cr4   Cr    Cr6+3 0.087320 0.083240 0.984860 1.091607
Cr5   Cr    Cr6+3 0.087720 0.316210 0.996740 1.092367
Cr6   Cr    Cr6+3 0.317350 0.090340 0.995890 1.060143
H1    H     H_    0.445028 0.163408 0.110231 0.158265
H2    H     H_    0.741244 0.232755 0.401145 0.194844
H3    H     H_    0.865394 0.444096 0.091535 0.178662
H4    H     H_    0.835312 0.466025 0.340140 0.154305
H5    H     H_    0.812301 0.461954 0.159500 0.163282
H6    H     H_    0.936920 0.122336 0.081927 0.184662
H7    H     H_    0.214172 0.776833 0.396764 0.139949
H8    H     H_    0.524249 0.741726 0.410738 0.137577
H9    H     H_    0.460425 0.197154 0.183215 0.153125
H10   H     H_    0.196515 0.825883 0.327973 0.154964
H11   H     H_    0.506465 0.790990 0.341757 0.147883
H12   H     H_    0.216457 0.797648 0.146126 0.179464
H13   H     H_    0.422526 0.940623 0.095274 0.152122
H14   H     H_    0.457911 0.886998 0.164116 0.160987
H15   H     H_    0.248780 0.526224 0.594326 0.169106
H16   H     H_    0.482915 0.205736 0.583409 0.134839
H17   H     H_    0.124865 0.412928 0.898138 0.146409
H18   H     H_    0.216514 0.502973 0.661365 0.158387
H19   H     H_    0.482065 0.212853 0.308153 0.168744
H20   H     H_    0.141986 0.444198 0.830061 0.153568
H21   H     H_    0.470541 0.230443 0.841325 0.158870
H22   H     H_    0.845102 0.168908 0.805570 0.128285
H23   H     H_    0.845718 0.179877 0.665729 0.150397
H24   H     H_    0.919976 0.428238 0.887722 0.137523
H25   H     H_    0.786578 0.493143 0.694216 0.140501
H26   H     H_    0.416151 0.953677 0.891908 0.165762
H27   H     H_    0.517065 0.775667 0.686755 0.153802
H28   H     H_    0.535787 0.722003 0.614879 0.218171
H29   H     H_    0.207471 0.823254 0.802486 0.163322
H30   H     H_    0.158727 0.466300 0.178092 0.151733
H31   H     H_    0.182298 0.479675 0.316570 0.138871
H32   H     H_    0.783586 0.504464 0.409132 0.153232
N1    N     N_R   0.827765 0.393115 0.227784 -0.240737
N2    N     N_R   0.233707 0.397091 0.722909 -0.220328
N3    N     N_R   0.411083 0.281627 0.729536 -0.232313
N4    N     N_R   0.405570 0.283095 0.769141 -0.236272
N5    N     N_R   0.823084 0.398353 0.267585 -0.242447
N6    N     N_R   0.833467 0.234670 0.262995 -0.105453
N7    N     N_R   0.838364 0.229338 0.223127 -0.104048
N8    N     N_R   0.269475 0.818911 0.220846 -0.203983
N9    N     N_R   0.270996 0.814475 0.260527 -0.210138
N10   N     N_R   0.422550 0.829610 0.269144 -0.218643
N11   N     N_R   0.420815 0.834435 0.229402 -0.215064
N12   N     N_R   0.228126 0.398566 0.762575 -0.220466
O1    O     O_R   0.679450 0.499830 0.463150 -0.514868
O2    O     O_R   0.356040 0.477400 0.534170 -0.499890
O3    O     O_R   0.495910 0.323070 0.537100 -0.521824
O4    O     O_R   0.663920 0.359620 0.542290 -0.523130
O5    O     O_3   0.500010 0.500010 0.500010 -0.262124
O6    O     O_R   0.170070 0.978950 0.027680 -0.428908
O7    O     O_R   0.001760 0.175230 0.026640 -0.504552
O8    O     O_R   0.984760 0.333570 0.037150 -0.477820
O9    O     O_R   0.183410 0.309240 0.041890 -0.421990
O10   O     O_R   0.340240 0.172500 0.045430 -0.527311
O11   O     O_R   0.309670 0.000990 0.032050 -0.521714
O12   O     O_R   0.480650 0.664000 0.464630 -0.503777
O13   O     O_R   0.168330 0.982130 0.939200 -0.440409
O14   O     O_R   0.000140 0.178170 0.944610 -0.509209
O15   O     O_R   0.983010 0.336750 0.948660 -0.521537
O16   O     O_R   0.181800 0.312190 0.959860 -0.517438
O17   O     O_R   0.338500 0.175680 0.956950 -0.439602
O18   O     O_R   0.308050 0.003930 0.950020 -0.519822
O19   O     O_3   0.164130 0.163270 0.992500 -0.280056
O20   O     O_R   0.323930 0.675950 0.455370 -0.519874
O21   O     O_R   0.354700 0.475360 0.451930 -0.522637
O22   O     O_R   0.494470 0.320860 0.448390 -0.428545
O23   O     O_R   0.662580 0.357570 0.460050 -0.495121
O24   O     O_R   0.680900 0.502040 0.551870 -0.432611
O25   O     O_R   0.481990 0.666040 0.546870 -0.502831
O26   O     O_R   0.325370 0.678160 0.544080 -0.438252
F1    F     F_    0.792452 0.176674 0.327810 -0.584271
F2    F     F_    0.885611 0.121980 0.153204 -0.582989
F3    F     F_    0.165944 0.847729 0.072327 -0.584216
C97   C     C_3   0.465071 0.148262 0.654715 -0.377458
H33   H     H_    0.503118 0.088410 0.630129 0.126682
H34   H     H_    0.526680 0.144648 0.677745 0.166757
H35   H     H_    0.411533 0.128381 0.668091 0.152250
F4    F     F_    0.471443 0.185679 0.913981 -0.613591
C98   C     C_3   0.887302 0.123644 0.883645 -0.342215
H36   H     H_    0.851157 0.085593 0.862156 0.137071
H37   H     H_    0.968302 0.064272 0.891217 0.212034
H38   H     H_    0.842526 0.151016 0.911135 0.151740
C99   C     C_3   0.801330 0.188749 0.585410 -0.360091
H39   H     H_    0.848077 0.112569 0.598937 0.151761
H40   H     H_    0.722967 0.197442 0.576478 0.163934
H41   H     H_    0.840024 0.186965 0.558302 0.150215
F5    F     F_    0.729262 0.553292 0.622111 -0.632001
C100  C     C_3   0.875040 0.471850 0.809821 -0.391922
H42   H     H_    0.890463 0.524318 0.832549 0.129842
H43   H     H_    0.934838 0.442269 0.787290 0.150800
H44   H     H_    0.797355 0.517806 0.794454 0.142019
F6    F     F_    0.536701 0.211097 0.383678 -0.600140
C101  C     C_3   0.475329 0.912544 0.815385 -0.375557
H45   H     H_    0.516150 0.939852 0.839527 0.152951
H46   H     H_    0.533455 0.837590 0.801554 0.137763
H47   H     H_    0.440557 0.970740 0.792095 0.147555
F7    F     F_    0.193033 0.806277 0.595033 -0.577084
F8    F     F_    0.156286 0.865711 0.876630 -0.615043
F9    F     F_    0.174536 0.864483 0.675096 -0.587799
C102  C     C_3   0.186617 0.519752 0.397016 -0.367753
H48   H     H_    0.205299 0.583656 0.406403 0.170368
H49   H     H_    0.111672 0.553183 0.378596 0.125802
H50   H     H_    0.175150 0.488814 0.423913 0.145656
F10   F     F_    0.123623 0.448447 0.100686 -0.602997

loop_
_geom_bond_atom_site_label_1
_geom_bond_atom_site_label_2
_ccdc_geom_bond_type
Cr4   O7    S    
C8    C9    A    
C66   C68   A    
C87   C88   T    
C40   C41   A    
C100  H42   S    
C37   N10   A    
C55   C59   A    
C45   O2    A    
C55   F4    S    
C74   C94   S    
C36   C42   S    
C83   H26   S    
C12   O21   A    
C6    H1    S    
C99   H39   S    
C7    C8    A    
C15   H32   S    
C53   C54   A    
C84   F8    S    
C25   C28   A    
C4    F6    S    
Cr3   O3    S    
C26   C27   A    
C62   C63   A    
C102  H49   S    
Cr5   O8    S    
C22   C24   A    
Cr5   O16   S    
C91   O7    A    
C53   H20   S    
C5    C6    A    
C38   H12   S    
C99   H40   S    
C40   H13   S    
C26   F2    S    
C68   C74   A    
C22   H5    S    
C12   O22   A    
C98   H36   S    
C18   C19   A    
C41   C42   A    
C36   N8    A    
C14   C15   A    
C3    H19   S    
C100  H44   S    
C43   C93   S    
C40   C43   A    
C47   C48   A    
C16   C17   A    
C102  H50   S    
C8    H30   S    
C94   O14   A    
C31   H10   S    
C97   H33   S    
C70   C71   A    
C28   C91   S    
C9    C10   S    
Cr2   O21   S    
C64   H23   S    
C16   H4    S    
C34   C75   S    
Cr2   O5    S    
C101  H47   S    
Cr2   O26   S    
C97   H34   S    
C54   H17   S    
C61   F5    S    
Cr1   O1    S    
C61   C62   A    
C67   C78   A    
C84   C90   A    
C7    F10   S    
C2    C11   S    
C14   C19   A    
Cr6   O11   S    
C79   C88   S    
C12   C67   S    
C44   C46   A    
C52   N3    A    
C54   C59   A    
C97   H35   S    
C78   C89   A    
C38   C39   A    
C98   H37   S    
Cr3   O4    S    
C65   C99   S    
C68   C98   S    
C89   H31   S    
C102  H48   S    
C30   H7    S    
C24   C28   A    
C84   C85   A    
C91   O8    A    
C39   F3    S    
C10   C11   T    
C95   O16   A    
C86   C87   S    
Cr6   O17   S    
C99   H41   S    
C39   C43   A    
C5    H9    S    
C51   N12   A    
C25   C26   A    
C85   C86   A    
C23   O1    A    
Cr4   O6    S    
Cr1   O24   S    
C96   O18   A    
C46   H15   S    
Cr4   O19   S    
Cr3   O5    S    
C14   C23   S    
C2    C89   A    
N1    N5    A    
C75   C76   A    
C18   F1    S    
C5    C9    A    
C29   C30   A    
C95   O17   A    
C57   H21   S    
C19   H2    S    
Cr4   O14   S    
C66   C71   A    
C23   O23   A    
C7    C13   A    
C30   C31   A    
C1    C29   S    
C17   C18   A    
Cr1   O5    S    
C77   C79   A    
C69   C74   A    
C92   O10   A    
C51   C58   S    
C32   C37   S    
N6    N7    A    
C93   O11   A    
C94   O15   A    
C82   C101  S    
Cr2   O20   S    
C35   H8    S    
C59   C95   S    
C48   C49   A    
C60   C65   A    
C49   C50   A    
Cr6   O19   S    
C22   C27   A    
C55   C57   A    
C13   C92   S    
Cr5   O19   S    
C52   N2    A    
C66   H22   S    
C79   C80   A    
C21   N5    A    
C41   H14   S    
C56   O4    A    
C3    C4    A    
Cr6   O10   S    
C34   O26   A    
C44   C45   S    
C70   C100  S    
Cr3   O22   S    
C98   H38   S    
C44   C50   A    
C83   C90   A    
C46   C47   A    
C47   H18   S    
C100  H43   S    
C80   H27   S    
C37   N9    A    
C56   O24   A    
C50   H16   S    
C20   N7    A    
C31   C32   A    
C75   C81   A    
C78   C102  S    
C80   C81   A    
C76   F7    S    
C77   F9    S    
C69   H24   S    
C4    C67   A    
C53   C58   A    
C90   C96   S    
Cr3   O23   S    
C20   C27   S    
C63   C73   S    
N3    N4    A    
C29   C35   A    
C33   H11   S    
Cr1   O25   S    
N10   N11   A    
C32   C33   A    
Cr5   O15   S    
C2    C3    A    
C71   C72   S    
C82   C86   A    
C85   H29   S    
Cr1   O12   S    
C76   C77   A    
Cr4   O13   S    
C1    O12   A    
C57   C58   A    
C62   H25   S    
Cr2   O2    S    
C1    O20   A    
C72   C73   T    
C64   C65   A    
C63   C64   A    
C33   C35   A    
C92   O9    A    
C45   O3    A    
C20   N1    A    
C69   C70   A    
C17   C21   S    
C38   C42   A    
C81   H28   S    
C101  H45   S    
C51   N4    A    
C56   C60   S    
C36   N11   A    
C48   C52   S    
C96   O13   A    
Cr6   O18   S    
C82   C83   A    
Cr5   O9    S    
N8    N9    A    
C60   C61   A    
C93   O6    A    
C24   H3    S    
C21   N6    A    
C101  H46   S    
C49   C97   S    
N2    N12   A    
C34   O25   A    
C15   C16   A    
C25   H6    S    
C6    C13   A    
