data_mof_unit_36603.cif
_audit_creation_date              2012-10-26T20:14:31-0400
_audit_creation_method            fapswitch 2.2
_symmetry_space_group_name_H-M    P1
_symmetry_Int_Tables_number       1
_space_group_crystal_system       triclinic
_cell_length_a                    7.781958
_cell_length_b                    9.096252
_cell_length_c                    17.367798
_cell_angle_alpha                 90.00408
_cell_angle_beta                  86.088398
_cell_angle_gamma                 90.002153
_cell_volume                      1226.54432822

loop_
_atom_site_label
_atom_site_type_symbol
_atom_type_description
_atom_site_fract_x
_atom_site_fract_y
_atom_site_fract_z
_atom_type_partial_charge
C1    C     C_R   0.500001 0.779984 0.500004 0.553306
C2    C     C_R   0.389315 0.541541 0.226100 -0.139039
C3    C     C_R   0.598717 0.450946 0.853726 -0.130062
C4    C     C_R   0.401230 0.549406 0.146307 -0.130060
C5    C     C_R   0.441850 0.480104 0.895798 0.055947
C6    C     C_R   0.558064 0.520238 0.104212 0.055933
C7    C     C_R   0.293248 0.513614 0.856423 0.035859
C8    C     C_R   0.706663 0.486545 0.143557 0.035868
C9    C     C_R   0.306992 0.518780 0.775708 -0.117436
C10   C     C_R   0.692962 0.481283 0.224270 -0.117424
C11   C     C_2   0.435539 0.473480 0.980423 -0.143536
C12   C     C_R   0.499999 0.220016 0.499996 0.553311
C13   C     C_2   0.564329 0.526975 0.019593 -0.143558
C14   C     C_3   0.120731 0.548388 0.898069 -0.284342
C15   C     C_3   0.120360 0.701041 0.934670 -0.436744
C16   C     C_3   0.879097 0.451620 0.101872 -0.284348
C17   C     C_3   0.879138 0.299052 0.065162 -0.436784
C18   C     C_1   0.500002 0.934634 0.500001 -0.048608
C19   C     C_1   0.499998 0.065366 0.499999 -0.048608
C20   C     C_R   0.477852 0.498670 0.650276 0.540056
C21   C     C_R   0.522145 0.501344 0.349723 0.540052
C22   C     C_R   0.465136 0.492817 0.734482 0.001772
C23   C     C_R   0.534841 0.507281 0.265519 0.001782
C24   C     C_R   0.610662 0.458689 0.773927 -0.139044
Cu1   Cu    Cu3+1 0.330920 0.500000 0.500000 1.018117
Cu2   Cu    Cu3+1 0.669080 0.500000 0.500000 1.018126
H1    H     H_    0.287404 0.579915 0.117472 0.100542
H2    H     H_    0.158464 0.785135 0.890347 0.162009
H3    H     H_    0.988803 0.727560 0.959566 0.126372
H4    H     H_    0.016679 0.545467 0.857277 0.132902
H5    H     H_    0.086858 0.463545 0.942216 0.131795
H6    H     H_    0.841242 0.214841 0.109438 0.161946
H7    H     H_    0.788981 0.294383 0.018427 0.156041
H8    H     H_    0.010526 0.272537 0.040089 0.126352
H9    H     H_    0.913095 0.536536 0.057775 0.131810
H10   H     H_    0.983179 0.454248 0.142653 0.132939
H11   H     H_    0.712542 0.420522 0.882584 0.100528
H12   H     H_    0.733533 0.435973 0.743109 0.132471
H13   H     H_    0.266465 0.564273 0.256936 0.132493
H14   H     H_    0.805411 0.454273 0.255002 0.126776
H15   H     H_    0.194536 0.545669 0.744956 0.126813
H16   H     H_    0.676999 0.574668 0.988902 0.120834
H17   H     H_    0.322870 0.425789 0.011120 0.120826
H18   H     H_    0.210210 0.705876 0.981537 0.155941
N1    N     N_1   0.923170 0.500000 0.500010 -0.085384
N2    N     N_1   0.076830 0.500000 0.499990 -0.085385
O1    O     O_R   0.357240 0.711600 0.500000 -0.496408
O2    O     O_R   0.642760 0.288400 0.500000 -0.496403
O3    O     O_R   0.642760 0.711600 0.500000 -0.494804
O4    O     O_R   0.357240 0.288400 0.500000 -0.494801
O5    O     O_R   0.340660 0.500000 0.613590 -0.510267
O6    O     O_R   0.659340 0.500000 0.386410 -0.510251
O7    O     O_R   0.626230 0.500000 0.613600 -0.508108
O8    O     O_R   0.373770 0.500000 0.386400 -0.508115

loop_
_geom_bond_atom_site_label_1
_geom_bond_atom_site_label_2
_ccdc_geom_bond_type
C2    C4    A    
Cu1   O5    S    
C11   H17   S    
Cu2   O6    S    
C10   C23   A    
C7    C14   S    
Cu1   O1    S    
C9    H15   S    
Cu2   O2    S    
C14   H5    S    
C12   O2    A    
C15   H2    S    
C8    C16   S    
N1    N2    T    
C16   H10   S    
C6    C13   S    
C11   C13   D    
C1    C18   S    
C16   C17   S    
C17   H7    S    
C14   H4    S    
Cu1   N2    S    
C12   C19   S    
C4    C6    A    
C13   H16   S    
C20   C22   S    
C15   H18   S    
C15   H3    S    
C20   O5    A    
C5    C7    A    
C21   C23   S    
C5    C11   S    
C21   O8    A    
C22   C24   A    
C9    C22   A    
C17   H8    S    
C24   H12   S    
C16   H9    S    
Cu2   O7    S    
C4    H1    S    
Cu1   O8    S    
C3    H11   S    
C8    C10   A    
C18   C19   T    
Cu2   O3    S    
C2    C23   A    
C7    C9    A    
C17   H6    S    
C14   C15   S    
C20   O7    A    
C10   H14   S    
C6    C8    A    
Cu2   N1    S    
Cu1   Cu2   S    
Cu1   O4    S    
C1    O3    A    
C2    H13   S    
C21   O6    A    
C1    O1    A    
C3    C24   A    
C12   O4    A    
C3    C5    A    
