data_mof_unit_39245.cif
_audit_creation_date              2013-03-05T16:00:58-0500
_audit_creation_method            fapswitch 2.2
_symmetry_space_group_name_H-M    P1
_symmetry_Int_Tables_number       1
_space_group_crystal_system       triclinic
_cell_length_a                    10.642106
_cell_length_b                    14.815529
_cell_length_c                    14.74316
_cell_angle_alpha                 64.751282
_cell_angle_beta                  103.998825
_cell_angle_gamma                 103.666954
_cell_volume                      2016.41805085

loop_
_atom_site_label
_atom_site_type_symbol
_atom_site_description
_atom_site_fract_x
_atom_site_fract_y
_atom_site_fract_z
_atom_type_partial_charge
O1    O     O_R   0.454850 0.022100 0.338110 -0.553154
O2    O     O_R   0.545150 0.977900 0.661890 -0.577863
O3    O     O_R   0.512700 0.160150 0.379180 -0.582582
O4    O     O_R   0.487300 0.839850 0.620820 -0.582547
C1    C     C_R   0.479711 0.119599 0.312244 0.806440
C2    C     C_R   0.519931 0.880351 0.687739 0.801482
O5    O     O_R   0.287930 0.931000 0.479440 -0.532560
O6    O     O_R   0.712070 0.069000 0.520560 -0.499766
O7    O     O_R   0.345780 0.069050 0.520520 -0.609374
O8    O     O_R   0.654220 0.930950 0.479480 -0.608978
C3    C     C_R   0.259577 0.000508 0.499283 0.842818
C4    C     C_R   0.740390 0.999653 0.500670 0.844713
Cu1   Cu    Cu3+1 0.465750 0.918270 0.475680 1.017494
Cu2   Cu    Cu3+1 0.534250 0.081730 0.524320 1.018317
C5    C     C_3   0.019147 0.032545 0.402712 -0.337690
C6    C     C_3   0.980887 0.968473 0.597439 -0.293442
C7    C     C_3   0.970901 0.091838 0.447940 0.411495
C8    C     C_3   0.029153 0.909049 0.552221 0.389157
H1    H     H_    0.037220 0.061610 0.323307 0.167606
H2    H     H_    0.962416 0.940395 0.676625 0.165173
C9    C     C_3   0.876837 0.999025 0.501051 -0.113649
C10   C     C_3   0.123228 0.001760 0.499027 -0.137777
C11   C     C_3   0.923594 0.937114 0.457169 -0.232629
C12   C     C_3   0.076541 0.063803 0.542945 -0.193972
H3    H     H_    0.859843 0.884040 0.424010 0.188497
H4    H     H_    0.140356 0.116883 0.576067 0.188775
C13   C     C_R   0.471943 0.187288 0.204332 -0.056658
C14   C     C_R   0.527114 0.812295 0.795522 -0.049133
C15   C     C_R   0.421450 0.217099 0.025993 -0.179157
C16   C     C_R   0.572390 0.781689 0.974048 -0.169620
C17   C     C_R   0.436431 0.150104 0.127464 -0.175371
C18   C     C_R   0.556313 0.848879 0.872639 -0.195142
C19   C     C_R   0.499672 0.291511 0.178440 -0.138207
C20   C     C_R   0.504278 0.708113 0.821054 -0.135180
C21   C     C_R   0.494176 0.360619 0.077062 0.100844
C22   C     C_R   0.508149 0.638715 0.922161 0.102161
C23   C     C_R   0.445064 0.321781 0.000596 0.100437
C24   C     C_R   0.553784 0.677237 0.998990 0.101925
C25   C     C_R   0.523895 0.467081 0.050229 -0.084881
C26   C     C_R   0.479543 0.532364 0.948592 -0.087320
C27   C     C_R   0.409734 0.488777 0.877250 0.284550
C28   C     C_R   0.593521 0.510919 0.121428 0.281020
C29   C     C_R   0.406669 0.386573 0.901306 -0.285929
C30   C     C_R   0.593499 0.612603 0.098074 -0.288015
H5    H     H_    0.358364 0.355339 0.844997 0.182627
H6    H     H_    0.640420 0.643870 0.154567 0.182435
H7    H     H_    0.491299 0.682050 0.761124 0.175576
H8    H     H_    0.517220 0.317771 0.238598 0.180187
H9    H     H_    0.571627 0.929117 0.854806 0.142393
H10   H     H_    0.415089 0.069663 0.145609 0.174091
H11   H     H_    0.386068 0.187036 0.967509 0.137782
H12   H     H_    0.604006 0.811511 0.032830 0.134954
N1    N     N_R   0.585750 0.204560 0.560800 -0.237793
N2    N     N_R   0.414250 0.795440 0.439200 -0.234204
C31   C     C_R   0.739451 0.297497 0.647166 -0.335040
C32   C     C_R   0.271468 0.708739 0.341624 -0.355460
C33   C     C_R   0.695953 0.209206 0.629122 0.696025
C34   C     C_R   0.308180 0.792990 0.366897 0.683575
C35   C     C_R   0.511602 0.280373 0.514633 -0.014623
C36   C     C_R   0.484426 0.717268 0.489183 0.007590
C37   C     C_R   0.547348 0.370957 0.533159 0.022289
C38   C     C_R   0.452780 0.629196 0.466372 0.024075
C39   C     C_R   0.665679 0.376876 0.600565 0.016913
C40   C     C_R   0.340251 0.626720 0.392906 0.021055
C41   C     C_R   0.475317 0.456098 0.486616 -0.055683
C42   C     C_R   0.524894 0.544188 0.512667 -0.056283
C43   C     C_R   0.645188 0.543564 0.582387 0.440549
C44   C     C_R   0.357298 0.458356 0.414210 0.446897
C45   C     C_R   0.713658 0.462451 0.621034 -0.204635
C46   C     C_R   0.293170 0.542128 0.370737 -0.202544
H13   H     H_    0.808245 0.467125 0.668653 0.179519
H14   H     H_    0.201603 0.539786 0.319121 0.177991
H15   H     H_    0.561026 0.726988 0.547118 0.205089
H16   H     H_    0.427864 0.266108 0.463656 0.211488
H17   H     H_    0.831491 0.304966 0.696435 0.159954
H18   H     H_    0.189306 0.707123 0.282002 0.156549
N3    N     N_R   0.933487 0.191849 0.390045 0.128866
O9    O     O_R   0.843712 0.207218 0.309806 -0.336555
O10   O     O_R   0.986861 0.265302 0.419690 -0.288037
N4    N     N_R   0.066820 0.809087 0.609790 0.122293
O11   O     O_R   0.156146 0.793470 0.690320 -0.334117
O12   O     O_R   0.015128 0.736219 0.578968 -0.317493
O13   O     O_3   0.245900 0.877544 0.314519 -0.575963
C47   C     C_3   0.107909 0.852907 0.309191 0.077036
H19   H     H_    0.076362 0.896398 0.342533 0.186223
H20   H     H_    0.071001 0.772135 0.352955 0.160420
C48   C     C_3   0.042219 0.884788 0.198587 -0.848364
H21   H     H_    0.071305 0.842863 0.161952 0.247618
H22   H     H_    0.934089 0.868610 0.194378 0.218576
H23   H     H_    0.071458 0.967019 0.156779 0.254679
O14   O     O_3   0.770399 0.131505 0.668624 -0.546573
C49   C     C_3   0.814800 0.101138 0.774481 0.013984
H24   H     H_    0.785267 0.018270 0.810776 0.169111
H25   H     H_    0.772118 0.134995 0.812541 0.111008
C50   C     C_3   0.963937 0.122352 0.794937 -0.777439
H26   H     H_    0.999154 0.204461 0.759455 0.252622
H27   H     H_    0.998863 0.095406 0.878112 0.204913
H28   H     H_    0.005770 0.082255 0.763143 0.252699
O15   O     O_3   0.707643 0.625990 0.605508 -0.576406
C51   C     C_3   0.703536 0.603563 0.708431 0.048612
H29   H     H_    0.755627 0.538987 0.761538 0.161403
H30   H     H_    0.600335 0.585213 0.721881 0.143662
C52   C     C_3   0.770638 0.694666 0.733789 -0.737329
H31   H     H_    0.724795 0.762399 0.681177 0.226857
H32   H     H_    0.762385 0.679156 0.812911 0.197297
H33   H     H_    0.875956 0.710070 0.727542 0.297333
O16   O     O_3   0.293604 0.376235 0.391070 -0.576912
C53   C     C_3   0.304445 0.395562 0.290306 0.045088
H34   H     H_    0.409129 0.408470 0.282239 0.147641
H35   H     H_    0.259023 0.462450 0.233768 0.159342
C54   C     C_3   0.233453 0.305105 0.265034 -0.733729
H36   H     H_    0.127696 0.293638 0.268687 0.296094
H37   H     H_    0.243827 0.318686 0.186921 0.197821
H38   H     H_    0.274749 0.235810 0.319496 0.228080
N5    N     N_R   0.325265 0.542156 0.786912 0.109477
O17   O     O_R   0.243897 0.592460 0.791890 -0.276485
O18   O     O_R   0.314601 0.527807 0.704025 -0.375792
N6    N     N_R   0.680499 0.458669 0.210577 0.111172
O19   O     O_R   0.693413 0.473311 0.293584 -0.368038
O20   O     O_R   0.761262 0.408728 0.204256 -0.276337

loop_
_geom_bond_atom_site_label_1
_geom_bond_atom_site_label_2
_geom_bond_distance
_ccdc_geom_bond_type
C48   H21   1.109637 S    
C6    C9    1.541842 S    
C32   H18   1.083508 S    
C50   H26   1.109262 S    
C54   H36   1.108881 S    
C47   C48   1.522590 S    
N1    C35   1.361738 A    
C50   H28   1.110999 S    
N2    C36   1.362533 A    
N3    O9    1.300100 A    
C13   C19   1.397651 A    
O5    C3    1.297563 A    
O1    C1    1.303954 A    
C21   C23   1.414704 A    
C47   H20   1.115540 S    
C15   H11   1.083927 S    
N5    O17   1.301153 A    
C36   H15   1.061811 S    
C53   H34   1.111702 S    
C16   C24   1.405060 A    
C36   C38   1.428627 A    
O4    Cu1   1.936202 S    
C45   H13   1.085154 S    
N6    O19   1.301774 A    
C51   H29   1.112319 S    
C38   C40   1.412175 A    
C5    H1    1.110248 S    
C48   H22   1.110537 S    
C5    C10   1.541607 S    
C2    C14   1.469147 S    
O13   C47   1.418208 S    
C32   C34   1.394786 A    
N5    O18   1.301742 A    
C31   C39   1.399118 A    
O16   C53   1.416563 S    
C32   C40   1.397456 A    
C44   O16   1.381533 S    
C40   C46   1.379144 A    
C52   H33   1.108108 S    
O6    C4    1.295574 A    
C31   H17   1.082780 S    
C44   C46   1.388145 A    
C5    C11   1.557190 S    
C42   C43   1.434009 A    
C14   C20   1.398045 A    
C6    C12   1.557155 S    
C1    C13   1.469056 S    
Cu1   Cu2   2.702753 S    
C27   C29   1.394195 A    
O2    C2    1.304731 A    
C28   C30   1.394896 A    
C27   N5    1.437196 S    
C7    N3    1.455331 S    
C30   H6    1.084547 S    
C25   C28   1.431995 A    
N3    O10   1.300573 A    
C35   C37   1.428834 A    
C7    C12   1.536502 S    
C38   C42   1.452930 A    
C13   C17   1.399160 A    
C8    C11   1.536456 S    
C39   C45   1.380272 A    
C14   C18   1.399357 A    
C47   H19   1.105344 S    
C54   H37   1.110077 S    
C25   C26   1.428557 A    
N1    C33   1.358042 A    
C28   N6    1.437212 S    
C4    C9    1.452943 S    
C49   C50   1.523902 S    
C7    C9    1.521922 S    
C43   C45   1.388722 A    
C23   C29   1.388707 A    
C21   C25   1.427175 A    
O7    Cu2   1.959054 S    
C24   C30   1.388800 A    
O7    C3    1.289528 A    
O15   C51   1.417737 S    
C22   C26   1.426215 A    
C6    H2    1.110266 S    
C41   C44   1.434862 A    
C49   H25   1.115306 S    
C52   H32   1.110225 S    
C6    C8    1.537357 S    
C29   H5    1.084630 S    
C35   H16   1.061199 S    
O3    Cu2   1.936203 S    
O8    C4    1.290810 A    
O4    C2    1.301850 A    
C26   C27   1.431756 A    
C51   H30   1.112522 S    
C31   C33   1.395433 A    
C10   C12   1.546039 S    
O1    Cu1   1.949952 S    
C17   H10   1.083049 S    
O14   C49   1.416349 S    
Cu1   N2    2.030350 S    
N2    C34   1.357689 A    
C5    C7    1.535712 S    
C16   H12   1.083879 S    
O6    Cu2   1.961650 S    
C33   O14   1.388494 S    
C8    C10   1.521542 S    
C37   C39   1.413437 A    
C12   H4    1.110346 S    
N4    O11   1.300140 A    
O3    C1    1.302524 A    
O8    Cu1   1.959054 S    
C50   H27   1.110502 S    
C43   O15   1.382464 S    
C3    C10   1.454603 S    
C53   C54   1.522169 S    
C9    C11   1.544391 S    
C15   C17   1.393295 A    
C34   O13   1.387215 S    
C16   C18   1.393761 A    
C22   C24   1.413848 A    
C49   H24   1.109510 S    
C19   C21   1.402199 A    
N4    O12   1.300596 A    
C53   H35   1.112321 S    
C54   H38   1.109543 S    
C20   C22   1.401302 A    
C11   H3    1.110384 S    
C51   C52   1.522280 S    
O2    Cu2   1.949952 S    
N6    O20   1.301132 A    
C18   H9    1.082301 S    
C37   C41   1.453854 A    
O5    Cu1   1.961650 S    
Cu2   N1    2.030350 S    
C8    N4    1.455331 S    
C41   C42   1.460603 A    
C48   H23   1.110872 S    
C15   C23   1.405229 A    
C52   H31   1.109473 S    
C19   H8    1.073663 S    
C46   H14   1.085205 S    
C20   H7    1.075019 S    
