data_mof_unit_8615.cif
_audit_creation_date              2012-12-10T16:44:41-0500
_audit_creation_method            fapswitch 2.2
_symmetry_space_group_name_H-M    P1
_symmetry_Int_Tables_number       1
_space_group_crystal_system       triclinic
_cell_length_a                    14.963305
_cell_length_b                    8.672813
_cell_length_c                    7.45003
_cell_angle_alpha                 102.877541
_cell_angle_beta                  93.822516
_cell_angle_gamma                 92.426513
_cell_volume                      938.778979687

loop_
_atom_site_label
_atom_site_type_symbol
_atom_type_description
_atom_site_fract_x
_atom_site_fract_y
_atom_site_fract_z
_atom_type_partial_charge
C1    C     C_R   0.497295 0.199789 0.453334 0.881812
C2    C     C_R   0.502705 0.800211 0.546666 0.881811
C3    C     C_R   0.032302 0.218734 0.333537 -0.012713
C4    C     C_R   0.967698 0.781264 0.666477 -0.012714
C5    C     C_2   0.495982 0.031874 0.427059 -0.351369
C6    C     C_2   0.504018 0.968126 0.572941 -0.351366
C7    C     C_R   0.329093 0.498959 0.502931 0.807483
C8    C     C_R   0.670907 0.501041 0.497069 0.807483
C9    C     C_R   0.819106 0.638607 0.583439 -0.200323
C10   C     C_R   0.180894 0.361392 0.416568 -0.200322
C11   C     C_R   0.767081 0.503657 0.490538 -0.080510
C12   C     C_R   0.232920 0.496343 0.509462 -0.080507
C13   C     C_R   0.806483 0.369741 0.396920 -0.189894
C14   C     C_R   0.193517 0.630261 0.603077 -0.189893
C15   C     C_R   0.899528 0.366636 0.402968 0.123852
C16   C     C_R   0.100473 0.633366 0.597032 0.123853
C17   C     C_R   0.953136 0.502600 0.496051 0.026319
C18   C     C_R   0.046864 0.497402 0.503950 0.026318
C19   C     C_R   0.912811 0.643243 0.581243 0.090307
C20   C     C_R   0.087189 0.356757 0.418763 0.090310
C21   C     C_R   0.939125 0.227505 0.322188 -0.255828
C22   C     C_R   0.060876 0.772495 0.677819 -0.255823
Cu1   Cu    Cu3+1 0.510010 0.517380 0.684380 0.966693
Cu2   Cu    Cu3+1 0.489990 0.482620 0.315620 0.966692
H1    H     H_    0.785157 0.737342 0.658891 0.184481
H2    H     H_    0.214842 0.262654 0.341122 0.184473
H3    H     H_    0.764540 0.265819 0.326742 0.143542
H4    H     H_    0.235460 0.734184 0.673254 0.143542
H5    H     H_    0.896843 0.122934 0.255504 0.150737
H6    H     H_    0.103157 0.877064 0.744509 0.150736
H7    H     H_    0.488397 0.960377 0.286452 0.179801
H8    H     H_    0.511603 0.039623 0.713548 0.179802
H9    H     H_    0.430067 0.377822 0.948881 0.229089
H10   H     H_    0.569932 0.622178 0.051119 0.229089
N1    N     N_2   0.474890 0.456420 0.038520 -0.214286
N2    N     N_2   0.525110 0.543580 0.961480 -0.214286
O1    O     O_R   0.506510 0.286130 0.619770 -0.583260
O2    O     O_R   0.493490 0.713870 0.380230 -0.583261
O3    O     O_R   0.489600 0.256770 0.308360 -0.588173
O4    O     O_R   0.510400 0.743230 0.691640 -0.588173
O5    O     O_R   0.378710 0.514640 0.655720 -0.585957
O6    O     O_R   0.621290 0.485360 0.344280 -0.585956
O7    O     O_R   0.361800 0.485290 0.344300 -0.574005
O8    O     O_R   0.638200 0.514710 0.655700 -0.574004
C23   C     C_2   0.067233 0.060788 0.261329 0.347778
H11   H     H_    0.028612 0.976136 0.151275 0.060263
O9    O     O_2   0.135426 0.018851 0.331225 -0.555842
C24   C     C_2   0.932768 0.939207 0.738705 0.347784
H12   H     H_    0.971393 0.023854 0.848758 0.060263
O10   O     O_2   0.864571 0.981148 0.668831 -0.555845

loop_
_geom_bond_atom_site_label_1
_geom_bond_atom_site_label_2
_ccdc_geom_bond_type
C6    H8    S    
Cu1   Cu2   S    
C7    O7    A    
C4    C22   A    
C2    O2    A    
Cu2   O2    S    
N1    N2    D    
Cu1   O5    S    
C1    O1    A    
C9    C11   A    
C14   H4    S    
C10   H2    S    
C24   O10   D    
C17   C18   A    
C9    H1    S    
C3    C20   A    
C23   H11   S    
C11   C13   A    
C2    C6    S    
C10   C12   A    
C8    C11   S    
C1    C5    S    
C24   H12   S    
H9    N1    S    
C12   C14   A    
H10   N2    S    
C13   C15   A    
C5    C6    D    
C14   C16   A    
C7    C12   S    
C3    C21   A    
Cu2   N1    S    
C1    O3    A    
C8    O6    A    
Cu1   O4    S    
C2    O4    A    
C15   C21   A    
Cu2   O3    S    
Cu2   O6    S    
C18   C20   A    
C16   C18   A    
Cu1   N2    S    
C4    C24   S    
C23   O9    D    
C15   C17   A    
Cu2   O7    S    
C3    C23   S    
C13   H3    S    
C16   C22   A    
C22   H6    S    
C17   C19   A    
Cu1   O1    S    
C4    C19   A    
C21   H5    S    
C9    C19   A    
Cu1   O8    S    
C8    O8    A    
C7    O5    A    
C10   C20   A    
C5    H7    S    
