data_mof_unit_40839.cif
_audit_creation_date              2012-12-11T15:11:47-0500
_audit_creation_method            fapswitch 2.2
_symmetry_space_group_name_H-M    P1
_symmetry_Int_Tables_number       1
_space_group_crystal_system       triclinic
_cell_length_a                    20.107126
_cell_length_b                    7.09892
_cell_length_c                    13.57164
_cell_angle_alpha                 90.000816
_cell_angle_beta                  103.381737
_cell_angle_gamma                 90.003685
_cell_volume                      1884.6050909

loop_
_atom_site_label
_atom_site_type_symbol
_atom_type_description
_atom_site_fract_x
_atom_site_fract_y
_atom_site_fract_z
_atom_type_partial_charge
O1    O     O_R   0.449830 0.506740 0.599960 -0.531196
O2    O     O_R   0.550170 0.006740 0.400040 -0.531197
O3    O     O_R   0.588980 0.179860 0.596720 -0.539166
O4    O     O_R   0.411020 0.679860 0.403280 -0.539164
C1    C     C_R   0.616243 0.344482 0.619429 0.656577
C2    C     C_R   0.383768 0.844479 0.380541 0.656558
O5    O     O_R   0.452740 0.177340 0.612040 -0.544631
O6    O     O_R   0.547260 0.677340 0.387960 -0.544681
O7    O     O_R   0.412960 0.002070 0.415460 -0.541633
O8    O     O_R   0.587040 0.502070 0.584540 -0.541641
C3    C     C_R   0.437039 0.346036 0.639210 0.713534
C4    C     C_R   0.562964 0.846048 0.360796 0.713604
O9    O     O_3   0.487110 0.337570 0.435490 -0.374953
O10   O     O_3   0.512890 0.837570 0.564510 -0.374929
V1    V     V_3+5 0.502390 0.064650 0.511970 1.435390
V2    V     V_3+5 0.497610 0.564650 0.488030 1.435340
C5    C     C_R   0.609182 0.940021 0.112670 -0.161333
C6    C     C_R   0.390898 0.438490 0.887564 -0.161302
H1    H     H_    0.516281 0.947809 0.164911 0.100482
H2    H     H_    0.483808 0.446303 0.835342 0.100417
H3    H     H_    0.692866 0.975307 0.988628 0.121027
H4    H     H_    0.307245 0.472969 0.011724 0.120979
H5    H     H_    0.583751 0.984403 0.036897 0.111029
H6    H     H_    0.416377 0.482095 0.963462 0.111001
C7    C     C_R   0.601950 0.857041 0.282430 -0.036872
C8    C     C_R   0.398048 0.356922 0.717580 -0.036758
C9    C     C_R   0.930437 0.813155 0.314434 -0.157288
C10   C     C_R   0.069529 0.314282 0.685460 -0.157295
C11   C     C_R   0.894281 0.787120 0.389032 -0.111156
C12   C     C_R   0.105662 0.288760 0.610796 -0.111173
C13   C     C_R   0.823207 0.799792 0.365451 -0.159805
C14   C     C_R   0.176750 0.300981 0.634420 -0.159991
C15   C     C_R   0.786171 0.840094 0.265467 0.072878
C16   C     C_R   0.213823 0.340295 0.734522 0.072844
C17   C     C_R   0.823726 0.870618 0.189754 0.073023
C18   C     C_R   0.176295 0.370266 0.810315 0.073014
C19   C     C_R   0.713341 0.855221 0.238644 0.066073
C20   C     C_R   0.286664 0.355043 0.761385 0.066106
C21   C     C_R   0.680161 0.910285 0.138622 0.148868
C22   C     C_R   0.319892 0.409187 0.861547 0.148910
C23   C     C_R   0.718004 0.936813 0.065523 -0.220667
C24   C     C_R   0.282074 0.435188 0.934723 -0.220664
C25   C     C_R   0.788547 0.915285 0.090242 -0.209543
C26   C     C_R   0.211512 0.414017 0.909953 -0.209524
C27   C     C_R   0.672119 0.820065 0.307992 -0.203335
C28   C     C_R   0.327851 0.320346 0.691944 -0.203595
C29   C     C_R   0.570600 0.918064 0.184976 -0.182924
C30   C     C_R   0.429459 0.417001 0.815193 -0.182953
C31   C     C_R   0.895953 0.855315 0.215212 -0.076299
C32   C     C_R   0.104053 0.355429 0.784801 -0.076130
H7    H     H_    0.692986 0.765889 0.382732 0.131334
H8    H     H_    0.306939 0.266693 0.617097 0.131487
H9    H     H_    0.985625 0.799420 0.333976 0.116150
H10   H     H_    0.014326 0.300995 0.665870 0.115825
H11   H     H_    0.799022 0.779570 0.427612 0.136459
H12   H     H_    0.200910 0.281252 0.572194 0.136718
H13   H     H_    0.921533 0.755820 0.465869 0.135322
H14   H     H_    0.078379 0.258294 0.533859 0.135495
H15   H     H_    0.815487 0.937295 0.030804 0.113258
H16   H     H_    0.184599 0.435590 0.969464 0.113120
C33   C     C_3   0.233774 0.714893 0.150800 -0.328697
C34   C     C_3   0.766203 0.215100 0.849234 -0.328864
H17   H     H_    0.212307 0.570292 0.149958 0.148774
H18   H     H_    0.787658 0.070464 0.850256 0.148738
H19   H     H_    0.235748 0.749875 0.071609 0.137157
H20   H     H_    0.764193 0.250411 0.928371 0.137089
C35   C     C_3   0.307252 0.716588 0.218749 -0.332963
C36   C     C_3   0.692749 0.216655 0.781217 -0.332861
H21   H     H_    0.343770 0.763998 0.173469 0.126670
H22   H     H_    0.656192 0.264024 0.826439 0.126531
H23   H     H_    0.322006 0.570203 0.243886 0.151734
H24   H     H_    0.678031 0.070239 0.756085 0.151771
C37   C     C_3   0.182822 0.804200 0.299410 -0.189351
C38   C     C_3   0.817189 0.303908 0.700585 -0.189320
C39   C     C_3   0.222743 0.054549 0.195036 -0.336424
C40   C     C_3   0.777320 0.554619 0.804802 -0.336243
C41   C     C_3   0.186996 0.858194 0.189237 0.069219
C42   C     C_3   0.813018 0.358187 0.810721 0.069219
H25   H     H_    0.191091 0.164267 0.220986 0.169098
H26   H     H_    0.808983 0.664161 0.778724 0.169240
H27   H     H_    0.228297 0.097015 0.118365 0.145765
H28   H     H_    0.771815 0.597360 0.881456 0.145743
C43   C     C_3   0.312139 0.849576 0.311480 0.064077
C44   C     C_3   0.687878 0.349581 0.688471 0.064080
C45   C     C_3   0.256897 0.789094 0.370152 -0.168996
C46   C     C_3   0.743116 0.289031 0.629807 -0.169094
C47   C     C_3   0.293960 0.050970 0.268854 -0.342189
C48   C     C_3   0.706078 0.550993 0.731057 -0.342220
H29   H     H_    0.333066 0.101071 0.228744 0.139786
H30   H     H_    0.666999 0.601102 0.771213 0.139873
H31   H     H_    0.294241 0.150631 0.332103 0.180762
H32   H     H_    0.705764 0.650630 0.667786 0.180667
H33   H     H_    0.155928 0.920900 0.328945 0.096711
H34   H     H_    0.844171 0.420390 0.671015 0.096523
H35   H     H_    0.259902 0.888303 0.434569 0.086581
H36   H     H_    0.740160 0.388325 0.565438 0.086570
O11   O     O_R   0.912980 0.203550 0.915410 -0.536386
O12   O     O_R   0.087020 0.703550 0.084590 -0.536371
O13   O     O_R   0.047270 0.535570 0.887960 -0.540792
O14   O     O_R   0.952730 0.035570 0.112040 -0.540809
C49   C     C_R   0.064000 0.367736 0.861975 0.686147
C50   C     C_R   0.936003 0.867723 0.138032 0.686181
O15   O     O_R   0.911030 0.532970 0.903270 -0.546475
O16   O     O_R   0.088970 0.032970 0.096730 -0.546517
O17   O     O_R   0.949820 0.708150 0.099970 -0.533990
O18   O     O_R   0.050180 0.208150 0.900030 -0.534027
C51   C     C_R   0.883652 0.365181 0.882477 0.653109
C52   C     C_R   0.116356 0.865189 0.117498 0.653164
O19   O     O_3   0.012900 0.375230 0.064480 -0.364485
O20   O     O_3   0.987100 0.875230 0.935520 -0.364455
V3    V     V_3+5 0.997610 0.648190 0.988040 1.455127
V4    V     V_3+5 0.002390 0.148190 0.011960 1.455020
C53   C     C_1   0.139898 0.634792 0.301626 0.283990
N1    N     N_1   0.106420 0.502752 0.303441 -0.359501
C54   C     C_1   0.860009 0.134250 0.698489 0.284231
N2    N     N_1   0.893406 0.002022 0.696773 -0.359362
C55   C     C_1   0.272122 0.600006 0.415864 0.321820
N3    N     N_1   0.284028 0.451826 0.450737 -0.416920
C56   C     C_1   0.727838 0.100039 0.583990 0.321755
N4    N     N_1   0.715895 0.951934 0.549025 -0.416636

loop_
_geom_bond_atom_site_label_1
_geom_bond_atom_site_label_2
_ccdc_geom_bond_type
C43   C47   S    
C35   C43   S    
C47   H31   S    
C25   H15   S    
C9    C11   A    
C5    C29   A    
C38   H34   S    
O1    C3    A    
C37   H33   S    
O2    C4    A    
C2    O7    A    
O12   C52   A    
C21   C23   A    
O18   V4    S    
O5    C3    A    
C5    H5    S    
C6    H6    S    
C40   C42   S    
C44   C46   S    
O19   V3    S    
H1    C29   S    
C27   H7    S    
C54   N2    T    
C28   H8    S    
C37   C53   S    
C50   O17   A    
O15   V3    S    
C5    C21   A    
C33   H17   S    
C6    C22   A    
O20   V3    S    
C34   H18   S    
C10   C32   A    
C48   H32   S    
C33   C41   S    
C17   C31   A    
C13   C15   A    
C46   C56   S    
C2    C43   S    
C12   C14   A    
C17   C25   A    
C40   C48   S    
C35   H23   S    
C36   H24   S    
O5    V1    S    
O17   V3    S    
O6    V2    S    
C11   C13   A    
C23   C25   A    
C24   C26   A    
C34   H20   S    
C36   C44   S    
C44   C48   S    
O4    C2    A    
O19   V4    S    
C40   H28   S    
C31   C50   S    
O16   V4    S    
C1    C44   S    
C10   H10   S    
C39   H27   S    
C3    C8    S    
C15   C19   A    
C42   C51   S    
C35   H21   S    
C14   C16   A    
O4    V2    S    
C33   C35   S    
O6    C4    A    
O13   V3    S    
O14   C50   A    
O1    V2    S    
C38   C46   S    
C45   C55   S    
O2    V1    S    
C39   C41   S    
C37   C45   S    
H2    C30   S    
C46   H36   S    
H3    C23   S    
C39   C47   S    
O13   C49   A    
C11   H13   S    
O14   V4    S    
C47   H29   S    
C18   C26   A    
C19   C27   A    
C7    C27   A    
O16   C52   A    
C18   C32   A    
C53   N1    T    
C49   O18   A    
O11   V4    S    
C7    C29   A    
O12   V3    S    
C43   C45   S    
C16   C20   A    
C34   C42   S    
C41   C52   S    
C40   H26   S    
C48   H30   S    
O3    C1    A    
C6    C30   A    
C56   N4    T    
C9    H9    S    
C8    C30   A    
C34   C36   S    
C4    C7    S    
C10   C12   A    
O7    V1    S    
C1    O8    A    
C19   C21   A    
O8    V2    S    
C55   N3    T    
C20   C22   A    
C45   H35   S    
H4    C24   S    
C26   H16   S    
C38   C54   S    
C12   H14   S    
C22   C24   A    
C15   C17   A    
C16   C18   A    
O20   V4    S    
C20   C28   A    
C8    C28   A    
O11   C51   A    
C33   H19   S    
C32   C49   S    
C36   H22   S    
C38   C42   S    
O9    V2    S    
C37   C41   S    
O10   V1    S    
O3    V1    S    
O15   C51   A    
C13   H11   S    
C39   H25   S    
C14   H12   S    
C9    C31   A    
