data_mof_unit_55665.cif
_audit_creation_date              2012-10-26T19:10:51-0400
_audit_creation_method            fapswitch 2.2
_symmetry_space_group_name_H-M    P1
_symmetry_Int_Tables_number       1
_space_group_crystal_system       triclinic
_cell_length_a                    10.990757
_cell_length_b                    9.688206
_cell_length_c                    23.18905
_cell_angle_alpha                 91.528754
_cell_angle_beta                  89.291953
_cell_angle_gamma                 90.738468
_cell_volume                      2467.92453252

loop_
_atom_site_label
_atom_site_type_symbol
_atom_type_description
_atom_site_fract_x
_atom_site_fract_y
_atom_site_fract_z
_atom_type_partial_charge
C1    C     C_R   0.261700 0.500225 0.504806 0.535529
C2    C     C_R   0.664255 0.500722 0.120485 0.432049
C3    C     C_R   0.572997 0.590132 0.237831 0.030393
C4    C     C_R   0.498681 0.498346 0.391096 0.569281
C5    C     C_R   0.564526 0.595200 0.297924 -0.134419
C6    C     C_R   0.498525 0.494412 0.327423 -0.023908
C7    C     C_R   0.423251 0.402078 0.295544 -0.026263
C8    C     C_R   0.428730 0.401774 0.234342 0.024354
C9    C     C_R   0.526768 0.472929 0.206552 0.126471
C10   C     C_R   0.428092 0.427187 0.766401 0.070168
C11   C     C_R   0.420314 0.420305 0.705399 -0.003861
C12   C     C_R   0.450918 0.216758 0.964760 -0.023879
C13   C     C_R   0.500486 0.503461 0.672591 -0.001095
C14   C     C_R   0.579819 0.595026 0.701212 -0.117694
C15   C     C_R   0.592088 0.592895 0.760939 0.020387
C16   C     C_R   0.740186 0.500607 0.503389 0.481152
C17   C     C_R   0.534417 0.485971 0.792408 0.185031
C18   C     C_3   0.076368 0.649880 0.517758 -0.173739
C19   C     C_3   0.073847 0.421740 0.560961 -0.186274
C20   C     C_3   0.939040 0.655409 0.502763 -0.023854
C21   C     C_3   0.930820 0.439687 0.567734 -0.028084
C22   C     C_3   0.077074 0.437783 0.451285 -0.244772
C23   C     C_R   0.451258 0.213826 0.025868 -0.029671
C24   C     C_3   0.125069 0.501616 0.508579 -0.070618
C25   C     C_3   0.881300 0.500358 0.507646 -0.116744
C26   C     C_3   0.938882 0.405955 0.455778 -0.069333
C27   C     C_3   0.615661 0.087048 0.476775 0.004259
C28   C     C_3   0.623975 0.922549 0.486909 -0.030265
C29   C     C_3   0.484444 0.087872 0.560772 -0.022229
C30   C     C_3   0.458469 0.925074 0.557938 -0.025202
C31   C     C_3   0.398973 0.077793 0.465267 -0.050591
C32   C     C_3   0.423604 0.917540 0.454082 -0.026231
C33   C     C_R   0.499355 0.501303 0.608957 0.527119
C34   C     C_R   0.521843 0.312433 0.057911 0.021038
C35   C     C_R   0.672540 0.501911 0.877691 0.408917
C36   C     C_R   0.526178 0.326935 0.874555 0.482611
C37   C     C_R   0.522896 0.316797 0.935402 0.039607
C38   C     C_R   0.595430 0.411583 0.967555 -0.047093
C39   C     C_R   0.676706 0.501561 0.938482 0.018742
C40   C     C_2   0.365208 0.122553 0.933349 0.316509
C41   C     C_2   0.327316 0.331563 0.675945 0.268849
C42   C     C_1   0.640226 0.717315 0.788341 0.315208
C43   C     C_2   0.882402 0.764561 0.543035 0.270701
C44   C     C_2   0.895721 0.532250 0.619180 0.261174
C45   C     C_R   0.593730 0.409894 0.028360 -0.042609
C46   C     C_2   0.927805 0.709122 0.442157 0.306172
C47   C     C_2   0.876892 0.301712 0.584697 0.245391
C48   C     C_1   0.884497 0.426807 0.398699 0.246853
C49   C     C_1   0.926504 0.255780 0.464376 0.264561
C50   C     C_2   0.367446 0.115279 0.054927 0.305701
C51   C     C_2   0.630445 0.130850 0.413828 0.362785
C52   C     C_2   0.688488 0.857201 0.435112 0.205293
C53   C     C_2   0.590842 0.125764 0.600772 0.263780
C54   C     C_2   0.509336 0.866189 0.611807 0.305252
C55   C     C_1   0.275878 0.094827 0.490781 0.217660
C56   C     C_R   0.671881 0.498802 0.060027 0.021272
C57   C     C_1   0.320152 0.837018 0.431788 0.276393
C58   C     C_1   0.842095 0.683237 0.944814 0.291870
C59   C     C_1   0.604328 0.718131 0.210308 0.279331
C60   C     C_1   0.332771 0.319327 0.325228 0.274560
C61   C     C_2   0.320694 0.357365 0.199773 0.335606
C62   C     C_2   0.315629 0.404922 0.801904 0.349575
C63   C     C_R   0.755500 0.583476 0.031154 -0.111111
C64   C     C_R   0.758651 0.586074 0.971005 -0.023315
C65   C     C_R   0.525900 0.317428 0.119030 0.417513
Cu1   Cu    Cu3+1 0.499860 0.642410 0.500030 0.914315
Cu2   Cu    Cu3+1 0.499860 0.357590 0.500030 0.957372
H1    H     H_    0.632606 0.669109 0.677024 0.125583
H2    H     H_    0.394341 0.129495 0.423398 0.127527
H3    H     H_    0.475140 0.912235 0.412752 0.063461
H4    H     H_    0.403125 0.136479 0.581414 0.186245
H5    H     H_    0.358195 0.908187 0.561644 0.164306
H6    H     H_    0.816329 0.651391 0.055510 0.178803
H7    H     H_    0.607296 0.680244 0.321622 0.130317
H8    H     H_    0.368711 0.012026 0.939395 0.100816
H9    H     H_    0.293823 0.358618 0.634124 0.099921
H10   H     H_    0.804027 0.742041 0.569968 0.093749
H11   H     H_    0.799945 0.547733 0.628804 0.086353
H12   H     H_    0.128735 0.728131 0.494549 0.213415
H13   H     H_    0.854632 0.673711 0.414983 0.124262
H14   H     H_    0.795063 0.263147 0.565722 0.117505
H15   H     H_    0.370305 0.006032 0.043513 0.100014
H16   H     H_    0.572523 0.089700 0.379956 0.089634
H17   H     H_    0.660419 0.761287 0.415971 0.158961
H18   H     H_    0.681143 0.087833 0.591407 0.090363
H19   H     H_    0.605746 0.844951 0.614311 0.084932
H20   H     H_    0.306017 0.402928 0.158207 0.133264
H21   H     H_    0.239949 0.343395 0.785750 0.196259
H22   H     H_    0.097447 0.311948 0.554848 0.189723
H23   H     H_    0.092381 0.683009 0.563461 0.181228
H24   H     H_    0.122050 0.456224 0.600617 0.162041
H25   H     H_    0.097957 0.511347 0.416244 0.157329
H26   H     H_    0.128642 0.343077 0.438903 0.174819
H27   H     H_    0.693361 0.134628 0.499469 0.146702
H28   H     H_    0.684939 0.907777 0.523643 0.109062
N1    N     N_R   0.575318 0.442334 0.849550 -0.375232
N2    N     N_1   0.908938 0.761220 0.924007 -0.171766
N3    N     N_1   0.628841 0.821082 0.188482 -0.199097
N4    N     N_1   0.259813 0.253150 0.348448 -0.260742
N5    N     N_R   0.569561 0.433736 0.147649 -0.397234
N6    N     N_3   0.500250 0.143650 0.501250 -0.332674
N7    N     N_3   0.500250 0.856350 0.501250 -0.315340
N8    N     N_1   0.678184 0.817630 0.810033 -0.179075
N9    N     N_1   0.842846 0.442902 0.353764 -0.206144
N10   N     N_1   0.920153 0.137721 0.470449 -0.121768
N11   N     N_1   0.179214 0.102654 0.510598 -0.238392
N12   N     N_1   0.242484 0.775431 0.409374 -0.230359
O1    O     O_R   0.317570 0.620260 0.500030 -0.498577
O2    O     O_2   0.487610 0.220349 0.840680 -0.412075
O3    O     O_2   0.496957 0.204101 0.149010 -0.417044
O4    O     O_2   0.755748 0.559114 0.151053 -0.449425
O5    O     O_2   0.286205 0.168675 0.903007 -0.391302
O6    O     O_2   0.292366 0.223171 0.696548 -0.429533
O7    O     O_2   0.925085 0.881664 0.545903 -0.431458
O8    O     O_2   0.971004 0.587491 0.650826 -0.462537
O9    O     O_2   0.994160 0.800905 0.424152 -0.392046
O10   O     O_2   0.922321 0.235076 0.622773 -0.416231
O11   O     O_2   0.290517 0.156575 0.089412 -0.413004
O12   O     O_R   0.317570 0.379740 0.500030 -0.511186
O13   O     O_2   0.710432 0.210938 0.399581 -0.446336
O14   O     O_2   0.775877 0.915043 0.413003 -0.446093
O15   O     O_2   0.573233 0.183076 0.647580 -0.433624
O16   O     O_2   0.443733 0.848562 0.653975 -0.450527
O17   O     O_2   0.248309 0.269970 0.216349 -0.399036
O18   O     O_2   0.303504 0.462346 0.849125 -0.455426
O19   O     O_R   0.499840 0.620290 0.417900 -0.533554
O20   O     O_R   0.499840 0.379710 0.417900 -0.476741
O21   O     O_R   0.682190 0.620260 0.500010 -0.560969
O22   O     O_R   0.682190 0.379740 0.500010 -0.498615
O23   O     O_R   0.499920 0.620230 0.582140 -0.501750
O24   O     O_R   0.499920 0.379770 0.582140 -0.489685
O25   O     O_2   0.769893 0.546856 0.847480 -0.439949

loop_
_geom_bond_atom_site_label_1
_geom_bond_atom_site_label_2
_ccdc_geom_bond_type
C33   O23   A    
C54   O16   D    
C28   C52   S    
Cu1   N7    S    
C60   N4    T    
C42   N8    T    
C7    C8    A    
C40   O5    D    
C10   C62   S    
C35   N1    A    
C39   C64   A    
C30   C54   S    
C12   C23   A    
C50   H15   S    
C37   C38   A    
C28   H28   S    
C18   C24   S    
C31   N6    S    
C36   C37   A    
C19   C21   S    
C53   O15   D    
C43   O7    D    
C38   C39   A    
C20   C25   S    
C10   C17   A    
C48   N9    T    
C12   C37   A    
C1    O12   A    
C5    H7    S    
C52   H17   S    
C38   C45   A    
C61   H20   S    
C16   O22   A    
C45   C56   A    
C18   H12   S    
C18   C20   S    
C26   C48   S    
C8    C61   S    
C33   O24   A    
Cu1   Cu2   S    
C2    N5    A    
C13   C14   A    
Cu1   O23   S    
Cu2   O22   S    
C58   N2    T    
C32   C57   S    
C34   C65   A    
C27   C51   S    
C58   C64   S    
C2    O4    S    
C55   N11   T    
C18   H23   S    
C44   O8    D    
C4    C6    S    
C26   C49   S    
Cu1   O1    S    
C17   N1    S    
C8    C9    A    
C23   C50   S    
C32   H3    S    
C63   H6    S    
C3    C5    A    
C25   C26   S    
C62   H21   S    
C27   N6    S    
Cu1   O19   S    
C12   C40   S    
C35   C39   A    
C13   C33   S    
C29   C30   S    
C19   H22   S    
Cu2   O20   S    
C21   C44   S    
C52   O14   D    
C36   N1    A    
C30   H5    S    
C31   C32   S    
C47   O10   D    
C23   C34   A    
C30   N7    S    
C51   O13   D    
C56   C63   A    
C29   N6    S    
C34   C45   A    
C3    C9    A    
C16   O21   A    
C57   N12   T    
C9    N5    S    
C61   O17   D    
C22   H26   S    
C22   C24   S    
C51   H16   S    
C7    C60   S    
C27   C28   S    
C20   C43   S    
Cu2   N6    S    
C54   H19   S    
C16   C25   S    
C15   C17   A    
C21   C25   S    
C22   H25   S    
C4    O20   A    
C50   O11   D    
Cu2   O24   S    
C15   C42   S    
C41   O6    D    
C65   N5    A    
C62   O18   D    
C49   N10   T    
C6    C7    A    
C4    O19   A    
C43   H10   S    
C40   H8    S    
C46   O9    D    
C31   C55   S    
C44   H11   S    
C19   C24   S    
C2    C56   A    
C41   H9    S    
C46   H13   S    
C11   C13   A    
C5    C6    A    
C29   C53   S    
Cu1   O21   S    
C11   C41   S    
C32   N7    S    
C47   H14   S    
C65   O3    S    
C19   H24   S    
C10   C11   A    
C1    O1    A    
C63   C64   A    
C28   N7    S    
C31   H2    S    
C1    C24   S    
C22   C26   S    
C36   O2    S    
C59   N3    T    
C14   H1    S    
C14   C15   A    
C27   H27   S    
C53   H18   S    
C29   H4    S    
Cu2   O12   S    
C35   O25   S    
C20   C46   S    
C21   C47   S    
C3    C59   S    
