data_mof_unit_57942.cif
_audit_creation_date              2012-12-10T17:24:13-0500
_audit_creation_method            fapswitch 2.2
_symmetry_space_group_name_H-M    P1
_symmetry_Int_Tables_number       1
_space_group_crystal_system       triclinic
_cell_length_a                    19.355749
_cell_length_b                    10.783668
_cell_length_c                    9.687225
_cell_angle_alpha                 89.829708
_cell_angle_beta                  90.712291
_cell_angle_gamma                 93.172484
_cell_volume                      2018.71539103

loop_
_atom_site_label
_atom_site_type_symbol
_atom_type_description
_atom_site_fract_x
_atom_site_fract_y
_atom_site_fract_z
_atom_type_partial_charge
C1    C     C_R   0.500517 0.261393 0.500112 0.779488
C2    C     C_R   0.290687 0.507652 0.497143 -0.253523
C3    C     C_R   0.928730 0.467282 0.500051 0.402396
C4    C     C_R   0.068662 0.479975 0.507176 0.575885
C5    C     C_R   0.818147 0.457330 0.622290 -0.149075
C6    C     C_R   0.746130 0.453995 0.625580 -0.038856
C7    C     C_R   0.707155 0.461314 0.501322 -0.128673
C8    C     C_R   0.741853 0.438836 0.376321 -0.087080
C9    C     C_R   0.814778 0.447188 0.372742 -0.057093
C10   C     C_R   0.852845 0.460877 0.497047 0.006101
C11   C     C_R   0.531465 0.104409 0.745242 -0.048443
C12   C     C_R   0.367490 0.504226 0.498869 0.855819
C13   C     C_R   0.503149 0.065546 0.871604 -0.054421
C14   C     C_R   0.455179 0.962037 0.872635 -0.014497
C15   C     C_R   0.448676 0.886628 0.754672 -0.171634
C16   C     C_R   0.475349 0.932470 0.628721 0.064206
C17   C     C_R   0.501516 0.055675 0.624038 0.037077
C18   C     C_R   0.495418 0.124268 0.500316 -0.087409
C19   C     C_R   0.470754 0.060955 0.381497 -0.169954
C20   C     C_R   0.461314 0.931958 0.383123 -0.090818
C21   C     C_R   0.471608 0.865712 0.504605 -0.084006
C22   C     C_R   0.609025 0.628716 0.146877 0.447173
C23   C     C_R   0.487840 0.733816 0.500411 0.881412
C24   C     C_R   0.672857 0.613878 0.088278 -0.254632
C25   C     C_R   0.676320 0.634154 0.947265 -0.082034
C26   C     C_R   0.614189 0.628372 0.868014 -0.060816
C27   C     C_R   0.552459 0.569102 0.927371 0.123140
C28   C     C_R   0.551400 0.569054 0.076547 0.117724
C29   C     C_R   0.453037 0.430889 0.073190 0.007605
C30   C     C_R   0.452790 0.430491 0.926218 0.052681
C31   C     C_R   0.631677 0.486550 0.500737 0.807547
C32   C     C_R   0.255966 0.495961 0.623207 -0.267097
C33   C     C_R   0.183895 0.493359 0.628859 0.376831
C34   C     C_R   0.144786 0.484273 0.505092 -0.235341
C35   C     C_R   0.179127 0.486785 0.377057 0.212355
C36   C     C_R   0.250886 0.518667 0.373880 0.314414
Cu1   Cu    Cu3+1 0.500000 0.499990 0.640660 0.975489
Cu2   Cu    Cu3+1 0.500000 0.500010 0.359340 1.026636
H1    H     H_    0.285212 0.493387 0.719013 0.227440
H2    H     H_    0.417085 0.800471 0.757565 0.167480
H3    H     H_    0.444242 0.883674 0.291464 0.213709
H4    H     H_    0.415610 0.371689 0.128133 0.157948
H5    H     H_    0.719159 0.634320 0.150295 0.176723
H6    H     H_    0.847537 0.455037 0.718372 0.172742
H7    H     H_    0.458776 0.110384 0.287818 0.174486
N1    N     N_R   0.033673 0.559594 0.427278 -0.142706
N2    N     N_R   0.964879 0.553199 0.423442 -0.182709
N3    N     N_R   0.963584 0.388560 0.581326 -0.187980
N4    N     N_R   0.032435 0.394145 0.584007 -0.137440
N5    N     N_R   0.500660 0.501210 0.147910 -0.219606
N6    N     N_R   0.500680 0.501290 0.852040 -0.219451
O1    O     O_R   0.499990 0.319640 0.618810 -0.586114
O2    O     O_R   0.500000 0.319660 0.381240 -0.575037
O3    O     O_R   0.400140 0.499970 0.618820 -0.599476
O4    O     O_R   0.400150 0.500000 0.381250 -0.548075
O5    O     O_R   0.500000 0.680340 0.618760 -0.607346
O6    O     O_R   0.500010 0.680360 0.381190 -0.511744
O7    O     O_R   0.599850 0.500000 0.618750 -0.589848
O8    O     O_R   0.599860 0.500030 0.381180 -0.582034
C37   C     C_1   0.603859 0.141345 0.737721 0.318587
N7    N     N_1   0.662659 0.163668 0.728407 -0.231312
C38   C     C_1   0.523583 0.132439 0.995640 0.205959
N8    N     N_1   0.540810 0.186744 0.094052 -0.251101
C39   C     C_1   0.409157 0.937383 0.986315 0.277310
N9    N     N_1   0.370842 0.918876 0.075622 -0.216654
S1    S     S_3+6 0.605658 0.787330 0.191588 0.008993
O9    O     O_2   0.615861 0.805380 0.344247 -0.267590
O10   O     O_2   0.661590 0.864829 0.119794 -0.276433
O11   O     O_3   0.529548 0.835468 0.137325 -0.595459
H8    H     H_    0.536214 0.926886 0.138204 0.368825
C40   C     C_1   0.742164 0.679329 0.891026 0.313697
N10   N     N_1   0.794687 0.715406 0.846242 -0.220207
C41   C     C_1   0.615035 0.718814 0.758037 0.382629
N11   N     N_1   0.620168 0.794557 0.673216 -0.234635
S2    S     S_3+6 0.145135 0.503102 0.792732 0.102978
O12   O     O_2   0.119752 0.375167 0.837429 -0.197941
O13   O     O_2   0.197327 0.555239 0.896144 -0.161890
O14   O     O_3   0.078192 0.596037 0.784505 -0.510430
H9    H     H_    0.053599 0.582376 0.872768 0.407114
C42   C     C_1   0.403255 0.347508 0.856550 0.326135
N12   N     N_1   0.363438 0.279964 0.801400 -0.256182
S3    S     S_3+6 0.134337 0.434022 0.224060 0.125162
O15   O     O_2   0.077169 0.339343 0.258609 -0.268018
O16   O     O_2   0.103277 0.541764 0.152306 -0.162201
O17   O     O_3   0.188683 0.367468 0.116513 -0.388310
H10   H     H_    0.206662 0.297308 0.169685 0.343059
S4    S     S_3+6 0.285054 0.599318 0.226871 0.086796
O18   O     O_2   0.310061 0.507884 0.124895 -0.294609
O19   O     O_2   0.230164 0.672501 0.159097 -0.146689
O20   O     O_3   0.350529 0.700067 0.273032 -0.547330
H11   H     H_    0.385670 0.692976 0.200401 0.382447
C43   C     C_1   0.715132 0.419162 0.755106 0.294318
N13   N     N_1   0.691546 0.387646 0.859475 -0.235921
C44   C     C_1   0.704096 0.383575 0.259869 0.275173
N14   N     N_1   0.674170 0.337476 0.167673 -0.199727
C45   C     C_1   0.850195 0.433932 0.242944 0.298516
N15   N     N_1   0.878395 0.423435 0.139319 -0.184599

loop_
_geom_bond_atom_site_label_1
_geom_bond_atom_site_label_2
_ccdc_geom_bond_type
S1    O10   D    
C30   N6    A    
C16   C21   A    
C29   H4    S    
C41   N11   T    
C35   C36   A    
S4    O18   D    
C2    C12   S    
C20   H3    S    
C7    C8    A    
C4    N1    A    
O17   H10   S    
C26   C27   A    
C29   C30   A    
C31   O7    A    
Cu1   Cu2   S    
C18   C19   A    
C5    C6    A    
Cu1   N6    S    
S1    O11   S    
C15   C16   A    
C3    N3    A    
C26   C41   S    
C2    C32   A    
C34   C35   A    
C32   H1    S    
C31   O8    A    
C1    O2    A    
C22   S1    S    
Cu1   O5    S    
C28   N5    A    
C33   S2    S    
Cu2   O4    S    
C19   C20   A    
C8    C9    A    
C25   C40   S    
C9    C10   A    
Cu1   O7    S    
C30   C42   S    
S1    O9    D    
C22   C28   A    
C13   C14   A    
C44   N14   T    
C1    O1    A    
C35   S3    S    
C27   N6    A    
C33   C34   A    
C29   N5    A    
C36   S4    S    
C4    C34   S    
C7    C31   S    
C13   C38   S    
C23   O5    A    
C8    C44   S    
C24   C25   A    
Cu1   O1    S    
O14   H9    S    
C16   C17   A    
C25   C26   A    
C37   N7    T    
S2    O12   D    
C38   N8    T    
Cu2   O6    S    
C14   C39   S    
C45   N15   T    
C17   C18   A    
C1    C18   S    
S2    O13   D    
C9    C45   S    
Cu1   O3    S    
N3    N4    A    
C5    H6    S    
S3    O16   D    
C21   C23   S    
C22   C24   A    
C11   C37   S    
C2    C36   A    
C23   O6    A    
N1    N2    A    
C11   C17   A    
C42   N12   T    
C19   H7    S    
C6    C7    A    
Cu2   N5    S    
S3    O17   S    
C4    N4    A    
C39   N9    T    
S4    O19   D    
C5    C10   A    
C3    C10   S    
C32   C33   A    
C11   C13   A    
O20   H11   S    
Cu2   O2    S    
C6    C43   S    
C3    N2    A    
C43   N13   T    
O11   H8    S    
S2    O14   S    
C15   H2    S    
C12   O4    A    
Cu2   O8    S    
C40   N10   T    
C20   C21   A    
S3    O15   D    
S4    O20   S    
C27   C28   A    
C24   H5    S    
C14   C15   A    
C12   O3    A    
