data_mof_unit_18854.cif
_audit_creation_date              2012-12-10T19:44:32-0500
_audit_creation_method            fapswitch 2.2
_symmetry_space_group_name_H-M    P1
_symmetry_Int_Tables_number       1
_space_group_crystal_system       triclinic
_cell_length_a                    8.593389
_cell_length_b                    15.012718
_cell_length_c                    14.178014
_cell_angle_alpha                 91.193387
_cell_angle_beta                  98.256588
_cell_angle_gamma                 89.899277
_cell_volume                      1809.75441612

loop_
_atom_site_label
_atom_site_type_symbol
_atom_type_description
_atom_site_fract_x
_atom_site_fract_y
_atom_site_fract_z
_atom_type_partial_charge
C1    C     C_R   0.503542 0.328226 0.499270 0.923933
C2    C     C_R   0.493005 0.672442 0.500252 0.904205
C3    C     C_R   0.359394 0.479377 0.091780 -0.199300
C4    C     C_R   0.567248 0.572092 0.902857 -0.192558
C5    C     C_R   0.363953 0.482184 0.192102 0.695203
C6    C     C_R   0.568048 0.568981 0.802767 0.680220
C7    C     C_R   0.635463 0.514244 0.215613 -0.052801
C8    C     C_R   0.439571 0.429250 0.788531 -0.048603
C9    C     C_R   0.638144 0.511715 0.116837 -0.280199
C10   C     C_R   0.444003 0.426310 0.887649 -0.301665
C11   C     C_R   0.499646 0.495944 0.052739 0.021154
C12   C     C_R   0.504091 0.498536 0.946633 0.039027
C13   C     C_R   0.201684 0.501570 0.475726 0.882944
C14   C     C_R   0.798533 0.500406 0.524602 0.883035
C15   C     C_2   0.038682 0.511369 0.464202 0.274296
C16   C     C_2   0.962322 0.494326 0.537612 0.257136
C17   C     C_R   0.399994 0.096471 0.540068 -0.228851
C18   C     C_R   0.528326 0.906905 0.427692 -0.271600
C19   C     C_R   0.396602 0.187583 0.538391 0.570068
C20   C     C_R   0.521760 0.815703 0.423484 0.608958
C21   C     C_R   0.510902 0.232928 0.498049 -0.212529
C22   C     C_R   0.484371 0.769119 0.501869 -0.240859
C23   C     C_R   0.633593 0.187348 0.461196 -0.138003
C24   C     C_R   0.444054 0.815743 0.582852 -0.095125
C25   C     C_R   0.647118 0.094682 0.472956 -0.023795
C26   C     C_R   0.478621 0.907304 0.593071 -0.042475
C27   C     C_R   0.527024 0.049625 0.512171 -0.003578
C28   C     C_R   0.518524 0.952685 0.513249 -0.007024
H1    H     H_    0.301736 0.062345 0.562971 0.171199
H2    H     H_    0.544648 0.941849 0.363850 0.168884
H3    H     H_    0.742850 0.527494 0.262561 0.254427
H4    H     H_    0.389153 0.374029 0.744341 0.210492
H5    H     H_    0.748619 0.522705 0.090455 0.195984
H6    H     H_    0.398222 0.368043 0.918111 0.172532
N1    N     N_R   0.500000 0.499980 0.252470 -0.144408
N2    N     N_R   0.500000 0.500020 0.747530 -0.135409
O1    O     O_R   0.500010 0.369070 0.579480 -0.599517
O2    O     O_R   0.499990 0.630930 0.420520 -0.547693
O3    O     O_R   0.500010 0.369060 0.420520 -0.638748
O4    O     O_R   0.499990 0.630940 0.579480 -0.570547
O5    O     O_R   0.271750 0.500000 0.560890 -0.580516
O6    O     O_R   0.728250 0.500000 0.439110 -0.601128
O7    O     O_R   0.271750 0.499990 0.401930 -0.530953
O8    O     O_R   0.728250 0.500010 0.598070 -0.580717
Zn1   Zn    Zn3+2 0.500000 0.500010 0.606140 1.044495
Zn2   Zn    Zn3+2 0.500000 0.499990 0.393860 1.047368
F1    F     F_    0.968215 0.543422 0.379628 -0.664475
F2    F     F_    0.033813 0.465121 0.623677 -0.654921
F3    F     F_    0.278564 0.231561 0.573700 -0.692532
F4    F     F_    0.549960 0.773804 0.341786 -0.654728
C29   C     C_R   0.745101 0.235710 0.409664 0.117738
C30   C     C_R   0.698053 0.259841 0.314560 -0.111829
C31   C     C_R   0.803920 0.301466 0.263562 -0.162735
C32   C     C_R   0.957526 0.318662 0.306868 -0.089169
C33   C     C_R   0.005331 0.294678 0.401288 -0.122084
C34   C     C_R   0.899544 0.253419 0.452917 -0.116856
H7    H     H_    0.579774 0.245622 0.279863 0.123841
H8    H     H_    0.767235 0.319827 0.190299 0.134802
H9    H     H_    0.039611 0.350261 0.267136 0.204143
H10   H     H_    0.124420 0.308417 0.434204 0.179484
H11   H     H_    0.937948 0.234573 0.525872 0.185914
C35   C     C_R   0.339652 0.773299 0.644454 0.164683
C36   C     C_R   0.192419 0.740087 0.601980 -0.219206
C37   C     C_R   0.087063 0.705088 0.657909 -0.063161
C38   C     C_R   0.127251 0.703159 0.756701 -0.087843
C39   C     C_R   0.273430 0.735091 0.799541 -0.206736
C40   C     C_R   0.380481 0.768984 0.743851 -0.019221
H12   H     H_    0.158081 0.742839 0.525525 0.135261
H13   H     H_    0.973374 0.680692 0.624776 0.146426
H14   H     H_    0.044666 0.677684 0.800148 0.128491
H15   H     H_    0.302574 0.734521 0.876062 0.131083
H16   H     H_    0.493449 0.793264 0.778370 0.167592
C41   C     C_R   0.784193 0.045623 0.443765 0.138247
C42   C     C_R   0.890769 0.002062 0.512011 -0.127781
C43   C     C_R   0.017281 0.954419 0.484253 -0.148149
C44   C     C_R   0.039574 0.950647 0.388635 -0.082699
C45   C     C_R   0.934278 0.993763 0.320221 -0.117045
C46   C     C_R   0.806761 0.040754 0.347426 -0.151910
H17   H     H_    0.876046 0.005127 0.586462 0.118585
H18   H     H_    0.098167 0.920231 0.536656 0.126356
H19   H     H_    0.138023 0.913967 0.367584 0.133884
H20   H     H_    0.950759 0.990237 0.245975 0.118033
H21   H     H_    0.724255 0.072129 0.293284 0.120235
C47   C     C_R   0.481541 0.954357 0.686851 0.118694
C48   C     C_R   0.626436 0.980663 0.738578 -0.129772
C49   C     C_R   0.632210 0.024587 0.826928 -0.139631
C50   C     C_R   0.493420 0.042621 0.864352 -0.111958
C51   C     C_R   0.348640 0.016613 0.813543 -0.109031
C52   C     C_R   0.342387 0.972634 0.725210 -0.169551
H22   H     H_    0.734939 0.966191 0.711019 0.120542
H23   H     H_    0.744382 0.044415 0.866516 0.123627
H24   H     H_    0.498096 0.076565 0.932803 0.115955
H25   H     H_    0.241181 0.030391 0.842674 0.124815
H26   H     H_    0.229425 0.952654 0.687159 0.121506
C53   C     C_R   0.207251 0.457976 0.030908 0.177585
C54   C     C_R   0.144425 0.513578 0.956180 -0.140225
C55   C     C_R   0.004748 0.490090 0.897510 -0.110723
C56   C     C_R   0.923111 0.413310 0.915128 -0.085033
C57   C     C_R   0.982534 0.358660 0.990292 -0.175287
C58   C     C_R   0.124493 0.380259 0.047324 -0.109257
H27   H     H_    0.204451 0.574200 0.942364 0.120749
H28   H     H_    0.959527 0.531126 0.838033 0.163197
H29   H     H_    0.814233 0.395953 0.870206 0.141545
H30   H     H_    0.919501 0.298960 0.003749 0.127616
H31   H     H_    0.170637 0.335856 0.103810 0.130446
C59   C     C_R   0.626690 0.653513 0.958741 0.144249
C60   C     C_R   0.534392 0.697138 0.019986 -0.164343
C61   C     C_R   0.590380 0.773481 0.072036 -0.086314
C62   C     C_R   0.738735 0.807429 0.063444 -0.093516
C63   C     C_R   0.831298 0.765037 0.002765 -0.157390
C64   C     C_R   0.775748 0.688611 0.950728 -0.085041
H32   H     H_    0.418565 0.672478 0.027247 0.129010
H33   H     H_    0.518515 0.806411 0.118962 0.162395
H34   H     H_    0.781914 0.866563 0.103772 0.124160
H35   H     H_    0.946354 0.791300 0.996086 0.126943
H36   H     H_    0.849618 0.656731 0.904726 0.136934
F5    F     F_    0.229162 0.468311 0.228393 -0.667853
F6    F     F_    0.635855 0.635712 0.760188 -0.693717

loop_
_geom_bond_atom_site_label_1
_geom_bond_atom_site_label_2
_ccdc_geom_bond_type
C54   H27   S    
C50   C51   A    
C1    C21   S    
C31   H8    S    
C17   H1    S    
C60   H32   S    
C32   C33   A    
C53   C54   A    
C15   F1    S    
C33   C34   A    
C16   F2    S    
C13   O5    A    
C55   C56   A    
C48   C49   A    
O8    Zn1   S    
C58   H31   S    
C35   C40   A    
C22   C24   A    
C19   C21   A    
C24   C26   A    
C29   C34   A    
C49   H23   S    
O6    Zn2   S    
C59   C60   A    
C56   H29   S    
C61   C62   A    
C40   H16   S    
C41   C42   A    
C52   H26   S    
C19   F3    S    
C63   C64   A    
C20   F4    S    
C36   H12   S    
C46   H21   S    
C57   C58   A    
C31   C32   A    
C2    C22   S    
C26   C47   S    
C41   C46   A    
C64   H36   S    
C18   H2    S    
C4    C12   A    
C43   H18   S    
C18   C20   A    
C55   H28   S    
C1    O1    A    
C59   C64   A    
C57   H30   S    
C33   H10   S    
C9    H5    S    
C32   H9    S    
O4    Zn1   S    
C7    H3    S    
C42   C43   A    
C29   C30   A    
C8    H4    S    
C18   C28   A    
C44   C45   A    
C4    C6    A    
C49   C50   A    
C45   C46   A    
C4    C59   S    
C5    F5    S    
C17   C27   A    
C61   H33   S    
C43   C44   A    
C35   C36   A    
C2    O2    A    
C23   C29   S    
C39   H15   S    
C60   C61   A    
C54   C55   A    
N2    Zn1   S    
C10   H6    S    
C37   H13   S    
C47   C48   A    
C9    C11   A    
C10   C12   A    
C62   H34   S    
O3    Zn2   S    
C20   C22   A    
C38   C39   A    
C42   H17   S    
C13   C15   S    
C14   C16   S    
C47   C52   A    
O1    Zn1   S    
C13   O7    A    
C30   C31   A    
C14   O8    A    
C7    C9    A    
C51   H25   S    
C24   C35   S    
C53   C58   A    
C7    N1    A    
C3    C5    A    
C44   H19   S    
C48   H22   S    
C8    N2    A    
C25   C27   A    
C26   C28   A    
C14   O6    A    
C37   C38   A    
C21   C23   A    
C62   C63   A    
C45   H20   S    
C5    N1    A    
C17   C19   A    
C6    N2    A    
C39   C40   A    
C25   C41   S    
C23   C25   A    
O7    Zn2   S    
O2    Zn2   S    
C3    C11   A    
C30   H7    S    
C1    O3    A    
C36   C37   A    
C2    O4    A    
C51   C52   A    
C8    C10   A    
C56   C57   A    
C27   C28   S    
O5    Zn1   S    
C34   H11   S    
C3    C53   S    
C38   H14   S    
C50   H24   S    
N1    Zn2   S    
C63   H35   S    
C6    F6    S    
C15   C16   D    
C11   C12   S    
