data_mof_unit_41944.cif
_audit_creation_date              2013-03-05T15:48:16-0500
_audit_creation_method            fapswitch 2.2
_symmetry_space_group_name_H-M    P1
_symmetry_Int_Tables_number       1
_space_group_crystal_system       triclinic
_cell_length_a                    11.808368
_cell_length_b                    12.954905
_cell_length_c                    15.825727
_cell_angle_alpha                 94.018961
_cell_angle_beta                  72.65203
_cell_angle_gamma                 98.517653
_cell_volume                      2284.48529696

loop_
_atom_site_label
_atom_site_type_symbol
_atom_site_description
_atom_site_fract_x
_atom_site_fract_y
_atom_site_fract_z
_atom_type_partial_charge
O1    O     O_R   0.419950 0.645670 0.495380 -0.596592
O2    O     O_R   0.580050 0.354330 0.504620 -0.589156
O3    O     O_R   0.611110 0.658410 0.506370 -0.583571
O4    O     O_R   0.388890 0.341590 0.493630 -0.585076
C1    C     C_R   0.519833 0.700238 0.501571 0.796551
C2    C     C_R   0.480747 0.299842 0.497572 0.791260
O5    O     O_R   0.350820 0.490050 0.621260 -0.585832
O6    O     O_R   0.649180 0.509950 0.378740 -0.595054
O7    O     O_R   0.541970 0.502800 0.632250 -0.587352
O8    O     O_R   0.458030 0.497200 0.367750 -0.583297
C3    C     C_R   0.426456 0.495586 0.668321 0.781945
C4    C     C_R   0.573579 0.505815 0.331711 0.783089
Cu1   Cu    Cu3+1 0.386820 0.492450 0.493500 0.927576
Cu2   Cu    Cu3+1 0.613180 0.507550 0.506500 0.926032
C5    C     C_R   0.382984 0.495182 0.765808 -0.055147
C6    C     C_R   0.616953 0.516365 0.234787 -0.049112
C7    C     C_R   0.224141 0.478297 0.904040 -0.194884
C8    C     C_R   0.771951 0.567776 0.100049 -0.199173
C9    C     C_R   0.260870 0.480760 0.811755 -0.199932
C10   C     C_R   0.736610 0.551798 0.190854 -0.197574
C11   C     C_R   0.467448 0.509034 0.813319 -0.247386
C12   C     C_R   0.533187 0.498047 0.186635 -0.245039
C13   C     C_R   0.432995 0.509958 0.906277 0.086551
C14   C     C_R   0.564782 0.520759 0.096336 0.086251
C15   C     C_R   0.309048 0.491357 0.951426 0.167313
C16   C     C_R   0.687227 0.552938 0.052656 0.166894
C17   C     C_R   0.518335 0.526063 0.955188 0.067208
C18   C     C_R   0.478522 0.512319 0.048425 0.066896
C19   C     C_R   0.353737 0.494297 0.090964 -0.223988
C20   C     C_R   0.641681 0.557939 0.914323 -0.221503
C21   C     C_R   0.271026 0.485278 0.043283 -0.234458
C22   C     C_R   0.723896 0.571685 0.962435 -0.232085
H1    H     H_    0.443319 0.465379 0.221192 0.147795
H2    H     H_    0.560456 0.515699 0.776073 0.151095
H3    H     H_    0.802507 0.569515 0.226376 0.139142
H4    H     H_    0.194055 0.469513 0.776515 0.148791
H5    H     H_    0.129193 0.465181 0.938446 0.130646
H6    H     H_    0.865319 0.594265 0.067144 0.129890
H7    H     H_    0.316314 0.490193 0.161774 0.142216
H8    H     H_    0.677756 0.577019 0.845473 0.136479
C23   C     C_R   0.472835 0.186906 0.491990 -0.049912
C24   C     C_R   0.530147 0.813425 0.504624 -0.042382
C25   C     C_R   0.622089 0.980851 0.546590 -0.215878
C26   C     C_R   0.383282 0.019710 0.447864 -0.216495
C27   C     C_R   0.614151 0.872729 0.541512 -0.193264
C28   C     C_R   0.388602 0.127576 0.455400 -0.191461
C29   C     C_R   0.455612 0.862677 0.471362 -0.274033
C30   C     C_R   0.551191 0.138139 0.521725 -0.275976
C31   C     C_R   0.461133 0.970570 0.477897 0.176301
C32   C     C_R   0.545339 0.030179 0.515539 0.177535
H9    H     H_    0.615845 0.183990 0.550437 0.151471
H10   H     H_    0.394120 0.817488 0.439693 0.137956
H11   H     H_    0.328039 0.164627 0.431490 0.148685
H12   H     H_    0.672686 0.835500 0.567403 0.152958
H13   H     H_    0.687025 0.025634 0.575533 0.137075
H14   H     H_    0.318256 0.974854 0.419043 0.134659
N1    N     N_R   0.216750 0.481110 0.483710 -0.183896
N2    N     N_R   0.783250 0.518890 0.516290 -0.184061
C33   C     C_R   0.921956 0.577570 0.598627 -0.357330
C34   C     C_R   0.061487 0.387985 0.428516 -0.355598
C35   C     C_R   0.808508 0.572073 0.586925 0.051827
C36   C     C_R   0.178419 0.400682 0.434885 0.051797
C37   C     C_R   0.868595 0.461828 0.458854 0.248364
C38   C     C_R   0.135010 0.546372 0.534272 0.244716
C39   C     C_R   0.978648 0.455016 0.476782 0.033788
C40   C     C_R   0.011341 0.524366 0.539190 0.033104
H15   H     H_    0.239951 0.348149 0.397992 0.127593
H16   H     H_    0.741742 0.613439 0.633100 0.127372
H17   H     H_    0.939317 0.624227 0.654002 0.157223
H18   H     H_    0.036657 0.325549 0.385720 0.160413
H19   H     H_    0.176361 0.472185 0.078684 0.139316
H20   H     H_    0.817186 0.597399 0.928564 0.140036
C41   C     C_3   0.173717 0.657124 0.564417 -0.361083
C42   C     C_3   0.193326 0.665719 0.656575 -0.309346
C43   C     C_3   0.173020 0.772870 0.700585 -0.893286
H21   H     H_    0.233498 0.835298 0.658065 0.268567
H22   H     H_    0.078541 0.785709 0.712275 0.250469
H23   H     H_    0.192284 0.777427 0.765371 0.249990
H24   H     H_    0.131346 0.604958 0.700133 0.203402
H25   H     H_    0.286390 0.655930 0.651214 0.247765
H26   H     H_    0.246442 0.697496 0.512635 0.199647
H27   H     H_    0.105843 0.708200 0.564929 0.168295
C44   C     C_3   0.866309 0.429791 0.364730 -0.373367
C45   C     C_3   0.798516 0.320662 0.355315 -0.293987
C46   C     C_3   0.853476 0.267828 0.266084 -0.902628
H28   H     H_    0.854153 0.317052 0.211131 0.261435
H29   H     H_    0.946474 0.254645 0.259876 0.251054
H30   H     H_    0.799618 0.191081 0.260708 0.254043
H31   H     H_    0.798684 0.269771 0.408998 0.214062
H32   H     H_    0.705087 0.327089 0.358568 0.242327
H33   H     H_    0.839799 0.491394 0.334106 0.195885
H34   H     H_    0.959307 0.432827 0.320201 0.167446

loop_
_geom_bond_atom_site_label_1
_geom_bond_atom_site_label_2
_geom_bond_distance
_ccdc_geom_bond_type
C26   C31   1.397356 A    
C15   C21   1.391905 A    
O5    Cu1   1.939603 S    
C1    C24   1.451879 S    
C37   C39   1.426348 A    
C16   C22   1.390654 A    
C41   C42   1.537577 S    
C8    C16   1.403816 A    
O7    Cu2   1.917080 S    
N1    C36   1.357780 A    
C29   C31   1.387590 A    
C46   H28   1.111356 S    
C5    C9    1.398883 A    
C44   H34   1.110714 S    
C23   C28   1.403580 A    
C36   H15   1.081560 S    
O1    C1    1.308697 A    
C18   C19   1.416864 A    
C14   C16   1.417040 A    
C9    H4    1.082463 S    
C33   C40   1.416497 A    
Cu1   N1    2.042943 S    
C34   C36   1.398984 A    
O4    Cu1   1.958299 S    
C10   H3    1.078925 S    
C3    C5    1.473706 S    
C30   H9    1.084839 S    
C4    C6    1.474438 S    
C2    C23   1.450318 S    
O6    Cu2   1.939605 S    
C38   C41   1.528053 S    
C13   C17   1.427750 A    
C6    C10   1.399038 A    
N2    C35   1.357664 A    
C30   C32   1.388050 A    
C42   H25   1.102324 S    
Cu1   Cu2   2.718939 S    
C17   C20   1.416953 A    
O2    C2    1.306705 A    
C45   H32   1.104298 S    
C41   H26   1.090843 S    
C26   C28   1.387799 A    
C46   H29   1.110690 S    
Cu2   N2    2.042942 S    
C33   C35   1.397078 A    
C42   C43   1.527412 S    
C45   C46   1.527543 S    
C22   H20   1.084446 S    
C11   H2    1.074284 S    
C37   C44   1.525072 S    
C24   C27   1.404188 A    
C38   C40   1.425448 A    
O5    C3    1.314441 A    
C43   H21   1.111531 S    
C43   H22   1.110912 S    
C26   H14   1.083903 S    
C44   C45   1.538859 S    
C34   H18   1.081802 S    
O6    C4    1.315381 A    
C19   H7    1.077027 S    
C20   H8    1.076827 S    
C7    H5    1.083910 S    
O7    C3    1.304053 A    
O3    Cu2   1.958299 S    
O8    C4    1.303532 A    
C33   H17   1.082360 S    
C25   H13   1.083872 S    
C34   C39   1.416847 A    
C39   C40   1.389932 A    
C42   H24   1.111300 S    
C11   C13   1.404243 A    
C12   C14   1.405861 A    
O4    C2    1.300695 A    
O1    Cu1   1.965348 S    
C45   H31   1.111919 S    
C41   H27   1.110279 S    
N1    C38   1.404658 A    
C46   H30   1.110553 S    
N2    C37   1.403044 A    
C12   H1    1.075936 S    
C6    C12   1.403581 A    
C14   C18   1.428397 A    
O3    C1    1.299501 A    
O8    Cu1   1.917080 S    
C27   H12   1.083328 S    
C25   C32   1.397263 A    
C29   H10   1.082183 S    
C44   H33   1.090176 S    
C7    C15   1.405911 A    
C8    H6    1.084014 S    
C25   C27   1.388185 A    
C20   C22   1.387277 A    
C35   H16   1.081411 S    
C28   H11   1.083294 S    
C21   H19   1.084386 S    
C7    C9    1.395279 A    
C23   C30   1.396848 A    
C8    C10   1.393063 A    
C24   C29   1.395910 A    
C13   C15   1.416601 A    
O2    Cu2   1.965346 S    
C43   H23   1.110427 S    
C5    C11   1.402718 A    
C19   C21   1.389353 A    
C31   C32   1.414646 A    
C17   C18   1.424179 A    
