data_mof_unit_25251.cif
_audit_creation_date              2012-12-10T18:31:55-0500
_audit_creation_method            fapswitch 2.2
_symmetry_space_group_name_H-M    P1
_symmetry_Int_Tables_number       1
_space_group_crystal_system       triclinic
_cell_length_a                    10.638563
_cell_length_b                    14.972472
_cell_length_c                    15.482389
_cell_angle_alpha                 82.367078
_cell_angle_beta                  89.301026
_cell_angle_gamma                 104.333281
_cell_volume                      2365.57394884

loop_
_atom_site_label
_atom_site_type_symbol
_atom_type_description
_atom_site_fract_x
_atom_site_fract_y
_atom_site_fract_z
_atom_type_partial_charge
C1    C     C_R   0.478385 0.441716 0.662106 0.864017
C2    C     C_3   0.121709 0.499479 0.497638 0.169007
C3    C     C_3   0.040361 0.408181 0.468701 -0.409615
C4    C     C_3   0.105190 0.583157 0.432010 -0.435947
C5    C     C_R   0.449881 0.405988 0.754497 -0.062579
C6    C     C_R   0.501451 0.591059 0.246468 -0.043142
C7    C     C_R   0.404083 0.280571 0.875133 -0.210163
C8    C     C_R   0.428980 0.311128 0.786138 -0.202135
C9    C     C_R   0.439461 0.468900 0.811309 -0.273469
C10   C     C_R   0.412515 0.439814 0.900397 0.092034
C11   C     C_R   0.399689 0.344670 0.932763 0.178226
C12   C     C_R   0.742279 0.500860 0.498739 0.845491
C13   C     C_R   0.409320 0.504598 0.958646 0.067225
C14   C     C_R   0.418473 0.476655 0.048544 0.067972
C15   C     C_R   0.399710 0.380717 0.079615 -0.235474
C16   C     C_R   0.387154 0.315516 0.022315 -0.239048
C17   C     C_R   0.399724 0.596523 0.930158 -0.235974
C18   C     C_R   0.411734 0.661494 0.987906 -0.243229
C19   C     C_R   0.438760 0.637826 0.074496 0.176981
C20   C     C_R   0.445773 0.545705 0.104445 0.083613
C21   C     C_R   0.459662 0.704892 0.131724 -0.214328
C22   C     C_R   0.488274 0.680995 0.218163 -0.224191
C23   C     C_R   0.515113 0.558030 0.337971 0.886168
C24   C     C_R   0.485742 0.526057 0.188506 -0.268500
C25   C     C_R   0.699282 0.845147 0.631598 -0.321664
C26   C     C_R   0.664368 0.754803 0.612156 0.005811
C27   C     C_R   0.514348 0.793454 0.510487 -0.072464
C28   C     C_R   0.545116 0.886513 0.527217 -0.007013
C29   C     C_R   0.640129 0.911400 0.589166 0.182915
C30   C     C_R   0.485381 0.954834 0.485177 0.081946
C31   C     C_R   0.521288 0.047286 0.506444 0.096987
C32   C     C_R   0.618253 0.068923 0.567638 -0.245433
C33   C     C_R   0.675886 0.002106 0.608109 -0.218934
C34   C     C_R   0.258063 0.499585 0.499238 0.833579
C35   C     C_R   0.390941 0.933614 0.422843 -0.238466
C36   C     C_R   0.331307 0.999723 0.383524 -0.225422
C37   C     C_R   0.361983 0.090523 0.404477 0.121967
C38   C     C_R   0.458717 0.114968 0.466148 -0.019971
C39   C     C_R   0.297396 0.157269 0.365431 0.005676
C40   C     C_R   0.333693 0.246930 0.388971 -0.015779
C41   C     C_R   0.487920 0.206671 0.485835 -0.087004
C42   C     C_3   0.928498 0.507410 0.590439 -0.447909
C43   C     C_3   0.073084 0.507908 0.590398 -0.396451
C44   C     C_3   0.897524 0.408054 0.470510 -0.383976
C45   C     C_3   0.961776 0.587557 0.434570 -0.130928
C46   C     C_3   0.879337 0.501263 0.496981 0.135183
H1    H     H_    0.871926 0.447127 0.636802 0.167677
H2    H     H_    0.140243 0.576744 0.365679 0.159919
H3    H     H_    0.856233 0.395076 0.406549 0.177549
H4    H     H_    0.072537 0.401437 0.401686 0.162356
H5    H     H_    0.374127 0.242741 0.048253 0.144239
H6    H     H_    0.506523 0.459895 0.209974 0.162060
H7    H     H_    0.499030 0.732152 0.262654 0.152737
H8    H     H_    0.403623 0.731168 0.964085 0.145124
H9    H     H_    0.392143 0.207469 0.899188 0.133264
H10   H     H_    0.434594 0.261148 0.742601 0.156654
H11   H     H_    0.459142 0.541692 0.785500 0.162423
H12   H     H_    0.915257 0.571696 0.614101 0.173743
H13   H     H_    0.391810 0.354018 0.148224 0.142474
H14   H     H_    0.379011 0.619181 0.863939 0.148220
H15   H     H_    0.452198 0.775143 0.109944 0.135395
H16   H     H_    0.749221 0.021740 0.654876 0.141938
H17   H     H_    0.558176 0.232106 0.531751 0.132250
H18   H     H_    0.289355 0.301292 0.361999 0.132489
H19   H     H_    0.259952 0.977841 0.336429 0.139651
H20   H     H_    0.772114 0.863178 0.678999 0.142062
H21   H     H_    0.709969 0.702880 0.643749 0.131335
H22   H     H_    0.444767 0.767379 0.464331 0.124858
H23   H     H_    0.129607 0.573583 0.611982 0.181474
H24   H     H_    0.652901 0.137078 0.586331 0.133185
H25   H     H_    0.359836 0.865936 0.402452 0.131875
H26   H     H_    0.087121 0.448965 0.638020 0.162968
H27   H     H_    0.844014 0.348362 0.518840 0.175073
H28   H     H_    0.053177 0.346534 0.513233 0.184625
H29   H     H_    0.959784 0.649743 0.466546 0.135838
H30   H     H_    0.166696 0.649678 0.449051 0.166362
N1    N     N_R   0.573860 0.731700 0.552730 -0.100093
N2    N     N_R   0.426060 0.268290 0.447230 -0.114454
O1    O     O_R   0.462770 0.383110 0.605620 -0.615229
O2    O     O_R   0.510160 0.531900 0.639510 -0.619753
O3    O     O_R   0.661510 0.425600 0.483070 -0.625026
O4    O     O_R   0.708900 0.574390 0.516960 -0.631324
O5    O     O_R   0.489840 0.468100 0.360490 -0.622063
O6    O     O_R   0.537230 0.616890 0.394380 -0.619689
O7    O     O_R   0.291100 0.425610 0.483040 -0.631176
O8    O     O_R   0.338490 0.574400 0.516930 -0.628791
Zn1   Zn    Zn3+2 0.468350 0.400660 0.477370 0.927056
Zn2   Zn    Zn3+2 0.531650 0.599340 0.522630 0.924503
C47   C     C_3   0.191463 0.131800 0.300655 -0.440963
C48   C     C_3   0.123764 0.208509 0.267053 -0.362341
C49   C     C_3   0.019471 0.174458 0.203794 -0.866874
H31   H     H_    0.063466 0.154183 0.146340 0.259314
H32   H     H_    0.944070 0.113780 0.236663 0.259337
H33   H     H_    0.972384 0.231159 0.180778 0.248381
H34   H     H_    0.077043 0.229890 0.322827 0.218546
H35   H     H_    0.195823 0.269903 0.232239 0.217294
H36   H     H_    0.235286 0.110772 0.243480 0.203351
H37   H     H_    0.115307 0.071069 0.332857 0.209639
C50   C     C_R   0.910560 0.603810 0.343477 0.113410
C51   C     C_R   0.919857 0.546789 0.279335 -0.146685
C52   C     C_R   0.874859 0.565239 0.196028 -0.148075
C53   C     C_R   0.822372 0.641606 0.174943 -0.102149
C54   C     C_R   0.814567 0.699632 0.237205 -0.138988
C55   C     C_R   0.857305 0.680624 0.321028 -0.151306
H38   H     H_    0.964941 0.489540 0.292209 0.123546
H39   H     H_    0.882242 0.520882 0.147388 0.133533
H40   H     H_    0.787953 0.655945 0.110327 0.136485
H41   H     H_    0.774460 0.759131 0.220720 0.135434
H42   H     H_    0.849205 0.726380 0.368282 0.129740

loop_
_geom_bond_atom_site_label_1
_geom_bond_atom_site_label_2
_ccdc_geom_bond_type
N2    Zn1   S    
C24   H6    S    
O5    Zn1   S    
C43   H26   S    
C19   C20   A    
C16   H5    S    
C7    H9    S    
C42   H12   S    
O1    Zn1   S    
C7    C8    A    
C45   C46   S    
C7    C11   A    
C51   H38   S    
C52   C53   A    
C23   O5    A    
C30   C35   A    
C1    C5    S    
C26   H21   S    
C36   C37   A    
C19   C21   A    
C42   C46   S    
C55   H42   S    
O8    Zn2   S    
C15   C16   A    
C6    C22   A    
C29   C33   A    
C18   C19   A    
C34   O8    A    
C3    H28   S    
C20   C24   A    
C27   H22   S    
C31   C32   A    
N1    Zn2   S    
C33   H16   S    
C54   H41   S    
C9    C10   A    
C21   H15   S    
C49   H31   S    
C2    C34   S    
C50   C55   A    
C35   H25   S    
C43   H23   S    
C21   C22   A    
C8    H10   S    
C53   C54   A    
C3    H4    S    
C44   C46   S    
C22   H7    S    
C4    C45   S    
O7    Zn1   S    
C25   C29   A    
C3    C44   S    
C26   N1    A    
C23   O6    A    
C14   C20   A    
C48   H34   S    
C38   C41   A    
C12   C46   S    
C45   C50   S    
C41   N2    A    
C36   H19   S    
C32   H24   S    
C25   C26   A    
C44   H3    S    
C47   H36   S    
C34   O7    A    
C2    C4    S    
C5    C9    A    
C37   C38   A    
C49   H32   S    
C11   C16   A    
C50   C51   A    
C2    C43   S    
C6    C24   A    
C17   C18   A    
C12   O4    A    
C53   H40   S    
O3    Zn1   S    
C1    O1    A    
C40   N2    A    
C42   C43   S    
C41   H17   S    
C39   C40   A    
C4    H2    S    
C52   H39   S    
C28   C29   A    
C15   H13   S    
C25   H20   S    
O6    Zn2   S    
C27   N1    A    
C10   C13   A    
C5    C8    A    
C48   H35   S    
C40   H18   S    
C31   C38   A    
C13   C17   A    
C47   H37   S    
C45   H29   S    
C32   C33   A    
C28   C30   A    
C2    C3    S    
C37   C39   A    
C49   H33   S    
C48   C49   S    
C30   C31   A    
O4    Zn2   S    
C6    C23   S    
C51   C52   A    
C12   O3    A    
C9    H11   S    
C42   H1    S    
C44   H27   S    
C4    H30   S    
C10   C11   A    
C18   H8    S    
C17   H14   S    
O2    Zn2   S    
C54   C55   A    
C1    O2    A    
C14   C15   A    
C35   C36   A    
C47   C48   S    
C13   C14   A    
C39   C47   S    
C27   C28   A    
