data_mof_unit_53890.cif
_audit_creation_date              2012-12-10T18:43:06-0500
_audit_creation_method            fapswitch 2.2
_symmetry_space_group_name_H-M    P1
_symmetry_Int_Tables_number       1
_space_group_crystal_system       triclinic
_cell_length_a                    10.749086
_cell_length_b                    9.824061
_cell_length_c                    10.744335
_cell_angle_alpha                 90.02561
_cell_angle_beta                  90.175126
_cell_angle_gamma                 89.524519
_cell_volume                      1134.55383141

loop_
_atom_site_label
_atom_site_type_symbol
_atom_type_description
_atom_site_fract_x
_atom_site_fract_y
_atom_site_fract_z
_atom_type_partial_charge
C1    C     C_R   0.259632 0.500952 0.501487 0.923541
C2    C     C_R   0.739898 0.499694 0.494581 0.908291
C3    C     C_R   0.497395 0.499853 0.262476 0.919514
C4    C     C_R   0.502994 0.499837 0.737514 0.929149
C5    C     C_2   0.497829 0.384958 0.933023 -0.163723
C6    C     C_2   0.504972 0.385002 0.066926 -0.162813
C7    C     C_2   0.515290 0.499545 0.868955 -0.332228
C8    C     C_2   0.486142 0.499723 0.130975 -0.334194
C9    C     C_R   0.064282 0.380137 0.511489 -0.265428
C10   C     C_R   0.937037 0.378935 0.508029 -0.252967
C11   C     C_R   0.872102 0.500095 0.485813 -0.211596
C12   C     C_R   0.126770 0.503615 0.499626 -0.202115
C13   C     C_R   0.934722 0.622599 0.461704 0.376504
C14   C     C_R   0.061336 0.627298 0.482779 0.372372
C15   C     C_R   0.561853 0.071478 0.590395 -0.077697
C16   C     C_R   0.438751 0.072516 0.409171 -0.092387
C17   C     C_R   0.561877 0.927492 0.590381 -0.062102
C18   C     C_R   0.439186 0.928513 0.408857 -0.088690
H1    H     H_    0.478901 0.288655 0.887159 0.168807
H2    H     H_    0.524477 0.288566 0.112844 0.169322
H3    H     H_    0.541980 0.594931 0.911744 0.145120
H4    H     H_    0.459028 0.595381 0.088142 0.147039
H5    H     H_    0.113311 0.284724 0.526417 0.198186
H6    H     H_    0.889870 0.283470 0.523974 0.192321
H7    H     H_    0.611356 0.125679 0.662582 0.125715
H8    H     H_    0.389251 0.127536 0.336983 0.132205
H9    H     H_    0.611385 0.872462 0.662557 0.131690
H10   H     H_    0.389765 0.874314 0.336621 0.146997
N1    N     N_R   0.500000 0.857200 0.500000 -0.085822
N2    N     N_R   0.500000 0.142810 0.500000 -0.077796
O1    O     O_R   0.316770 0.614620 0.499990 -0.572467
O2    O     O_R   0.683230 0.614620 0.500010 -0.581915
O3    O     O_R   0.316800 0.385290 0.500000 -0.633616
O4    O     O_R   0.683200 0.385290 0.500000 -0.628876
O5    O     O_R   0.500000 0.614630 0.319080 -0.637614
O6    O     O_R   0.500000 0.614630 0.680920 -0.634494
O7    O     O_R   0.500030 0.385300 0.319080 -0.620958
O8    O     O_R   0.499970 0.385300 0.680920 -0.623807
Zn1   Zn    Zn3+2 0.500000 0.653120 0.500000 0.958825
Zn2   Zn    Zn3+2 0.500000 0.346880 0.500000 0.936104
O9    O     O_3   0.872861 0.741303 0.427455 -0.634582
C19   C     C_3   0.843921 0.737499 0.298797 0.138711
H11   H     H_    0.759192 0.801174 0.284254 0.171744
H12   H     H_    0.820514 0.633495 0.264413 0.102930
C20   C     C_3   0.950218 0.797435 0.222083 -0.340162
H13   H     H_    0.972882 0.900507 0.257891 0.240946
H14   H     H_    0.034351 0.731698 0.231121 0.230045
C21   C     C_3   0.915062 0.807870 0.084670 -0.994742
H15   H     H_    0.893519 0.705532 0.046641 0.267430
H16   H     H_    0.994041 0.850786 0.031552 0.268954
H17   H     H_    0.832785 0.875784 0.072470 0.264954
O10   O     O_3   0.121256 0.751700 0.479488 -0.625101
C22   C     C_3   0.097100 0.821752 0.592195 0.125638
H18   H     H_    0.120434 0.756878 0.674419 0.114119
H19   H     H_    0.997495 0.852963 0.597337 0.178112
C23   C     C_3   0.176819 0.949571 0.598209 -0.316397
H20   H     H_    0.275886 0.918880 0.607468 0.237364
H21   H     H_    0.164842 0.009399 0.511116 0.224007
C24   C     C_3   0.142112 0.038989 0.709174 -0.999189
H22   H     H_    0.044349 0.075396 0.700414 0.265736
H23   H     H_    0.204146 0.128794 0.712268 0.275350
H24   H     H_    0.153184 0.981154 0.797399 0.265736

loop_
_geom_bond_atom_site_label_1
_geom_bond_atom_site_label_2
_ccdc_geom_bond_type
O5    Zn1   S    
C4    O6    A    
C18   H10   S    
C15   C17   A    
C5    H1    S    
C23   H21   S    
C17   N1    A    
O9    C19   S    
C22   H19   S    
C8    H4    S    
C23   C24   S    
C3    O5    A    
C16   C18   A    
C2    O4    A    
C13   O9    S    
C1    O3    A    
C24   H22   S    
C18   N1    A    
C7    H3    S    
C22   H18   S    
C23   H20   S    
O8    Zn2   S    
C11   C13   A    
N1    Zn1   S    
C1    C12   S    
C19   H12   S    
C4    C7    S    
O4    Zn2   S    
C2    C11   S    
C21   H16   S    
C21   H15   S    
C12   C14   A    
O7    Zn2   S    
C20   H14   S    
C16   H8    S    
C5    C6    S    
C24   H24   S    
C9    C12   A    
C24   H23   S    
O3    Zn2   S    
C15   H7    S    
C10   C11   A    
N2    Zn2   S    
C17   H9    S    
C20   H13   S    
C1    O1    A    
C6    H2    S    
O10   C22   S    
C3    O7    A    
C15   N2    A    
C2    O2    A    
C3    C8    S    
C9    C10   A    
C22   C23   S    
C5    C7    D    
C9    H5    S    
C4    O8    A    
C6    C8    D    
O2    Zn1   S    
C10   H6    S    
C13   C14   A    
C16   N2    A    
O6    Zn1   S    
C21   H17   S    
C14   O10   S    
C19   H11   S    
O1    Zn1   S    
C20   C21   S    
C19   C20   S    
