data_mof_unit_26669.cif
_audit_creation_date              2013-03-05T16:19:42-0500
_audit_creation_method            fapswitch 2.2
_symmetry_space_group_name_H-M    P1
_symmetry_Int_Tables_number       1
_space_group_crystal_system       triclinic
_cell_length_a                    11.092561
_cell_length_b                    10.135358
_cell_length_c                    27.39053
_cell_angle_alpha                 88.803469
_cell_angle_beta                  89.664517
_cell_angle_gamma                 90.000519
_cell_volume                      3078.71294625

loop_
_atom_site_label
_atom_site_type_symbol
_atom_site_description
_atom_site_fract_x
_atom_site_fract_y
_atom_site_fract_z
_atom_type_partial_charge
O1    O     O_R   0.314910 0.616040 0.499990 -0.538363
O2    O     O_R   0.314910 0.383960 0.499990 -0.554921
C1    C     C_R   0.258021 0.500353 0.498646 1.001728
O3    O     O_R   0.500140 0.616020 0.428740 -0.590479
O4    O     O_R   0.500140 0.383980 0.428740 -0.554539
C2    C     C_R   0.499393 0.501613 0.406314 0.946622
Zn1   Zn    Zn3+2 0.500150 0.654960 0.499980 1.029352
Zn2   Zn    Zn3+2 0.500150 0.345040 0.499980 1.061183
O5    O     O_R   0.685320 0.616040 0.499970 -0.680461
O6    O     O_R   0.685320 0.383960 0.499970 -0.655361
O7    O     O_R   0.500090 0.616050 0.571230 -0.623344
O8    O     O_R   0.500090 0.383950 0.571230 -0.559888
C3    C     C_R   0.741081 0.499397 0.501523 0.858013
C4    C     C_R   0.502134 0.498681 0.593552 0.976940
C5    C     C_R   0.357974 0.403209 0.178880 0.699069
O9    O     O_2   0.325093 0.295389 0.205371 -0.465262
N1    N     N_R   0.400428 0.511182 0.202461 -0.331079
C6    C     C_R   0.434085 0.623680 0.177766 0.579108
C7    C     C_R   0.541306 0.462842 0.269468 -0.087760
C8    C     C_R   0.569607 0.468303 0.319586 -0.096734
C9    C     C_R   0.368676 0.550056 0.336672 -0.191807
C10   C     C_R   0.338178 0.546610 0.287484 -0.027766
C11   C     C_R   0.424493 0.501545 0.253684 0.269407
C12   C     C_R   0.414630 0.508085 0.102040 -0.054035
C13   C     C_R   0.358252 0.401687 0.127369 -0.040958
C14   C     C_R   0.311946 0.296051 0.100143 -0.024516
C15   C     C_R   0.442887 0.623931 0.126979 -0.029216
C16   C     C_R   0.480627 0.506673 0.353271 -0.011615
H1    H     H_    0.304573 0.587108 0.362645 0.231908
C17   C     C_R   0.507796 0.494551 0.646771 -0.029894
C18   C     C_R   0.461038 0.364285 0.978851 0.067741
C19   C     C_R   0.541694 0.591494 0.978262 -0.057827
C20   C     C_R   0.509339 0.475198 0.953283 0.034381
C21   C     C_R   0.459017 0.240740 0.954822 -0.121023
C22   C     C_R   0.464316 0.238706 0.903228 -0.092359
C23   C     C_R   0.488066 0.357783 0.876688 -0.024105
C24   C     C_R   0.524378 0.470329 0.902203 -0.063702
C25   C     C_R   0.572738 0.579736 0.876415 -0.082117
C26   C     C_R   0.575920 0.579243 0.825427 0.550917
N2    N     N_R   0.524733 0.477538 0.800977 -0.360249
C27   C     C_R   0.478922 0.369227 0.825409 0.554356
C28   C     C_R   0.569412 0.382190 0.721287 -0.055569
C29   C     C_R   0.561912 0.386409 0.670713 -0.152330
C30   C     C_R   0.459901 0.597904 0.674026 -0.124788
C31   C     C_R   0.464236 0.591709 0.724797 -0.079157
C32   C     C_R   0.519605 0.484057 0.748670 0.257171
O10   O     O_2   0.420038 0.276309 0.800255 -0.507157
C33   C     C_R   0.420304 0.379985 0.027593 0.095104
C34   C     C_R   0.445745 0.497879 0.052096 0.081621
C35   C     C_R   0.502295 0.605662 0.027278 0.053541
C36   C     C_R   0.343358 0.287105 0.050872 -0.208652
H2    H     H_    0.599834 0.305883 0.650389 0.214059
H3    H     H_    0.613463 0.299281 0.739277 0.186971
H4    H     H_    0.302708 0.208985 0.030262 0.124172
O11   O     O_2   0.464917 0.732178 0.202592 -0.523685
C37   C     C_R   0.482723 0.735409 0.100805 -0.098577
H5    H     H_    0.496113 0.828776 0.118564 0.210956
C38   C     C_R   0.613033 0.688026 0.952766 0.247993
C39   C     C_R   0.621214 0.684795 0.901984 -0.168948
O12   O     O_2   0.628535 0.680185 0.800393 -0.506852
C40   C     C_R   0.507534 0.727562 0.051257 -0.127457
H6    H     H_    0.417221 0.681895 0.656182 0.206718
H7    H     H_    0.670245 0.762441 0.882664 0.239560
H8    H     H_    0.424412 0.670420 0.745617 0.172719
H9    H     H_    0.529847 0.818753 0.032356 0.195643
C41   C     C_3   0.069043 0.576870 0.545045 -0.295477
C42   C     C_3   0.065843 0.355403 0.502390 -0.238865
H10   H     H_    0.076891 0.682829 0.536125 0.241678
H11   H     H_    0.110355 0.301260 0.473525 0.238835
C43   C     C_3   0.932745 0.542994 0.551772 -0.284114
C44   C     C_3   0.928212 0.356363 0.492168 -0.257321
H12   H     H_    0.923285 0.458332 0.578166 0.196818
H13   H     H_    0.881976 0.286866 0.517647 0.200747
H14   H     H_    0.900991 0.690369 0.470737 0.245919
H15   H     H_    0.871569 0.576492 0.426586 0.238408
C45   C     C_3   0.062313 0.569851 0.450502 0.472602
C46   C     C_3   0.119514 0.501367 0.499570 -0.199998
C47   C     C_3   0.877520 0.497684 0.501595 -0.107156
C48   C     C_3   0.923770 0.588775 0.460080 -0.468632
C49   C     C_3   0.373158 0.080243 0.506050 0.100119
C50   C     C_3   0.371902 0.918987 0.495938 0.107186
H16   H     H_    0.483662 0.089555 0.423269 0.210185
H17   H     H_    0.534791 0.884014 0.422270 0.169418
C51   C     C_3   0.550372 0.077467 0.452872 -0.234625
C52   C     C_3   0.569818 0.921472 0.456988 -0.228694
C53   C     C_3   0.568388 0.080286 0.541373 -0.154398
C54   C     C_3   0.551936 0.923390 0.544946 -0.190673
N3    N     N_3   0.499750 0.138610 0.498940 -0.161143
N4    N     N_3   0.499750 0.861390 0.498940 -0.146439
H18   H     H_    0.529040 0.118313 0.575664 0.222482
H19   H     H_    0.487741 0.907819 0.575019 0.215265
C55   C     C_2   0.637056 0.426586 0.233551 0.453121
H20   H     H_    0.731229 0.444623 0.241433 0.094289
O13   O     O_2   0.612850 0.373971 0.195173 -0.531331
N5    N     N_R   0.690388 0.778296 0.977550 0.199877
O14   O     O_R   0.710883 0.895560 0.959052 -0.351176
O15   O     O_R   0.754615 0.736734 0.014402 -0.326084
C56   C     C_2   0.134272 0.564875 0.593695 0.447709
H21   H     H_    0.094647 0.610591 0.625466 0.135643
O16   O     O_2   0.230895 0.508858 0.598324 -0.569954
C57   C     C_2   0.084995 0.275556 0.549186 0.508170
H22   H     H_    0.108460 0.319830 0.583088 0.153767
O17   O     O_2   0.063455 0.157361 0.550205 -0.484550
C58   C     C_2   0.216081 0.593283 0.273142 0.561868
H23   H     H_    0.156616 0.634672 0.300391 0.147953
O18   O     O_2   0.179369 0.585665 0.231382 -0.536489
C59   C     C_2   0.872761 0.657570 0.575219 0.397668
H24   H     H_    0.877510 0.754203 0.557572 0.159785
O19   O     O_2   0.824978 0.644215 0.615329 -0.531440
C60   C     C_2   0.902136 0.305521 0.441657 0.480948
H25   H     H_    0.836766 0.354448 0.418553 0.134569
O20   O     O_2   0.949485 0.204478 0.427264 -0.488574
N6    N     N_R   0.109306 0.701678 0.436868 0.203686
O21   O     O_R   0.077619 0.803052 0.462118 -0.382037
O22   O     O_R   0.137344 0.725790 0.391317 -0.355203
N7    N     N_R   0.081045 0.483966 0.407809 0.183414
O23   O     O_R   0.014227 0.498953 0.369125 -0.349033
O24   O     O_R   0.181445 0.419460 0.402934 -0.397530
C61   C     C_2   0.283543 0.141708 0.470942 0.362548
H26   H     H_    0.190121 0.113199 0.475375 0.142703
O25   O     O_2   0.312632 0.208455 0.435227 -0.501786
C62   C     C_2   0.317930 0.886747 0.445665 0.428529
H27   H     H_    0.245649 0.942814 0.429096 0.147679
O26   O     O_2   0.348496 0.789994 0.423495 -0.524527
N8    N     N_R   0.327418 0.113435 0.556528 0.208998
O27   O     O_R   0.317016 0.028315 0.592480 -0.320539
O28   O     O_R   0.322532 0.234910 0.569658 -0.348823
N9    N     N_R   0.287594 0.855600 0.531458 0.246808
O29   O     O_R   0.323923 0.777765 0.566670 -0.349037
O30   O     O_R   0.177670 0.899819 0.534344 -0.323184
C63   C     C_2   0.696132 0.130873 0.546473 0.510531
H28   H     H_    0.770058 0.090587 0.526283 0.137738
O31   O     O_2   0.720200 0.211492 0.577515 -0.577078
C64   C     C_2   0.654427 0.853011 0.568645 0.467201
H29   H     H_    0.669369 0.753334 0.560953 0.155199
O32   O     O_2   0.709179 0.901347 0.602487 -0.511943
C65   C     C_2   0.657768 0.147186 0.432161 0.544542
H30   H     H_    0.738717 0.148227 0.452551 0.076037
O33   O     O_2   0.656969 0.193516 0.390687 -0.587588
C66   C     C_2   0.697457 0.868707 0.452758 0.450600
H31   H     H_    0.716733 0.793095 0.426262 0.130109
O34   O     O_2   0.779544 0.906495 0.478187 -0.610383
C67   C     C_2   0.224757 0.197311 0.119797 0.553142
H32   H     H_    0.225179 0.097787 0.105874 0.053587
O35   O     O_2   0.146620 0.228098 0.149006 -0.465565
C68   C     C_2   0.459228 0.109618 0.878437 0.546589
H33   H     H_    0.389665 0.038462 0.888246 0.025172
O36   O     O_2   0.535689 0.079950 0.848331 -0.488071
C69   C     C_2   0.474231 0.113878 0.982890 0.443724
H34   H     H_    0.436274 0.022650 0.969873 0.022856
O37   O     O_2   0.533579 0.109624 0.020317 -0.503775
C70   C     C_2   0.694523 0.446620 0.335890 0.432832
H35   H     H_    0.747512 0.365111 0.322285 0.134211
O38   O     O_2   0.741269 0.525443 0.362793 -0.604634

loop_
_geom_bond_atom_site_label_1
_geom_bond_atom_site_label_2
_geom_bond_distance
_ccdc_geom_bond_type
C41   H10   1.099726 S    
C57   H22   1.073153 S    
C54   H19   1.094614 S    
C43   C47   1.584724 S    
N5    O14   1.301717 A    
C42   C46   1.594901 S    
C45   C48   1.569951 S    
C19   C38   1.426923 A    
N9    O29   1.299135 A    
C58   O18   1.220373 D    
C41   C43   1.559401 S    
C31   C32   1.403633 A    
N7    O23   1.302930 A    
Zn1   O7    1.982933 S    
C65   O33   1.220214 D    
N1    C11   1.431059 S    
C23   C24   1.410115 A    
C66   O34   1.216340 D    
N6    O21   1.297840 A    
O1    C1    1.332836 A    
C43   C59   1.493274 S    
C69   O37   1.221572 D    
C28   H3    1.083145 S    
O4    C2    1.329783 A    
O7    C4    1.326352 A    
C53   N3    1.503870 S    
C29   H2    1.081307 S    
C5    C13   1.411314 A    
C49   N8    1.514400 S    
C5    O9    1.348142 S    
Zn1   N4    2.091847 S    
C44   C60   1.515845 S    
C67   O35   1.221054 D    
C10   C58   1.486909 S    
C37   H5    1.083625 S    
C5    N1    1.367345 A    
C21   C22   1.414640 A    
C28   C32   1.400460 A    
C67   H32   1.085830 S    
O5    C3    1.334257 A    
C60   H25   1.079105 S    
H16   C51   1.105872 S    
C7    C55   1.494587 S    
C51   C52   1.597450 S    
C33   C36   1.410601 A    
C2    C16   1.468752 S    
C7    C8    1.412206 A    
C59   H24   1.084257 S    
C18   C20   1.415605 A    
C50   N4    1.535605 S    
C49   C61   1.512344 S    
C57   O17   1.221256 D    
O1    Zn1   2.092301 S    
C9    C10   1.392178 A    
C59   O19   1.221962 D    
C54   C64   1.487287 S    
C17   C30   1.401740 A    
C23   C27   1.411169 A    
C4    C17   1.459163 S    
O3    Zn1   1.998877 S    
C58   H23   1.084173 S    
C21   C69   1.494330 S    
C45   N6    1.474205 S    
C68   O36   1.221461 D    
C61   O25   1.219607 D    
C66   H31   1.086795 S    
C12   C13   1.413861 A    
O3    C2    1.323533 A    
C53   H18   1.109779 S    
C26   N2    1.366291 A    
C44   H13   1.105214 S    
C52   N4    1.501869 S    
C15   C37   1.395816 A    
C64   O32   1.222162 D    
C8    C16   1.407504 A    
C30   H6    1.083069 S    
C13   C14   1.415648 A    
C9    H1    1.076105 S    
C20   C24   1.409936 A    
C8    C70   1.473392 S    
C42   H11   1.087924 S    
C22   C23   1.419699 A    
C7    C11   1.421003 A    
C38   N5    1.437684 S    
C24   C25   1.406809 A    
Zn2   O8    1.999077 S    
C12   C15   1.406930 A    
C55   O13   1.219935 D    
N1    C6    1.364478 A    
C27   O10   1.349297 S    
C18   C21   1.426971 A    
C45   C46   1.631489 S    
C52   C66   1.518127 S    
C19   C35   1.419611 A    
C6    O11   1.350034 S    
N2    C27   1.369843 A    
H17   C52   1.104004 S    
C9    C16   1.392992 A    
O8    C4    1.325283 A    
C51   C65   1.488513 S    
C56   H21   1.085133 S    
C56   O16   1.218916 D    
C18   C33   1.419039 A    
C54   N4    1.536061 S    
C50   N9    1.482269 S    
N8    O27   1.300195 A    
C17   C29   1.402255 A    
C28   C29   1.388010 A    
N2    C32   1.434314 S    
C62   O26   1.211522 D    
C14   C67   1.482588 S    
C1    C46   1.536498 S    
C30   C31   1.391880 A    
C42   C57   1.517498 S    
C68   H33   1.084983 S    
C12   C34   1.414778 A    
Zn1   O5    2.091548 S    
C41   C46   1.575491 S    
C3    C47   1.513573 S    
C33   C34   1.411946 A    
C53   C54   1.601530 S    
C10   C11   1.410584 A    
O2    Zn2   2.092310 S    
C6    C15   1.393881 A    
C51   N3    1.521806 S    
C70   O38   1.216216 D    
C49   C50   1.663463 S    
C63   O31   1.222094 D    
O6    C3    1.325016 A    
N9    O30   1.301633 A    
O4    Zn2   1.982721 S    
C61   H26   1.081286 S    
N5    O15   1.301751 A    
C64   H29   1.049274 S    
C65   H30   1.060397 S    
C31   H8    1.082961 S    
C39   H7    1.083696 S    
C50   C62   1.545881 S    
H14   C48   1.105000 S    
C36   H4    1.081925 S    
C19   C20   1.422264 A    
C41   C56   1.522675 S    
O2    C1    1.337796 A    
C38   C39   1.394431 A    
C49   N3    1.533527 S    
C14   C36   1.396620 A    
C47   C48   1.535539 S    
C25   C26   1.396941 A    
C26   O12   1.350374 S    
C55   H20   1.084223 S    
C45   N7    1.485940 S    
N7    O24   1.299047 A    
C42   C44   1.553747 S    
C53   C63   1.515127 S    
C60   O20   1.222506 D    
C25   C39   1.396065 A    
C40   H9    1.077981 S    
C70   H35   1.084961 S    
Zn2   O6    2.091539 S    
C34   C35   1.418788 A    
N8    O28   1.290878 A    
C35   C40   1.412652 A    
C37   C40   1.387078 A    
C43   H12   1.114972 S    
Zn2   N3    2.093037 S    
C62   H27   1.079457 S    
C69   H34   1.083911 S    
H15   C48   1.097018 S    
C22   C68   1.487816 S    
C44   C47   1.564676 S    
C63   H28   1.071962 S    
N6    O22   1.302237 A    
