data_mof_unit_32136.cif
_audit_creation_date              2013-03-05T15:50:18-0500
_audit_creation_method            fapswitch 2.2
_symmetry_space_group_name_H-M    P1
_symmetry_Int_Tables_number       1
_space_group_crystal_system       triclinic
_cell_length_a                    18.359504
_cell_length_b                    25.812314
_cell_length_c                    18.39677
_cell_angle_alpha                 89.61997
_cell_angle_beta                  90.138672
_cell_angle_gamma                 89.714427
_cell_volume                      8717.92659129

loop_
_atom_site_label
_atom_site_type_symbol
_atom_site_description
_atom_site_fract_x
_atom_site_fract_y
_atom_site_fract_z
_atom_type_partial_charge
Zn1   Zn    Zn3+2 0.249990 0.293780 0.913250 1.025476
Zn2   Zn    Zn3+2 0.249990 0.706220 0.086750 0.977068
Zn3   Zn    Zn3+2 0.249990 0.706220 0.913250 1.027517
Zn4   Zn    Zn3+2 0.249990 0.293780 0.086750 0.986224
Zn5   Zn    Zn3+2 0.749990 0.793780 0.413250 0.980229
Zn6   Zn    Zn3+2 0.749990 0.206220 0.586750 1.019178
Zn7   Zn    Zn3+2 0.749990 0.206220 0.413250 0.996564
Zn8   Zn    Zn3+2 0.749990 0.793780 0.586750 1.020399
Zn9   Zn    Zn3+2 0.336760 0.206240 0.000000 1.062854
Zn10  Zn    Zn3+2 0.336760 0.793760 0.000000 1.051274
Zn11  Zn    Zn3+2 0.836760 0.706240 0.500000 1.042733
Zn12  Zn    Zn3+2 0.836760 0.293760 0.500000 1.053925
Zn13  Zn    Zn3+2 0.163250 0.206230 0.000000 1.027608
Zn14  Zn    Zn3+2 0.163250 0.793770 0.000000 1.000064
Zn15  Zn    Zn3+2 0.663250 0.706230 0.500000 0.990827
Zn16  Zn    Zn3+2 0.663250 0.293770 0.500000 1.026838
O1    O     O_3   0.249990 0.250010 0.000000 -0.511378
O2    O     O_3   0.249990 0.749990 0.000000 -0.498195
O3    O     O_3   0.749990 0.750010 0.500000 -0.501504
O4    O     O_3   0.749990 0.249990 0.500000 -0.509417
O5    O     O_R   0.335430 0.280650 0.146160 -0.637648
O6    O     O_R   0.335430 0.719350 0.853840 -0.630244
O7    O     O_R   0.335430 0.719350 0.146160 -0.640575
O8    O     O_R   0.335430 0.280650 0.853840 -0.647249
O9    O     O_R   0.835430 0.780650 0.646160 -0.629849
O10   O     O_R   0.835430 0.219350 0.353840 -0.640751
O11   O     O_R   0.835430 0.219350 0.646160 -0.643281
O12   O     O_R   0.835430 0.780650 0.353840 -0.641203
O13   O     O_R   0.164550 0.280640 0.853840 -0.642468
O14   O     O_R   0.164550 0.719360 0.146160 -0.638175
O15   O     O_R   0.164550 0.719360 0.853840 -0.623264
O16   O     O_R   0.164550 0.280640 0.146160 -0.631038
O17   O     O_R   0.664550 0.780640 0.353840 -0.636270
O18   O     O_R   0.664550 0.219360 0.646160 -0.646529
O19   O     O_R   0.664550 0.219360 0.353840 -0.622709
O20   O     O_R   0.664550 0.780640 0.646160 -0.622904
O21   O     O_R   0.396160 0.219380 0.914560 -0.608765
O22   O     O_R   0.396160 0.780620 0.085440 -0.635094
O23   O     O_R   0.396160 0.780620 0.914560 -0.626971
O24   O     O_R   0.396160 0.219380 0.085440 -0.622488
O25   O     O_R   0.896160 0.719380 0.414560 -0.642663
O26   O     O_R   0.896160 0.280620 0.585440 -0.595820
O27   O     O_R   0.896160 0.280620 0.414560 -0.631651
O28   O     O_R   0.896160 0.719380 0.585440 -0.635845
O29   O     O_R   0.103840 0.219370 0.085450 -0.644493
O30   O     O_R   0.103840 0.780630 0.914550 -0.652018
O31   O     O_R   0.103840 0.780630 0.085450 -0.645630
O32   O     O_R   0.103840 0.219370 0.914550 -0.598785
O33   O     O_R   0.603840 0.719370 0.585450 -0.652515
O34   O     O_R   0.603840 0.280630 0.414550 -0.649341
O35   O     O_R   0.603840 0.280630 0.585450 -0.611023
O36   O     O_R   0.603840 0.719370 0.414550 -0.639993
O37   O     O_R   0.310730 0.133160 0.000000 -0.604691
O38   O     O_R   0.310730 0.866840 0.000000 -0.578638
O39   O     O_R   0.810730 0.633160 0.500000 -0.580488
O40   O     O_R   0.810730 0.366840 0.500000 -0.596813
O41   O     O_R   0.249970 0.366860 0.060720 -0.644442
O42   O     O_R   0.249970 0.633140 0.939280 -0.642077
O43   O     O_R   0.249970 0.633140 0.060720 -0.651314
O44   O     O_R   0.249970 0.366860 0.939280 -0.628308
O45   O     O_R   0.749970 0.866860 0.560720 -0.655726
O46   O     O_R   0.749970 0.133140 0.439280 -0.629685
O47   O     O_R   0.749970 0.133140 0.560720 -0.643866
O48   O     O_R   0.749970 0.866860 0.439280 -0.636193
O49   O     O_R   0.189290 0.133150 0.000000 -0.611860
O50   O     O_R   0.189290 0.866850 0.000000 -0.661312
O51   O     O_R   0.689290 0.633150 0.500000 -0.668887
O52   O     O_R   0.689290 0.366850 0.500000 -0.625652
C1    C     C_R   0.389274 0.249500 0.140173 0.774396
C2    C     C_R   0.389638 0.751058 0.859815 0.850898
C3    C     C_R   0.389592 0.750280 0.140136 0.773342
C4    C     C_R   0.390585 0.250265 0.860570 0.858257
C5    C     C_R   0.889873 0.748858 0.640061 0.839664
C6    C     C_R   0.889652 0.249942 0.359982 0.769223
C7    C     C_R   0.889697 0.249921 0.640040 0.817368
C8    C     C_R   0.889647 0.749200 0.359630 0.778423
C9    C     C_R   0.109871 0.250582 0.860609 0.822033
C10   C     C_R   0.110350 0.750372 0.140036 0.783066
C11   C     C_R   0.110288 0.751166 0.859972 0.840329
C12   C     C_R   0.110200 0.249933 0.139710 0.766012
C13   C     C_R   0.610389 0.749893 0.360039 0.780188
C14   C     C_R   0.609974 0.249892 0.639681 0.854358
C15   C     C_R   0.610398 0.250318 0.359851 0.777466
C16   C     C_R   0.610438 0.748947 0.640115 0.840414
C17   C     C_R   0.250254 0.109346 0.999077 0.866592
C18   C     C_R   0.249620 0.890560 0.996792 0.881691
C19   C     C_R   0.749997 0.609589 0.504279 0.865954
C20   C     C_R   0.750060 0.390761 0.500305 0.864823
C21   C     C_R   0.249800 0.391201 0.999770 0.899119
C22   C     C_R   0.249728 0.608809 0.000064 0.890891
C23   C     C_R   0.749838 0.891176 0.499761 0.893074
C24   C     C_R   0.749877 0.108783 0.500075 0.898125
C25   C     C_3   0.318674 0.469340 0.039943 0.062977
C26   C     C_3   0.180643 0.530316 0.040098 0.047262
C27   C     C_3   0.318916 0.529907 0.039701 0.037029
C28   C     C_3   0.180484 0.469713 0.039566 0.065864
C29   C     C_3   0.818745 0.969120 0.540073 0.041482
C30   C     C_3   0.680335 0.030285 0.539254 0.068112
C31   C     C_3   0.818502 0.029686 0.540700 0.064100
C32   C     C_3   0.680470 0.969681 0.539281 0.044078
H1    H     H_    0.315727 0.456319 0.097679 0.116525
H2    H     H_    0.183748 0.542729 0.097872 0.115644
H3    H     H_    0.316774 0.542715 0.097338 0.118978
H4    H     H_    0.183080 0.456307 0.097170 0.124134
H5    H     H_    0.816085 0.955660 0.597636 0.113982
H6    H     H_    0.682499 0.042949 0.596954 0.123359
H7    H     H_    0.815192 0.042068 0.598464 0.119099
H8    H     H_    0.683068 0.956516 0.596999 0.116758
H9    H     H_    0.298463 0.456780 0.890695 0.223298
H10   H     H_    0.200116 0.544382 0.890936 0.221449
H11   H     H_    0.297391 0.544405 0.890321 0.217838
H12   H     H_    0.201166 0.456729 0.890190 0.229811
H13   H     H_    0.798581 0.956360 0.390545 0.217943
H14   H     H_    0.702159 0.044649 0.390078 0.230497
H15   H     H_    0.799435 0.043994 0.391307 0.219004
H16   H     H_    0.701290 0.957017 0.390243 0.224790
C33   C     C_3   0.249616 0.470723 0.920572 -0.338411
C34   C     C_3   0.249126 0.530095 0.920752 -0.342643
C35   C     C_3   0.750004 0.970652 0.420546 -0.344928
C36   C     C_3   0.750399 0.030020 0.420792 -0.336277
C37   C     C_3   0.249636 0.448984 0.999567 -0.081261
C38   C     C_3   0.249575 0.551041 0.999931 -0.053418
C39   C     C_3   0.749746 0.948910 0.499533 -0.051643
C40   C     C_3   0.749775 0.050965 0.499972 -0.082262
H17   H     H_    0.894283 0.342888 0.948523 0.169711
H18   H     H_    0.079646 0.925870 0.236622 0.140262
H19   H     H_    0.039626 0.930806 0.790497 0.161956
H20   H     H_    0.129442 0.090973 0.284268 0.134651
H21   H     H_    0.602197 0.579409 0.245353 0.156682
H22   H     H_    0.369954 0.230036 0.526573 0.148535
H23   H     H_    0.400316 0.152155 0.447190 0.168509
H24   H     H_    0.545647 0.569419 0.712390 0.150615
C41   C     C_R   0.136342 0.203108 0.723283 -0.170709
C42   C     C_R   0.040087 0.655895 0.180704 -0.185055
C43   C     C_R   0.040904 0.656494 0.821043 -0.182328
C44   C     C_R   0.996493 0.326665 0.138773 -0.200985
C45   C     C_R   0.526603 0.841691 0.330236 -0.196089
C46   C     C_R   0.649256 0.259501 0.790179 -0.155740
C47   C     C_R   0.636147 0.294749 0.217757 -0.183878
C48   C     C_R   0.539461 0.843653 0.678944 -0.186612
C49   C     C_R   0.148734 0.176351 0.659238 -0.232913
C50   C     C_R   0.019037 0.608317 0.208905 -0.168641
C51   C     C_R   0.020310 0.608689 0.793947 -0.179643
C52   C     C_R   0.938128 0.361101 0.133281 -0.158709
C53   C     C_R   0.491059 0.887802 0.312708 -0.169209
C54   C     C_R   0.671202 0.254777 0.862147 -0.211003
C55   C     C_R   0.647955 0.318466 0.150520 -0.070566
C56   C     C_R   0.516839 0.891410 0.705061 -0.177494
C57   C     C_R   0.441712 0.889781 0.255018 0.348526
C58   C     C_R   0.619875 0.247142 0.916580 0.398404
C59   C     C_R   0.591186 0.324688 0.100565 0.367460
C60   C     C_R   0.476418 0.894266 0.768860 0.328857
C61   C     C_R   0.094576 0.173596 0.606117 0.378998
C62   C     C_R   0.976306 0.606051 0.271241 0.335784
C63   C     C_R   0.982333 0.605755 0.728481 0.340305
C64   C     C_R   0.881204 0.359313 0.183610 0.348627
C65   C     C_R   0.425249 0.844111 0.217735 -0.238208
C66   C     C_R   0.545740 0.248909 0.898350 -0.169045
C67   C     C_R   0.523464 0.302685 0.116539 -0.188392
C68   C     C_R   0.454517 0.848128 0.802860 -0.189435
C69   C     C_R   0.027450 0.198421 0.618107 -0.219825
C70   C     C_R   0.948092 0.652213 0.299846 -0.249133
C71   C     C_R   0.960773 0.651948 0.693701 -0.172469
C72   C     C_R   0.885630 0.324117 0.241992 -0.242989
C73   C     C_R   0.461752 0.796777 0.233815 0.027003
C74   C     C_R   0.521916 0.250415 0.824625 0.011298
C75   C     C_R   0.511762 0.275177 0.182386 0.037681
C76   C     C_R   0.474631 0.798613 0.775817 0.025765
C77   C     C_R   0.013462 0.225283 0.683512 0.012299
C78   C     C_R   0.971713 0.701470 0.274193 0.029698
C79   C     C_R   0.977351 0.701444 0.722636 0.015875
C80   C     C_R   0.943685 0.288019 0.247651 0.038185
C81   C     C_R   0.068335 0.226829 0.737286 0.081338
C82   C     C_R   0.022122 0.702747 0.216436 0.069450
C83   C     C_R   0.023731 0.703193 0.783544 0.067381
C84   C     C_R   0.999025 0.288586 0.194311 0.075286
C85   C     C_R   0.514771 0.796087 0.289503 0.068491
C86   C     C_R   0.575274 0.253294 0.769694 0.092772
C87   C     C_R   0.567661 0.273300 0.235182 0.059421
C88   C     C_R   0.522623 0.796929 0.716190 0.067343
C89   C     C_R   0.446235 0.750361 0.195923 -0.120639
C90   C     C_R   0.446917 0.249023 0.804454 -0.128081
C91   C     C_R   0.445293 0.249784 0.196252 -0.099838
C92   C     C_R   0.448573 0.751126 0.806197 -0.151667
C93   C     C_R   0.945542 0.249610 0.696697 -0.120112
C94   C     C_R   0.947557 0.749066 0.305055 -0.129858
C95   C     C_R   0.949534 0.748895 0.692971 -0.144618
C96   C     C_R   0.944814 0.249388 0.302619 -0.107425
C97   C     C_R   0.486270 0.704304 0.210074 0.062568
C98   C     C_R   0.425904 0.245003 0.730317 0.085947
C99   C     C_R   0.432606 0.224358 0.263296 0.073189
C100  C     C_R   0.477138 0.702970 0.783149 0.056074
C101  C     C_R   0.931168 0.273842 0.764023 0.074302
C102  C     C_R   0.980965 0.796604 0.285447 0.063975
C103  C     C_R   0.976152 0.797150 0.717032 0.058970
C104  C     C_R   0.994588 0.207469 0.298663 0.037335
C105  C     C_R   0.985909 0.274678 0.818174 0.062670
C106  C     C_R   0.034988 0.797136 0.230829 0.074924
C107  C     C_R   0.024511 0.798693 0.776645 0.060100
C108  C     C_R   0.050005 0.208035 0.245326 0.076177
C109  C     C_R   0.541049 0.704243 0.264156 0.074496
C110  C     C_R   0.479977 0.244817 0.675799 0.062051
C111  C     C_R   0.487202 0.224733 0.317648 0.072182
C112  C     C_R   0.526367 0.701471 0.724344 0.072727
C113  C     C_R   0.053980 0.251029 0.804366 -0.130006
C114  C     C_R   0.053885 0.750333 0.195591 -0.137111
C115  C     C_R   0.051036 0.751279 0.806946 -0.151010
C116  C     C_R   0.053577 0.249733 0.195336 -0.114635
C117  C     C_R   0.554245 0.749972 0.304010 -0.130039
C118  C     C_R   0.554095 0.250113 0.695817 -0.131242
C119  C     C_R   0.554093 0.249818 0.303621 -0.115960
C120  C     C_R   0.551605 0.748889 0.693596 -0.150468
C121  C     C_R   0.474832 0.658543 0.169361 -0.137260
C122  C     C_R   0.351994 0.238720 0.709073 -0.095761
C123  C     C_R   0.366583 0.197929 0.277114 -0.143850
C124  C     C_R   0.459457 0.655951 0.819570 -0.122832
C125  C     C_R   0.863252 0.297783 0.778485 -0.125837
C126  C     C_R   0.964702 0.843499 0.322164 -0.125335
C127  C     C_R   0.957453 0.844209 0.680803 -0.121671
C128  C     C_R   0.988933 0.163921 0.345433 -0.100017
C129  C     C_R   0.515833 0.613920 0.182705 -0.093256
C130  C     C_R   0.332311 0.234890 0.636238 -0.132315
C131  C     C_R   0.355240 0.172337 0.343024 -0.100169
C132  C     C_R   0.484005 0.608420 0.794168 -0.099398
C133  C     C_R   0.850462 0.322633 0.844308 -0.101676
C134  C     C_R   0.999267 0.889613 0.303766 -0.102112
C135  C     C_R   0.980092 0.891798 0.707210 -0.111635
C136  C     C_R   0.036229 0.121851 0.338621 -0.011323
C137  C     C_R   0.904406 0.323634 0.897392 -0.066137
C138  C     C_R   0.052102 0.890108 0.250068 -0.148414
C139  C     C_R   0.022628 0.893727 0.769311 -0.104023
C140  C     C_R   0.092221 0.123323 0.288171 -0.154046
C141  C     C_R   0.569781 0.613941 0.235692 -0.134106
C142  C     C_R   0.385406 0.234124 0.583014 -0.116769
C143  C     C_R   0.409048 0.172460 0.396301 -0.106022
C144  C     C_R   0.527556 0.606486 0.732967 -0.143165
C145  C     C_R   0.971508 0.299927 0.884809 -0.135467
C146  C     C_R   0.070722 0.844474 0.214598 -0.144680
C147  C     C_R   0.045111 0.848018 0.803382 -0.070770
C148  C     C_R   0.099853 0.166055 0.242319 -0.154002
C149  C     C_R   0.582875 0.658548 0.275723 -0.149116
C150  C     C_R   0.458443 0.237729 0.602292 -0.130768
C151  C     C_R   0.474307 0.198463 0.384190 -0.140897
C152  C     C_R   0.549219 0.652154 0.698837 -0.077177
H25   H     H_    0.180658 0.204559 0.761853 0.191820
H26   H     H_    0.072465 0.655030 0.131762 0.185372
H27   H     H_    0.069823 0.656230 0.872316 0.180084
H28   H     H_    0.038029 0.328953 0.097243 0.161640
H29   H     H_    0.563904 0.842626 0.375756 0.182281
H30   H     H_    0.691726 0.266957 0.751133 0.182211
H31   H     H_    0.681590 0.292754 0.255245 0.160529
H32   H     H_    0.569824 0.844058 0.628684 0.179905
H33   H     H_    0.200791 0.157299 0.651607 0.193080
H34   H     H_    0.038400 0.573235 0.183231 0.210159
H35   H     H_    0.035882 0.573913 0.823460 0.216692
H36   H     H_    0.936762 0.388397 0.088357 0.210079
H37   H     H_    0.503486 0.922324 0.343374 0.221805
H38   H     H_    0.728690 0.255854 0.875019 0.182008
H39   H     H_    0.701778 0.331875 0.137029 0.230021
H40   H     H_    0.532609 0.926236 0.676110 0.213784
H41   H     H_    0.383640 0.846506 0.176262 0.172725
H42   H     H_    0.508417 0.248710 0.943283 0.187217
H43   H     H_    0.480418 0.306620 0.076611 0.162655
H44   H     H_    0.423485 0.852531 0.851422 0.242229
H45   H     H_    0.986095 0.196032 0.576294 0.167909
H46   H     H_    0.909255 0.648119 0.343161 0.190849
H47   H     H_    0.933454 0.647763 0.642859 0.243942
H48   H     H_    0.841603 0.323519 0.280961 0.149128
H49   H     H_    0.435158 0.656726 0.125977 0.164797
H50   H     H_    0.308219 0.235615 0.747739 0.163628
H51   H     H_    0.323359 0.196413 0.237084 0.113690
H52   H     H_    0.427781 0.655103 0.868970 0.162612
H53   H     H_    0.819413 0.297511 0.739267 0.170849
H54   H     H_    0.926847 0.845257 0.366905 0.169590
H55   H     H_    0.926585 0.845005 0.630729 0.165509
H56   H     H_    0.947123 0.161310 0.386599 0.165754
H57   H     H_    0.798374 0.341096 0.854193 0.179918
H58   H     H_    0.985907 0.924948 0.332307 0.178732
H59   H     H_    0.964538 0.927258 0.679353 0.181429
H60   H     H_    0.029882 0.088070 0.373152 0.204644
H61   H     H_    0.506278 0.579354 0.151142 0.191455
H62   H     H_    0.275643 0.231647 0.620995 0.151611
H63   H     H_    0.304606 0.152112 0.352630 0.160663
H64   H     H_    0.469063 0.572983 0.822073 0.183420
H65   H     H_    0.011965 0.301972 0.927569 0.128355
H66   H     H_    0.114348 0.846993 0.175512 0.136724
H67   H     H_    0.078518 0.853064 0.850698 0.200910
H68   H     H_    0.144141 0.165217 0.203628 0.115610
H69   H     H_    0.626769 0.656754 0.314951 0.132225
H70   H     H_    0.497133 0.234168 0.558549 0.138275
H71   H     H_    0.514732 0.197098 0.427060 0.131911
H72   H     H_    0.583581 0.647125 0.652297 0.193941
H73   H     H_    0.291450 0.049721 0.745784 0.197058
H74   H     H_    0.283899 0.956202 0.742960 0.197936
H75   H     H_    0.680396 0.544053 0.749788 0.214471
H76   H     H_    0.672116 0.450914 0.745511 0.210728
C153  C     C_R   0.238322 0.052198 0.129529 -0.144485
C154  C     C_R   0.229396 0.944878 0.127265 -0.118776
C155  C     C_R   0.776536 0.556175 0.375420 -0.155050
C156  C     C_R   0.796738 0.449549 0.377872 -0.143134
C157  C     C_R   0.230903 0.024526 0.194282 -0.073001
C158  C     C_R   0.225256 0.971004 0.193071 -0.077092
C159  C     C_R   0.799482 0.530979 0.313179 -0.091601
C160  C     C_R   0.813331 0.478275 0.315709 0.054500
C161  C     C_R   0.239570 0.972150 0.060649 0.098883
C162  C     C_R   0.242402 0.026354 0.061654 0.078729
C163  C     C_R   0.771442 0.474369 0.441721 0.054140
C164  C     C_R   0.765938 0.528467 0.441577 0.099695
C165  C     C_R   0.247988 0.946118 0.993900 -0.121026
C166  C     C_R   0.250620 0.053699 0.995573 -0.117268
C167  C     C_R   0.751407 0.446479 0.504938 -0.116462
C168  C     C_R   0.750408 0.554071 0.506950 -0.095794
C169  C     C_R   0.256701 0.972954 0.926423 -0.076797
C170  C     C_R   0.258798 0.028132 0.927513 -0.069023
C171  C     C_R   0.732937 0.471872 0.571178 -0.066191
C172  C     C_R   0.735155 0.526946 0.572856 -0.060129
C173  C     C_R   0.262075 0.947306 0.857250 0.346235
C174  C     C_R   0.269428 0.055621 0.860143 0.351244
C175  C     C_R   0.713243 0.444517 0.636457 0.364788
C176  C     C_R   0.720973 0.552746 0.640461 0.330118
C177  C     C_R   0.278019 0.975676 0.794633 -0.156890
C178  C     C_R   0.282410 0.028797 0.796198 -0.173789
C179  C     C_R   0.688578 0.471626 0.696883 -0.223233
C180  C     C_R   0.692937 0.524850 0.699135 -0.259063
H77   H     H_    0.241934 0.093913 0.133598 0.095546
H78   H     H_    0.226107 0.903076 0.129718 0.095647
H79   H     H_    0.769006 0.597690 0.371222 0.100352
H80   H     H_    0.805335 0.408133 0.375416 0.136707
H81   H     H_    0.230121 0.044628 0.245633 0.134419
H82   H     H_    0.219130 0.949513 0.243401 0.138825
H83   H     H_    0.809992 0.552837 0.263904 0.148867
H84   H     H_    0.837763 0.460053 0.269336 0.203371
Br1   Br    Br    0.408390 0.436789 0.003701 -0.389355
Br2   Br    Br    0.090794 0.563300 0.003617 -0.505348
Br3   Br    Br    0.408329 0.561813 0.001721 -0.527590
Br4   Br    Br    0.090755 0.438136 0.001982 -0.471784
Br5   Br    Br    0.908552 0.937017 0.502882 -0.533938
Br6   Br    Br    0.590959 0.062995 0.501054 -0.440441
Br7   Br    Br    0.908359 0.061989 0.505003 -0.450229
Br8   Br    Br    0.590895 0.937822 0.501904 -0.514378
N1    N     N_R   0.244365 0.893942 0.845991 0.162697
O53   O     O_R   0.293664 0.858727 0.857827 -0.434563
O54   O     O_R   0.194198 0.883575 0.798462 -0.445195
N2    N     N_R   0.262260 0.110574 0.853055 0.166332
O55   O     O_R   0.197197 0.130624 0.850859 -0.439281
O56   O     O_R   0.316531 0.137328 0.827725 -0.423157
N3    N     N_R   0.724128 0.389981 0.646272 0.176065
O57   O     O_R   0.671558 0.362031 0.672606 -0.439335
O58   O     O_R   0.790394 0.372106 0.649929 -0.415919
N4    N     N_R   0.744178 0.604743 0.654775 0.179786
O59   O     O_R   0.811900 0.616197 0.643792 -0.392540
O60   O     O_R   0.707670 0.633526 0.699681 -0.446808
N5    N     N_R   0.409501 0.938247 0.233052 0.202997
O61   O     O_R   0.407345 0.977179 0.277608 -0.369702
O62   O     O_R   0.389461 0.945456 0.165858 -0.378998
N6    N     N_R   0.642791 0.236634 0.990039 0.201560
O63   O     O_R   0.709612 0.245337 0.010186 -0.385085
O64   O     O_R   0.599209 0.213185 0.035058 -0.386142
N7    N     N_R   0.602899 0.351941 0.033007 0.219195
O65   O     O_R   0.550597 0.356931 0.985582 -0.374450
O66   O     O_R   0.666084 0.372033 0.018212 -0.329471
N8    N     N_R   0.457766 0.943825 0.799341 0.207315
O67   O     O_R   0.434727 0.947198 0.866007 -0.369429
O68   O     O_R   0.467271 0.986266 0.762026 -0.365557
N9    N     N_R   0.107409 0.145310 0.540378 0.218972
O69   O     O_R   0.172115 0.127844 0.524820 -0.397120
O70   O     O_R   0.053847 0.135453 0.496475 -0.399635
N10   N     N_R   0.963930 0.557286 0.307181 0.194537
O71   O     O_R   0.977763 0.513902 0.274154 -0.394892
O72   O     O_R   0.948183 0.556038 0.376121 -0.356319
N11   N     N_R   0.965532 0.556076 0.697457 0.228314
O73   O     O_R   0.977177 0.513595 0.734290 -0.345408
O74   O     O_R   0.940854 0.552659 0.631285 -0.320175
N12   N     N_R   0.817977 0.391871 0.174191 0.175108
O75   O     O_R   0.813168 0.423822 0.119332 -0.347446
O76   O     O_R   0.764213 0.389551 0.220080 -0.484034

loop_
_geom_bond_atom_site_label_1
_geom_bond_atom_site_label_2
_geom_bond_distance
_ccdc_geom_bond_type
C170  C174  1.438223 A    
C65   H41   1.079645 S    
C29   Br5   1.967917 S    
C106  C114  1.416828 A    
C13   C117  1.455931 S    
C83   C115  1.410505 A    
H10   C34   1.112709 S    
C64   N12   1.439136 S    
C157  C158  1.386250 A    
O26   C7    1.281366 A    
C162  C166  1.410470 A    
H11   C34   1.112653 S    
C25   C37   1.562570 S    
C78   C82   1.411091 A    
O30   C11   1.269006 A    
C134  H58   1.082794 S    
Zn12  O26   1.938014 S    
C122  C130  1.391231 A    
C104  C128  1.415429 A    
C54   C58   1.390482 A    
C105  C145  1.416997 A    
C63   N11   1.441541 S    
C42   C82   1.418123 A    
C29   H5    1.113565 S    
C108  C116  1.412934 A    
C99   C111  1.414210 A    
C56   H40   1.082838 S    
O11   C7    1.278755 A    
N10   O71   1.301775 A    
N5    O62   1.300818 A    
O34   C15   1.284276 A    
C151  H71   1.081963 S    
C175  C179  1.392857 A    
C53   H37   1.082785 S    
C179  C180  1.377435 A    
Zn1   O44   1.949272 S    
C25   H1    1.113453 S    
C165  C169  1.427262 A    
Zn2   O43   1.949275 S    
H23   C143  1.082549 S    
C76   C88   1.409424 A    
C59   N7    1.441176 S    
Zn5   O48   1.949272 S    
C61   C69   1.404778 A    
Zn6   O47   1.949275 S    
C124  C132  1.389192 A    
Zn7   O46   1.943118 S    
C9    C113  1.455409 S    
O16   C12   1.283185 A    
C72   H48   1.081824 S    
C159  C160  1.383170 A    
Zn16  O4    1.948118 S    
H73   C178  1.083698 S    
C112  C120  1.424966 A    
C127  H55   1.080429 S    
C100  C112  1.411983 A    
C26   C28   1.564416 S    
H24   C144  1.082264 S    
C143  C151  1.393891 A    
Zn4   O16   1.943936 S    
C26   C38   1.562020 S    
C27   C38   1.561037 S    
C28   H4    1.113436 S    
C58   N6    1.438098 S    
C137  C145  1.393389 A    
C158  H82   1.082584 S    
Zn6   O4    1.949229 S    
C166  C170  1.427120 A    
C147  H67   1.072637 S    
C130  C142  1.383504 A    
C148  H68   1.082150 S    
C171  C175  1.436986 A    
C17   C166  1.438236 S    
C35   C39   1.554282 S    
C30   H6    1.113423 S    
Zn10  O22   1.938014 S    
C84   C116  1.413816 A    
N9    O69   1.301718 A    
O25   C8    1.271278 A    
Zn13  O29   1.946182 S    
C30   Br6   1.967744 S    
C132  H64   1.082799 S    
Zn10  O2    1.957608 S    
C11   C115  1.459382 S    
C48   C88   1.418930 A    
C67   C75   1.417425 A    
O29   C12   1.281894 A    
C68   C76   1.421974 A    
N4    O59   1.295453 A    
C47   C87   1.413096 A    
C149  H69   1.081084 S    
C26   H2    1.113541 S    
N11   O74   1.301609 A    
C177  C178  1.374430 A    
N7    O65   1.301165 A    
C82   C114  1.413443 A    
O37   C17   1.271917 A    
C90   C98   1.421097 A    
O48   C23   1.281102 A    
C41   C81   1.412882 A    
C42   H26   1.080396 S    
C135  C139  1.383610 A    
C44   C84   1.413572 A    
C167  C171  1.428284 A    
C73   C85   1.411427 A    
C3    C89   1.459334 S    
C74   C90   1.425901 A    
Zn16  O35   1.944441 S    
C103  C127  1.421826 A    
Zn15  O33   1.946182 S    
C101  C125  1.415460 A    
C44   H28   1.082326 S    
Zn7   O10   1.943892 S    
C21   C37   1.491486 S    
C28   C37   1.562882 S    
O33   C16   1.272560 A    
H17   C137  1.082806 S    
C154  C158  1.391726 A    
O40   C20   1.270898 A    
N8    O67   1.301617 A    
C110  C150  1.421238 A    
C86   C118  1.415747 A    
C157  H81   1.080914 S    
C34   C38   1.557118 S    
C88   C120  1.412413 A    
N12   O75   1.301659 A    
C69   H45   1.081777 S    
C66   H42   1.074999 S    
Zn5   O17   1.942195 S    
C25   Br1   1.965330 S    
C43   C51   1.387801 A    
C25   C27   1.563385 S    
C51   H35   1.082828 S    
C111  C119  1.414676 A    
C121  C129  1.392956 A    
C109  C117  1.415281 A    
C27   H3    1.113503 S    
C103  C107  1.410253 A    
N1    O54   1.298512 A    
C32   H8    1.113562 S    
Zn8   O3    1.961462 S    
C43   H27   1.081266 S    
C65   C73   1.419690 A    
O38   C18   1.276506 A    
C98   C110  1.412908 A    
C63   C71   1.404166 A    
C134  C138  1.386224 A    
C174  N2    1.428975 S    
O5    C1    1.276569 A    
C59   C67   1.400502 A    
O32   C9    1.279413 A    
C52   C64   1.398657 A    
C55   C59   1.395852 A    
C173  C177  1.393378 A    
C51   C63   1.392864 A    
C61   N9    1.436177 S    
Zn15  O51   1.943692 S    
N6    O64   1.301511 A    
Zn11  O28   1.943558 S    
C50   C62   1.392107 A    
C97   C121  1.419063 A    
C142  C150  1.389920 A    
C156  C163  1.419684 A    
C2    C92   1.465911 S    
C12   C116  1.460497 S    
C1    C91   1.455052 S    
C161  C162  1.400598 A    
C54   H38   1.081672 S    
O8    C4    1.282982 A    
C153  H77   1.082216 S    
Zn9   O1    1.948421 S    
C72   C80   1.415407 A    
C129  C141  1.388014 A    
C94   C102  1.419387 A    
C56   C60   1.392306 A    
C46   H30   1.078594 S    
C107  C147  1.420623 A    
O50   C18   1.269454 A    
C169  C173  1.441723 A    
Zn1   O1    1.949231 S    
C26   Br2   1.967104 S    
Zn13  O1    1.957305 S    
Zn2   O14   1.943737 S    
C129  H61   1.082569 S    
C125  H53   1.079682 S    
C176  N4    1.436006 S    
C29   C39   1.562153 S    
C33   C34   1.532536 S    
C49   C61   1.394867 A    
C102  C106  1.413622 A    
C57   C65   1.401690 A    
C46   C54   1.387410 A    
C161  C165  1.412137 A    
C126  C134  1.391895 A    
O9    C5    1.295644 A    
C55   H39   1.077646 S    
O36   C13   1.277471 A    
C53   C57   1.394255 A    
C60   N8    1.440230 S    
C154  C161  1.422437 A    
O13   C9    1.277628 A    
N2    O55   1.299879 A    
Zn1   O8    1.943694 S    
C67   H43   1.081600 S    
H19   C139  1.082893 S    
H20   C140  1.079231 S    
C175  N3    1.431014 S    
Zn2   O7    1.942150 S    
C68   H44   1.067153 S    
C153  C157  1.392220 A    
Zn3   O6    1.943892 S    
O18   C14   1.276566 A    
O31   C10   1.273104 A    
O6    C2    1.296633 A    
C80   C84   1.414281 A    
C41   H25   1.079235 S    
C31   C40   1.561506 S    
C14   C118  1.457450 S    
C18   C165  1.434859 S    
C75   C87   1.411754 A    
C160  H84   1.074872 S    
C105  C113  1.412449 A    
C48   H32   1.080844 S    
C130  H62   1.080650 S    
C145  H65   1.082331 S    
N10   O72   1.301717 A    
N5    O61   1.301540 A    
H9    C33   1.112509 S    
Zn14  O30   1.943812 S    
C136  H60   1.082332 S    
Zn15  O3    1.957305 S    
C52   H36   1.082636 S    
Zn11  O3    1.948421 S    
O41   C21   1.281654 A    
C176  C180  1.394502 A    
C45   C53   1.390184 A    
Zn16  O34   1.943812 S    
C24   C40   1.492443 S    
H12   C33   1.112480 S    
C150  H70   1.078755 S    
Zn2   O2    1.949229 S    
N11   O73   1.301683 A    
C128  C136  1.393522 A    
Zn8   O20   1.943936 S    
C106  C146  1.420123 A    
C99   C123  1.416578 A    
H13   C35   1.112596 S    
C89   C97   1.416908 A    
C133  H57   1.082665 S    
H76   C179  1.083538 S    
C92   C100  1.414739 A    
C74   C86   1.410991 A    
C71   C79   1.421424 A    
C6    C96   1.464483 S    
C171  C172  1.422903 A    
Zn8   O9    1.936884 S    
O15   C11   1.293372 A    
C112  C152  1.421349 A    
C62   C70   1.403034 A    
C131  H63   1.082752 S    
C174  C178  1.389469 A    
C163  C164  1.399531 A    
O7    C3    1.282877 A    
C107  C115  1.424602 A    
N3    O57   1.300500 A    
O19   C15   1.277907 A    
O44   C21   1.281573 A    
H22   C142  1.081694 S    
Zn9   O24   1.943558 S    
C133  C137  1.389657 A    
Zn6   O18   1.943737 S    
C91   C99   1.413665 A    
Zn10  O23   1.945930 S    
C30   C40   1.561612 S    
C10   C114  1.457528 S    
C42   C50   1.387071 A    
C70   C78   1.423319 A    
H74   C177  1.083662 S    
C78   C94   1.426002 A    
Zn15  O36   1.938268 S    
N4    O60   1.299841 A    
O42   C22   1.278915 A    
C135  H59   1.082799 S    
C173  N1    1.433151 S    
Zn4   O1    1.961462 S    
C30   C32   1.564306 S    
Zn9   O37   1.948269 S    
O12   C8    1.285094 A    
C136  C140  1.387123 A    
Zn11  O39   1.948269 S    
C66   C74   1.424298 A    
C19   C168  1.433549 S    
C20   C167  1.441646 S    
C155  H79   1.082019 S    
C58   C66   1.401448 A    
C71   H47   1.066615 S    
C50   H34   1.082936 S    
C45   H29   1.080978 S    
C35   C36   1.532523 S    
C16   C120  1.462828 S    
Zn5   O3    1.949231 S    
C31   H7    1.113430 S    
C41   C49   1.388332 A    
C172  C176  1.438380 A    
C32   C39   1.562922 S    
C49   H33   1.082520 S    
C132  C144  1.383530 A    
C159  H83   1.082797 S    
C44   C52   1.391869 A    
C31   Br7   1.964648 S    
C169  C170  1.425251 A    
N8    O68   1.301643 A    
C70   H46   1.075616 S    
C156  H80   1.081118 S    
C163  C167  1.414104 A    
O28   C5    1.269589 A    
N12   O76   1.301760 A    
C77   C93   1.415531 A    
Zn3   O42   1.943118 S    
C62   N10   1.437269 S    
Zn7   O4    1.961463 S    
O21   C4    1.273089 A    
C81   C113  1.411639 A    
C127  C135  1.389126 A    
C155  C159  1.386030 A    
H14   C36   1.112503 S    
C156  C160  1.393958 A    
C60   C68   1.402624 A    
C128  H56   1.081641 S    
H75   C180  1.083092 S    
Zn14  O2    1.948118 S    
C104  C108  1.415250 A    
C48   C56   1.388056 A    
C108  C148  1.416334 A    
C102  C126  1.420872 A    
Zn13  O49   1.943692 S    
N1    O53   1.296562 A    
C47   C55   1.394417 A    
H18   C138  1.082240 S    
C80   C96   1.415504 A    
Zn12  O27   1.945930 S    
N9    O70   1.298252 A    
C27   Br3   1.967914 S    
C155  C164  1.421839 A    
C111  C151  1.416475 A    
C87   C119  1.416866 A    
C154  H78   1.081636 S    
C109  C149  1.418814 A    
Zn3   O2    1.961463 S    
C139  C147  1.392626 A    
C85   C117  1.414061 A    
C33   C37   1.554347 S    
C36   C40   1.557146 S    
C152  H72   1.072929 S    
C75   C91   1.411094 A    
C76   C92   1.428900 A    
O46   C24   1.279398 A    
O47   C24   1.284256 A    
Zn16  O52   1.948312 S    
C146  H66   1.079566 S    
Zn8   O45   1.943114 S    
O27   C6    1.288541 A    
C126  H54   1.079584 S    
O39   C19   1.275229 A    
C22   C38   1.491158 S    
Zn12  O4    1.957608 S    
C7    C93   1.460249 S    
C110  C118  1.416376 A    
Zn1   O13   1.942195 S    
C29   C31   1.563439 S    
C122  H50   1.077488 S    
C69   C77   1.416097 A    
C28   Br4   1.967648 S    
O24   C1    1.282322 A    
C97   C109  1.412972 A    
C79   C83   1.406799 A    
C168  C172  1.425151 A    
H21   C141  1.082783 S    
O43   C22   1.284111 A    
C43   C83   1.418604 A    
Zn4   O41   1.943114 S    
Zn3   O15   1.936926 S    
N3    O58   1.300443 A    
Zn5   O12   1.943694 S    
Zn6   O11   1.942150 S    
Zn9   O21   1.944190 S    
Zn14  O50   1.948312 S    
N7    O66   1.301701 A    
C98   C122  1.421553 A    
O35   C14   1.274996 A    
C96   C104  1.415165 A    
Zn12  O40   1.943651 S    
C131  C143  1.389961 A    
C141  C149  1.392477 A    
N2    O56   1.300662 A    
O52   C20   1.277754 A    
C138  C146  1.391904 A    
C121  H49   1.080645 S    
C46   C86   1.418826 A    
C32   Br8   1.967013 S    
C153  C162  1.421554 A    
C8    C94   1.464098 S    
O22   C3    1.277269 A    
C77   C81   1.411134 A    
C95   C103  1.413681 A    
Zn7   O19   1.936926 S    
C47   H31   1.081966 S    
C93   C101  1.416047 A    
C123  C131  1.393557 A    
Zn13  O32   1.938268 S    
O49   C17   1.274335 A    
Zn14  O31   1.944441 S    
C57   N5    1.436259 S    
O51   C19   1.269043 A    
H16   C35   1.112592 S    
C79   C95   1.429117 A    
C73   C89   1.419883 A    
C144  C152  1.392139 A    
C4    C90   1.463452 S    
Zn4   O5    1.936884 S    
O20   C16   1.295127 A    
C101  C105  1.413724 A    
N6    O63   1.301751 A    
O10   C6    1.278994 A    
O23   C2    1.273343 A    
C100  C124  1.421778 A    
Zn11  O25   1.944190 S    
Zn10  O38   1.943651 S    
C5    C95   1.463592 S    
O14   C10   1.278280 A    
C164  C168  1.405259 A    
C45   C85   1.416997 A    
C64   C72   1.404079 A    
H15   C36   1.112596 S    
C125  C133  1.393959 A    
C140  C148  1.391978 A    
C23   C39   1.490224 S    
C123  H51   1.082334 S    
O17   C13   1.280182 A    
C124  H52   1.080291 S    
C15   C119  1.460813 S    
O45   C23   1.281485 A    
