data_mof_unit_32487.cif
_audit_creation_date              2013-03-05T15:55:05-0500
_audit_creation_method            fapswitch 2.2
_symmetry_space_group_name_H-M    P1
_symmetry_Int_Tables_number       1
_space_group_crystal_system       triclinic
_cell_length_a                    13.616945
_cell_length_b                    14.089408
_cell_length_c                    29.993264
_cell_angle_alpha                 97.19474
_cell_angle_beta                  91.124713
_cell_angle_gamma                 118.903244
_cell_volume                      4976.57321237

loop_
_atom_site_label
_atom_site_type_symbol
_atom_site_description
_atom_site_fract_x
_atom_site_fract_y
_atom_site_fract_z
_atom_type_partial_charge
O1    O     O_R   0.493980 0.188910 0.559650 -0.536180
O2    O     O_R   0.678640 0.153520 0.554450 -0.532102
C1    C     C_R   0.723289 0.099543 0.568695 0.816640
O3    O     O_R   0.698130 0.004030 0.549500 -0.500233
O4    O     O_R   0.481060 0.827210 0.535360 -0.493622
C2    C     C_R   0.382362 0.785642 0.550285 0.840687
O5    O     O_R   0.309260 0.811560 0.537660 -0.539342
O6    O     O_R   0.341620 0.023400 0.546290 -0.525236
C3    C     C_R   0.398346 0.118670 0.569376 0.810182
O7    O     O_R   0.493030 0.185890 0.461780 -0.522371
O8    O     O_R   0.677760 0.150720 0.463730 -0.536344
C4    C     C_R   0.722250 0.097339 0.443395 0.824855
O9    O     O_R   0.697180 0.001010 0.451640 -0.534223
O10   O     O_R   0.480180 0.824400 0.444640 -0.528589
C5    C     C_R   0.381117 0.783510 0.424992 0.809276
O11   O     O_R   0.308310 0.808540 0.439800 -0.521227
O12   O     O_R   0.340740 0.020600 0.455570 -0.536801
C6    C     C_R   0.394023 0.115876 0.443693 0.844410
Cr1   Cr    Cr6+3 0.583430 0.162610 0.509470 1.024308
Cr2   Cr    Cr6+3 0.584210 0.916680 0.495400 1.080307
Cr3   Cr    Cr6+3 0.332380 0.920740 0.495100 1.025356
O13   O     O_3   0.500010 0.000010 0.499990 -0.369463
C7    C     C_R   0.357580 0.720973 0.588577 -0.230942
C8    C     C_R   0.442018 0.705825 0.609443 0.334292
C9    C     C_R   0.432918 0.678313 0.653565 -0.126294
C10   C     C_R   0.339490 0.668393 0.676637 -0.087071
C11   C     C_R   0.248705 0.669977 0.653937 -0.116024
C12   C     C_R   0.254985 0.689086 0.608823 -0.113313
C13   C     C_R   0.246706 0.663117 0.834397 -0.107946
C14   C     C_R   0.236918 0.648098 0.880034 -0.084751
C15   C     C_R   0.407176 0.630665 0.881428 -0.135915
C16   C     C_R   0.420596 0.652320 0.836577 0.397298
C17   C     C_R   0.336775 0.661849 0.812528 -0.083676
C18   C     C_1   0.340324 0.665064 0.764684 0.200734
C19   C     C_1   0.340451 0.666020 0.724645 0.170831
C20   C     C_R   0.308342 0.616840 0.901414 -0.190400
C21   C     C_3   0.233508 0.157430 0.719911 -0.165752
C22   C     C_3   0.232582 0.079171 0.751973 0.302175
C23   C     C_1   0.291761 0.202804 0.875987 -0.032538
C24   C     C_1   0.368794 0.136419 0.613534 -0.064117
C25   C     C_3   0.312436 0.256238 0.755751 0.339940
C26   C     C_3   0.309766 0.177918 0.788014 -0.116328
C27   C     C_3   0.416641 0.258879 0.735965 -0.142538
C28   C     C_3   0.337838 0.158931 0.700369 -0.120355
C29   C     C_3   0.414424 0.180202 0.768197 -0.168518
C30   C     C_3   0.335933 0.079752 0.732296 -0.138928
C31   C     C_1   0.298513 0.187980 0.836266 0.222600
C32   C     C_1   0.352340 0.147890 0.652381 0.169365
C33   C     C_3   0.929948 0.252342 0.736504 -0.203252
C34   C     C_3   0.842619 0.265472 0.764454 0.283159
C35   C     C_1   0.884694 0.200076 0.879700 -0.049170
C36   C     C_1   0.781545 0.134183 0.613056 -0.079917
C37   C     C_3   0.915977 0.160157 0.763088 0.307451
C38   C     C_3   0.829726 0.174531 0.791570 -0.093342
C39   C     C_3   0.820686 0.072256 0.728306 -0.188818
C40   C     C_3   0.833769 0.164540 0.701661 -0.103391
C41   C     C_3   0.733712 0.086692 0.756393 -0.187583
C42   C     C_3   0.746219 0.179231 0.729662 -0.098919
C43   C     C_1   0.850083 0.185875 0.840765 0.207364
C44   C     C_1   0.815729 0.152699 0.652284 0.151049
C45   C     C_3   0.239918 0.586681 0.259336 0.299974
C46   C     C_3   0.253302 0.672043 0.229291 0.212706
C47   C     C_1   0.308271 0.603218 0.111209 -0.042093
C48   C     C_1   0.361414 0.730127 0.379663 -0.032079
C49   C     C_3   0.316927 0.557925 0.230797 0.239476
C50   C     C_3   0.330757 0.643617 0.200420 -0.191832
C51   C     C_3   0.421133 0.645117 0.262401 -0.243013
C52   C     C_3   0.342958 0.674429 0.291011 -0.194865
C53   C     C_3   0.433371 0.730912 0.232197 0.267019
C54   C     C_3   0.356405 0.761445 0.260738 -0.223470
C55   C     C_1   0.323532 0.626828 0.151416 0.235362
C56   C     C_1   0.350513 0.698271 0.339986 0.235475
C57   C     C_R   0.349991 0.137310 0.402424 -0.239176
C58   C     C_R   0.414500 0.237834 0.386343 0.275235
C59   C     C_R   0.404933 0.242288 0.339769 -0.134194
C60   C     C_R   0.322788 0.148379 0.310891 -0.141907
C61   C     C_R   0.243504 0.056084 0.328624 0.336822
C62   C     C_R   0.254550 0.051737 0.375063 -0.210140
C63   C     C_R   0.268253 0.072472 0.141278 0.360744
C64   C     C_R   0.261263 0.095517 0.096980 -0.155419
C65   C     C_R   0.395591 0.288258 0.123491 -0.075870
C66   C     C_R   0.400570 0.265488 0.166772 -0.039768
C67   C     C_R   0.333104 0.159825 0.176317 -0.057361
C68   C     C_1   0.327184 0.146685 0.222921 0.198504
C69   C     C_1   0.323541 0.144375 0.262733 0.211636
C70   C     C_R   0.320707 0.206079 0.088967 -0.166326
H1    H     H_    0.452782 0.332298 0.193502 0.208393
H2    H     H_    0.443389 0.372957 0.118191 0.183137
C71   C     C_R   0.788878 0.141997 0.404582 -0.245828
C72   C     C_R   0.819427 0.076212 0.374772 -0.145030
C73   C     C_R   0.844094 0.100254 0.330829 0.310987
C74   C     C_R   0.836040 0.187867 0.316629 -0.149399
C75   C     C_R   0.825837 0.264479 0.348081 0.316102
C76   C     C_R   0.806389 0.243850 0.392809 -0.166129
C77   C     C_R   0.833579 0.274000 0.159452 0.366832
C78   C     C_R   0.858095 0.281259 0.114053 0.202588
C79   C     C_R   0.892521 0.126916 0.112652 -0.205508
C80   C     C_R   0.865477 0.116831 0.156824 -0.100321
C81   C     C_R   0.841144 0.194057 0.181169 -0.115766
C82   C     C_1   0.837295 0.198283 0.229307 0.235805
C83   C     C_1   0.837471 0.197030 0.269321 0.262095
C84   C     C_R   0.895511 0.211606 0.091526 -0.177593
H3    H     H_    0.916292 0.069932 0.095263 0.202176
O14   O     O_R   0.969650 0.150960 0.933380 -0.519081
O15   O     O_R   0.187740 0.180870 0.937580 -0.516812
C85   C     C_R   0.282813 0.233430 0.921989 0.823388
O16   O     O_R   0.358510 0.327410 0.940870 -0.527602
O17   O     O_R   0.324180 0.507870 0.953930 -0.532838
C86   C     C_R   0.268249 0.551774 0.939414 0.850204
O18   O     O_R   0.170560 0.527890 0.952050 -0.531508
O19   O     O_R   0.987620 0.318470 0.945550 -0.526994
C87   C     C_R   0.943317 0.221443 0.923255 0.806444
O20   O     O_R   0.976400 0.159270 0.031530 -0.550166
O21   O     O_R   0.194000 0.188570 0.028560 -0.531512
C88   C     C_R   0.293932 0.242339 0.048482 0.840970
O22   O     O_R   0.365260 0.335720 0.039020 -0.542893
O23   O     O_R   0.330440 0.515580 0.044910 -0.536597
C89   C     C_R   0.275519 0.558202 0.064908 0.809807
O24   O     O_R   0.177310 0.536200 0.050190 -0.514067
O25   O     O_R   0.993870 0.326170 0.036530 -0.519254
C90   C     C_R   0.953120 0.231893 0.049535 0.827231
Cr4   Cr    Cr6+3 0.086810 0.177030 0.983130 1.036335
Cr5   Cr    Cr6+3 0.337180 0.419300 0.994610 1.021642
Cr6   Cr    Cr6+3 0.084840 0.422330 0.995830 1.052835
O26   O     O_3   0.169610 0.339550 0.991190 -0.364297
C91   C     C_2   0.160459 0.675284 0.906940 0.875443
O27   O     O_2   0.061500 0.637358 0.893447 -0.477347
O28   O     O_R   0.202559 0.742950 0.948782 -0.640887
H4    H     H_    0.143340 0.755184 0.964392 0.325439
C92   C     C_2   0.139127 0.146033 0.689477 0.876581
O29   O     O_2   0.044431 0.069855 0.689931 -0.521148
O30   O     O_R   0.161582 0.218927 0.658658 -0.635666
H5    H     H_    0.092593 0.198334 0.637745 0.322140
C93   C     C_2   0.345117 0.978699 0.718582 1.018061
O31   O     O_2   0.350468 0.926726 0.747243 -0.516265
O32   O     O_R   0.351723 0.946883 0.673260 -0.638577
H6    H     H_    0.374601 0.888197 0.669072 0.306297
C94   C     C_2   0.512217 0.199100 0.798964 0.858764
O33   O     O_2   0.533527 0.125193 0.801031 -0.546489
O34   O     O_R   0.574739 0.299778 0.827017 -0.592873
H7    H     H_    0.636278 0.301573 0.847263 0.343413
C95   C     C_2   0.516929 0.360556 0.725640 0.941361
O35   O     O_2   0.591648 0.420614 0.755411 -0.448009
O36   O     O_R   0.523638 0.386675 0.681974 -0.657482
H8    H     H_    0.596892 0.454647 0.678581 0.322115
N1    N     N_R   0.303917 0.355052 0.767994 0.164891
O37   O     O_R   0.306234 0.412476 0.736958 -0.344725
O38   O     O_R   0.310693 0.394541 0.810199 -0.326122
N2    N     N_R   0.851269 0.369831 0.783659 0.165280
O39   O     O_R   0.851789 0.436506 0.757271 -0.296597
O40   O     O_R   0.857536 0.396559 0.827125 -0.322099
C96   C     C_2   0.038876 0.344674 0.726707 0.981175
O41   O     O_2   0.104348 0.411812 0.757826 -0.481975
O42   O     O_R   0.064334 0.354447 0.682089 -0.646759
H9    H     H_    0.142646 0.416817 0.679707 0.344960
C97   C     C_2   0.660148 0.196422 0.705804 0.806246
O43   O     O_2   0.562110 0.125146 0.701254 -0.576187
O44   O     O_R   0.694937 0.288485 0.684334 -0.621135
H10   H     H_    0.632011 0.283113 0.663779 0.308662
C98   C     C_2   0.627006 0.990864 0.766212 1.000773
O45   O     O_2   0.560108 0.925573 0.735018 -0.554621
O46   O     O_R   0.605551 0.975569 0.810859 -0.615145
H11   H     H_    0.528838 0.910685 0.813199 0.330368
C99   C     C_2   0.809400 0.963855 0.708538 1.029280
O47   O     O_2   0.795699 0.896131 0.733016 -0.454575
O48   O     O_R   0.815637 0.941287 0.662326 -0.615090
H12   H     H_    0.815076 0.869200 0.653509 0.374678
C100  C     C_2   0.161821 0.677917 0.809153 0.895269
O49   O     O_2   0.063376 0.605621 0.804154 -0.445162
O50   O     O_R   0.194677 0.773481 0.790556 -0.626598
H13   H     H_    0.129255 0.772598 0.773469 0.373175
N3    N     N_R   0.005988 0.148422 0.784025 0.093209
O51   O     O_R   0.090487 0.235042 0.806844 -0.361465
O52   O     O_R   0.982047 0.053243 0.794355 -0.293544
N4    N     N_R   0.159034 0.682978 0.211929 0.224728
O53   O     O_R   0.081131 0.675493 0.237917 -0.217841
O54   O     O_R   0.144005 0.684783 0.169178 -0.280539
N5    N     N_R   0.133255 0.505187 0.272858 0.195615
O55   O     O_R   0.052576 0.437194 0.242271 -0.322302
O56   O     O_R   0.119963 0.496585 0.315236 -0.310263
C101  C     C_2   0.379697 0.876743 0.275563 0.995213
O57   O     O_2   0.376810 0.931143 0.247381 -0.502460
O58   O     O_R   0.406679 0.922135 0.321193 -0.671891
H14   H     H_    0.425011 0.001665 0.326654 0.275997
N6    N     N_R   0.539505 0.807716 0.216553 0.163219
O59   O     O_R   0.580548 0.912918 0.227825 -0.338553
O60   O     O_R   0.593024 0.770850 0.190672 -0.306528
C102  C     C_2   0.514960 0.628669 0.279687 1.019574
O61   O     O_2   0.568846 0.604406 0.252996 -0.477144
O62   O     O_R   0.539976 0.640540 0.326112 -0.645439
H15   H     H_    0.604773 0.627160 0.333557 0.318261
N7    N     N_R   0.291025 0.445331 0.215371 0.137611
O63   O     O_R   0.273950 0.379313 0.244574 -0.321240
O64   O     O_R   0.271888 0.406869 0.172517 -0.392370
C103  C     C_2   0.189847 0.005036 0.059970 0.883245
O65   O     O_2   0.223669 0.003155 0.022562 -0.550243
O66   O     O_R   0.083953 0.922025 0.067870 -0.604926
H16   H     H_    0.043608 0.865158 0.040076 0.318609
N8    N     N_R   0.213448 0.961272 0.150195 0.157641
O67   O     O_R   0.149078 0.933333 0.183047 -0.271540
O68   O     O_R   0.232447 0.888602 0.126704 -0.311873
N9    N     N_R   0.155101 0.965188 0.299038 0.171388
O69   O     O_R   0.153735 0.871668 0.292501 -0.277391
O70   O     O_R   0.089024 0.980771 0.272709 -0.262454
C104  C     C_2   0.150334 0.658946 0.678218 0.823701
O71   O     O_2   0.121093 0.728494 0.678612 -0.485342
O72   O     O_R   0.092277 0.570212 0.701119 -0.652083
H17   H     H_    0.024734 0.570106 0.714712 0.364119
C105  C     C_2   0.162828 0.963565 0.395833 0.942839
O73   O     O_2   0.120560 0.867405 0.378617 -0.475615
O74   O     O_R   0.126095 0.991610 0.436040 -0.636022
H18   H     H_    0.064259 0.925281 0.447374 0.318731
N10   N     N_R   0.488378 0.333665 0.418127 -0.185134
O75   O     O_R   0.495433 0.428397 0.415938 -0.000001
O76   O     O_R   0.495433 0.428397 0.415938 -0.000001
C106  C     C_2   0.487349 0.340938 0.321011 0.869228
O77   O     O_2   0.456194 0.374454 0.291098 -0.526769
O78   O     O_R   0.600856 0.395465 0.337633 -0.594353
H19   H     H_    0.648190 0.461718 0.322527 0.358214
N11   N     N_R   0.841344 0.357554 0.091824 -0.173815
O79   O     O_R   0.794837 0.330606 0.050605 -0.000002
O80   O     O_R   0.794837 0.330606 0.050605 -0.000002
N12   N     N_R   0.799072 0.346544 0.183134 0.159919
O81   O     O_R   0.852468 0.450897 0.180584 -0.249741
O82   O     O_R   0.709634 0.307217 0.205048 -0.335782
N13   N     N_R   0.838973 0.364575 0.334994 0.172246
O83   O     O_R   0.780491 0.361899 0.299605 -0.298752
O84   O     O_R   0.912783 0.459116 0.357467 -0.285227
C107  C     C_2   0.803202 0.328728 0.426582 0.944138
O85   O     O_2   0.858255 0.357029 0.463199 -0.524280
O86   O     O_R   0.737290 0.375926 0.416579 -0.603761
H20   H     H_    0.742059 0.432415 0.442315 0.329517
C108  C     C_2   0.831438 0.986146 0.390019 0.941841
O87   O     O_2   0.907452 0.007707 0.418588 -0.532767
O88   O     O_R   0.753564 0.877045 0.373065 -0.610195
H21   H     H_    0.770059 0.823135 0.386499 0.321711
C109  C     C_2   0.152281 0.669889 0.582191 0.897446
O89   O     O_2   0.106628 0.591597 0.551862 -0.521987
O90   O     O_R   0.110761 0.743192 0.590491 -0.604537
H22   H     H_    0.041395 0.721707 0.569646 0.322735
C110  C     C_2   0.868033 0.026667 0.176745 0.957641
O91   O     O_2   0.802261 0.981836 0.204139 -0.451251
O92   O     O_R   0.943528 0.990474 0.163024 -0.622279
H23   H     H_    0.936396 0.928011 0.178703 0.388913
N14   N     N_R   0.884282 0.040716 0.301292 0.140460
O93   O     O_R   0.974432 0.094270 0.281075 -0.325666
O94   O     O_R   0.828786 0.934113 0.292652 -0.273467
N15   N     N_R   0.534044 0.713108 0.584877 0.127727
O95   O     O_R   0.631135 0.802498 0.591805 -0.325392
O96   O     O_R   0.515538 0.638201 0.550664 -0.345395
N16   N     N_R   0.518368 0.663444 0.815184 0.126156
O97   O     O_R   0.581683 0.751730 0.798167 -0.354247
O98   O     O_R   0.536435 0.580521 0.807757 -0.265211
C111  C     C_2   0.500048 0.631915 0.908776 0.904491
O99   O     O_2   0.540601 0.574172 0.895185 -0.466001
O100  O     O_R   0.538573 0.697533 0.951138 -0.657815
H24   H     H_    0.600787 0.690828 0.967076 0.309444
C112  C     C_2   0.521175 0.661257 0.675810 0.916675
O101  O     O_2   0.618435 0.708402 0.666246 -0.505278
O102  O     O_R   0.492977 0.590330 0.707735 -0.604426
H25   H     H_    0.561036 0.589478 0.721466 0.369105
N17   N     N_R   0.134428 0.978908 0.760427 0.179182
O103  O     O_R   0.072164 0.903891 0.726722 -0.297476
O104  O     O_R   0.118030 0.957318 0.801397 -0.313219

loop_
_geom_bond_atom_site_label_1
_geom_bond_atom_site_label_2
_geom_bond_distance
_ccdc_geom_bond_type
C23   C85   1.418817 S    
C39   C40   1.550153 S    
C73   N14   1.436880 S    
N17   O104  1.300443 A    
O62   H15   1.013669 S    
C103  O66   1.398515 S    
O22   Cr5   2.028626 S    
C78   C84   1.417716 A    
C57   C58   1.412555 A    
C92   O30   1.395734 S    
N12   O81   1.301231 A    
C45   C52   1.541543 S    
O16   Cr5   2.053711 S    
O72   H17   1.012741 S    
C27   C28   1.546623 S    
C48   C56   1.197740 T    
O28   H4    1.013973 S    
N6    O60   1.300217 A    
C14   C91   1.490995 S    
O21   C88   1.280943 A    
O78   H19   1.013845 S    
O88   H21   1.013793 S    
N2    O39   1.299611 A    
N16   O97   1.300263 A    
N4    O54   1.299824 A    
O4    Cr2   1.931674 S    
C37   C38   1.541487 S    
O17   C86   1.289223 A    
O74   H18   1.013921 S    
C4    O9    1.288113 A    
C16   N16   1.437291 S    
O8    Cr1   1.944141 S    
C10   C11   1.410570 A    
C107  O85   1.223188 D    
N9    O70   1.299200 A    
C13   C100  1.480208 S    
C99   O47   1.221917 D    
O90   H22   1.013750 S    
C106  O78   1.397734 S    
C39   C99   1.500171 S    
C18   C19   1.202668 T    
C22   N17   1.457429 S    
O4    C2    1.295402 A    
C1    C36   1.435085 S    
C77   C81   1.413091 A    
N16   O98   1.299982 A    
C50   C53   1.538305 S    
O14   Cr4   2.027178 S    
C85   O16   1.267425 A    
C46   N4    1.458661 S    
C66   H1    1.084419 S    
C109  O90   1.397819 S    
C101  O57   1.222138 D    
C59   C106  1.490187 S    
C21   C92   1.492795 S    
C46   C54   1.545401 S    
C102  O62   1.396745 S    
C110  O91   1.219926 D    
C25   C26   1.544496 S    
C71   C76   1.428426 A    
C89   O24   1.273252 A    
C82   C83   1.202468 T    
C80   C110  1.484596 S    
C111  O100  1.398234 S    
C36   C44   1.205511 T    
C37   N3    1.454538 S    
O18   Cr6   2.042035 S    
O19   C87   1.279801 A    
C75   N13   1.439631 S    
O20   Cr4   2.059934 S    
C77   C78   1.412739 A    
C13   C17   1.408759 A    
C28   C30   1.550076 S    
O6    C3    1.273498 A    
C49   C51   1.546484 S    
O92   H23   1.013863 S    
C64   C70   1.421995 A    
C5    C48   1.421479 S    
C8    C9    1.416117 A    
C40   C42   1.550389 S    
C84   C90   1.481713 S    
C108  O87   1.222258 D    
N17   O103  1.300145 A    
C65   C70   1.403425 A    
C33   C96   1.492113 S    
C52   C56   1.455386 S    
C79   C80   1.388103 A    
C45   C46   1.535524 S    
C100  O50   1.392763 S    
O19   Cr6   1.914250 S    
N8    O67   1.300636 A    
O24   Cr6   2.032032 S    
C109  O89   1.222425 D    
C61   N9    1.435192 S    
C25   C27   1.534465 S    
N2    O40   1.300100 A    
C53   C54   1.547592 S    
N15   O95   1.300528 A    
N11   O80   1.301105 A    
N11   O79   1.301106 A    
N15   O96   1.300714 A    
C65   C66   1.383676 A    
N1    O38   1.299963 A    
C38   C43   1.470230 S    
C37   C39   1.541291 S    
O7    C6    1.279308 A    
O1    Cr1   2.062691 S    
C63   N8    1.437257 S    
N9    O69   1.298627 A    
C25   N1    1.454753 S    
C51   C52   1.553110 S    
C34   C42   1.541188 S    
N5    O55   1.299714 A    
C4    C71   1.499115 S    
Cr1   O13   1.981954 S    
O1    C3    1.265612 A    
C68   C69   1.199938 T    
C105  O73   1.221801 D    
C58   C59   1.412451 A    
C101  O58   1.396767 S    
C110  O92   1.398929 S    
C73   C74   1.406379 A    
O14   C87   1.273762 A    
C47   C89   1.418213 S    
C46   C50   1.542703 S    
O30   H5    1.013879 S    
C93   O32   1.395730 S    
C103  O65   1.223219 D    
C9    C10   1.415567 A    
C61   C62   1.410143 A    
C66   C67   1.391861 A    
C5    O11   1.273002 A    
O12   Cr3   1.914824 S    
C40   C44   1.471650 S    
C72   C108  1.479601 S    
C70   C88   1.478666 S    
C11   C104  1.488016 S    
C26   C29   1.542396 S    
C98   O46   1.397061 S    
C21   C22   1.547034 S    
C112  O102  1.395040 S    
C59   C60   1.412902 A    
O102  H25   1.012731 S    
C50   C55   1.452809 S    
C39   C41   1.543628 S    
C13   C14   1.410159 A    
O10   Cr2   1.911576 S    
C12   C109  1.484389 S    
C30   C93   1.496477 S    
C27   C29   1.549701 S    
C54   C101  1.500907 S    
C92   O29   1.217123 D    
C67   C68   1.431581 S    
C49   N7    1.457381 S    
N10   O75   1.301246 A    
O7    Cr1   2.026710 S    
C57   C62   1.418356 A    
C106  O77   1.221792 D    
O100  H24   1.013856 S    
O12   C6    1.282085 A    
O25   C90   1.284625 A    
O58   H14   1.013296 S    
N13   O83   1.300003 A    
C75   C76   1.411231 A    
C34   C38   1.543761 S    
C7    C12   1.420292 A    
O34   H7    1.013541 S    
C108  O88   1.397601 S    
C62   C105  1.488562 S    
O42   H9    1.013580 S    
C79   H3    1.083671 S    
C42   C97   1.493068 S    
C74   C83   1.440448 S    
C9    C112  1.495026 S    
C52   C54   1.558670 S    
C100  O49   1.221040 D    
C41   C98   1.496964 S    
C96   O42   1.395803 S    
C33   C34   1.537537 S    
C6    C57   1.490749 S    
N13   O84   1.301212 A    
C51   C102  1.498392 S    
N14   O94   1.300682 A    
C58   N10   1.439018 S    
O44   H10   1.012377 S    
C95   O36   1.397130 S    
C8    N15   1.433387 S    
C35   C43   1.206064 T    
Cr2   O13   1.994724 S    
O17   Cr5   1.914090 S    
C72   C73   1.408521 A    
C1    O3    1.269766 A    
C71   C72   1.418184 A    
C53   N6    1.456666 S    
C20   C86   1.496599 S    
N3    O51   1.297772 A    
C23   C31   1.196639 T    
N1    O37   1.298953 A    
O5    Cr3   2.033325 S    
C24   C32   1.196629 T    
C64   C103  1.485883 S    
C104  O71   1.222006 D    
C97   O43   1.213206 D    
C91   O28   1.398647 S    
C15   C20   1.419876 A    
C15   C111  1.485444 S    
O2    Cr1   1.911129 S    
O10   C5    1.277238 A    
O9    Cr2   2.050328 S    
C15   C16   1.412320 A    
C79   C84   1.403688 A    
N14   O93   1.300924 A    
O36   H8    1.013643 S    
O6    Cr3   1.930156 S    
C29   C30   1.554248 S    
N5    O56   1.299768 A    
O8    C4    1.282473 A    
N12   O82   1.300978 A    
O11   Cr3   2.044144 S    
C22   C26   1.540775 S    
C2    O5    1.280165 A    
C94   O34   1.396573 S    
O3    Cr2   2.027172 S    
O46   H11   1.013737 S    
C33   C40   1.547258 S    
O15   C85   1.275474 A    
C93   O31   1.219541 D    
C35   C87   1.436194 S    
C81   C82   1.440596 S    
C14   C20   1.418233 A    
N7    O63   1.299782 A    
C111  O99   1.221903 D    
C99   O48   1.396352 S    
O2    C1    1.284024 A    
O23   Cr5   1.933341 S    
N10   O76   1.301248 A    
C49   C50   1.544596 S    
N4    O53   1.299572 A    
C78   N11   1.436192 S    
O23   C89   1.281096 A    
C16   C17   1.407543 A    
C63   C67   1.409963 A    
C60   C61   1.406445 A    
C34   N2    1.457873 S    
N6    O59   1.299984 A    
O48   H12   1.013266 S    
Cr4   O26   1.981886 S    
C91   O27   1.222089 D    
C33   C37   1.544470 S    
C2    C7    1.497755 S    
C60   C69   1.438888 S    
C97   O44   1.395998 S    
C74   C75   1.403356 A    
N3    O52   1.298467 A    
C17   C18   1.442403 S    
O15   Cr4   1.943865 S    
C112  O101  1.220555 D    
C26   C31   1.454797 S    
C3    C24   1.419101 S    
C45   C49   1.534778 S    
C21   C25   1.543413 S    
O66   H16   1.013856 S    
C88   O22   1.274363 A    
C98   O45   1.221622 D    
C77   N12   1.437185 S    
C22   C30   1.533497 S    
C65   H2    1.083398 S    
Cr5   O26   1.990770 S    
C94   O33   1.216521 D    
C7    C8    1.414785 A    
C63   C64   1.418724 A    
O21   Cr4   1.910644 S    
C21   C28   1.539172 S    
C28   C32   1.455906 S    
C10   C19   1.444438 S    
C45   N5    1.456046 S    
O20   C90   1.273170 A    
C96   O41   1.221375 D    
C107  O86   1.397893 S    
C80   C81   1.409206 A    
O50   H13   1.013005 S    
C86   O18   1.282734 A    
O86   H20   1.013757 S    
N8    O68   1.301616 A    
C105  O74   1.398573 S    
C95   O35   1.221208 D    
C102  O61   1.221921 D    
C27   C95   1.499872 S    
C29   C94   1.497729 S    
C51   C53   1.547625 S    
C41   C42   1.557018 S    
Cr3   O13   1.990139 S    
C104  O72   1.393141 S    
C47   C55   1.196235 T    
O32   H6    1.010467 S    
O25   Cr6   1.926530 S    
C76   C107  1.485451 S    
N7    O64   1.299819 A    
Cr6   O26   1.994785 S    
C11   C12   1.408635 A    
C38   C41   1.552040 S    
