data_mof_unit_58473.cif
_audit_creation_date              2013-03-05T15:46:33-0500
_audit_creation_method            fapswitch 2.2
_symmetry_space_group_name_H-M    P1
_symmetry_Int_Tables_number       1
_space_group_crystal_system       triclinic
_cell_length_a                    17.414865
_cell_length_b                    24.634145
_cell_length_c                    14.885593
_cell_angle_alpha                 89.856758
_cell_angle_beta                  125.818799
_cell_angle_gamma                 90.135048
_cell_volume                      5178.14667084

loop_
_atom_site_label
_atom_site_type_symbol
_atom_site_description
_atom_site_fract_x
_atom_site_fract_y
_atom_site_fract_z
_atom_type_partial_charge
C1    C     C_R   0.342078 0.351948 0.907667 -0.174122
C2    C     C_R   0.651320 0.349615 0.092660 -0.203011
C3    C     C_R   0.810345 0.876418 0.905398 -0.169422
C4    C     C_R   0.148039 0.848683 0.091334 -0.226447
H1    H     H_    0.290666 0.340856 0.821846 0.141600
H2    H     H_    0.695206 0.336143 0.177962 0.156094
H3    H     H_    0.752217 0.872337 0.819060 0.129551
H4    H     H_    0.193718 0.835442 0.176704 0.137506
N1    N     N_R   0.394180 0.396910 0.943210 -0.060994
N2    N     N_R   0.605820 0.396910 0.056790 -0.063170
N3    N     N_R   0.894180 0.896910 0.943210 -0.050813
N4    N     N_R   0.105820 0.896910 0.056790 -0.062960
C5    C     C_R   0.412240 0.637931 0.088346 0.502016
C6    C     C_R   0.554940 0.650062 0.905535 0.515308
C7    C     C_R   0.904165 0.128202 0.090385 0.521886
C8    C     C_R   0.054180 0.150676 0.905834 0.511396
N5    N     N_R   0.450950 0.603070 0.056740 -0.103519
N6    N     N_R   0.549050 0.603070 0.943260 -0.083438
N7    N     N_R   0.950950 0.103070 0.056740 -0.112884
N8    N     N_R   0.049050 0.103070 0.943260 -0.080570
C9    C     C_R   0.480623 0.453819 0.248401 -0.092138
C10   C     C_R   0.450569 0.454800 0.695860 -0.093340
C11   C     C_R   0.053757 0.955349 0.306917 -0.057070
C12   C     C_R   0.021086 0.954651 0.753046 -0.094990
H5    H     H_    0.467531 0.412026 0.255362 0.144892
H6    H     H_    0.430168 0.413830 0.666970 0.166077
H7    H     H_    0.079950 0.915224 0.338908 0.158135
H8    H     H_    0.033564 0.912852 0.744761 0.145584
N9    N     N_R   0.525650 0.471570 0.206150 -0.032223
N10   N     N_R   0.474350 0.471570 0.793850 -0.043492
N11   N     N_R   0.025650 0.971570 0.206150 -0.054296
N12   N     N_R   0.974350 0.971570 0.793850 -0.035274
C13   C     C_R   0.244007 0.544923 0.695854 -0.060695
C14   C     C_R   0.767033 0.545671 0.243157 -0.139137
C15   C     C_R   0.744934 0.045546 0.696280 -0.055386
C16   C     C_R   0.266322 0.046066 0.243253 -0.156992
H9    H     H_    0.236431 0.585873 0.666323 0.079265
H10   H     H_    0.783775 0.587316 0.243258 0.084617
H11   H     H_    0.737949 0.086664 0.667317 0.090653
H12   H     H_    0.283122 0.087868 0.244089 0.104947
N13   N     N_R   0.319480 0.528420 0.793810 -0.051827
N14   N     N_R   0.680520 0.528420 0.206190 -0.045409
N15   N     N_R   0.819480 0.028420 0.793810 -0.054819
N16   N     N_R   0.180520 0.028420 0.206190 -0.042163
C17   C     C_R   0.485346 0.544077 0.255549 -0.165700
C18   C     C_R   0.450912 0.545092 0.695310 -0.105180
C19   C     C_R   0.051131 0.045250 0.305309 -0.067103
C20   C     C_R   0.020422 0.045489 0.752142 -0.121385
H13   H     H_    0.482897 0.584328 0.279185 0.166709
H14   H     H_    0.432793 0.586386 0.666308 0.151501
H15   H     H_    0.071531 0.086386 0.334142 0.123760
H16   H     H_    0.031524 0.087286 0.741818 0.143733
N17   N     N_R   0.525640 0.528390 0.206120 -0.051074
N18   N     N_R   0.474360 0.528390 0.793880 -0.044056
N19   N     N_R   0.025640 0.028390 0.206120 -0.056614
N20   N     N_R   0.974360 0.028390 0.793880 -0.039767
C21   C     C_R   0.242467 0.454429 0.697579 -0.144560
C22   C     C_R   0.768515 0.454961 0.247295 -0.086128
C23   C     C_R   0.743198 0.955226 0.695489 -0.144483
C24   C     C_R   0.269051 0.955291 0.248081 -0.108681
H17   H     H_    0.231824 0.412760 0.670235 0.107635
H18   H     H_    0.789529 0.413043 0.257283 0.092325
H19   H     H_    0.732385 0.914002 0.665692 0.116979
H20   H     H_    0.291153 0.913486 0.258738 0.095318
N21   N     N_R   0.319490 0.471590 0.793840 -0.040536
N22   N     N_R   0.680510 0.471590 0.206160 -0.035308
N23   N     N_R   0.819490 0.971590 0.793840 -0.041864
N24   N     N_R   0.180510 0.971590 0.206160 -0.040961
C25   C     C_R   0.315985 0.631250 0.904143 -0.201543
C26   C     C_R   0.648129 0.651877 0.088790 -0.263277
C27   C     C_R   0.811015 0.124971 0.905671 -0.130219
C28   C     C_R   0.149417 0.150979 0.090036 -0.225759
H21   H     H_    0.260542 0.638755 0.817754 0.151385
H22   H     H_    0.692126 0.665813 0.173229 0.176177
H23   H     H_    0.754759 0.132356 0.819611 0.154033
H24   H     H_    0.196290 0.164143 0.175272 0.166513
N25   N     N_R   0.394130 0.603080 0.943110 -0.080814
N26   N     N_R   0.605870 0.603080 0.056890 -0.074349
N27   N     N_R   0.894130 0.103080 0.943110 -0.073337
N28   N     N_R   0.105870 0.103080 0.056890 -0.078506
C29   C     C_R   0.440080 0.350048 0.091760 0.407692
C30   C     C_R   0.557927 0.349340 0.908690 0.441055
C31   C     C_R   0.904202 0.870708 0.090271 0.451565
C32   C     C_R   0.052219 0.848553 0.907745 0.417984
N29   N     N_R   0.450990 0.396900 0.056840 -0.086329
N30   N     N_R   0.549010 0.396900 0.943160 -0.084039
N31   N     N_R   0.950990 0.896900 0.056840 -0.080665
N32   N     N_R   0.049010 0.896900 0.943160 -0.084470
C33   C     C_R   0.369842 0.322465 0.000638 -0.021823
C34   C     C_R   0.621857 0.319552 0.000742 -0.017224
C35   C     C_R   0.814308 0.859164 0.995795 -0.058986
C36   C     C_R   0.114282 0.817920 0.998644 -0.000011
C37   C     C_R   0.325515 0.652336 0.995084 -0.041003
C38   C     C_R   0.616473 0.682298 0.994831 -0.074356
C39   C     C_R   0.816035 0.141922 0.996999 -0.088133
C40   C     C_R   0.120687 0.180926 0.997170 -0.062617
C41   C     C_R   0.452595 0.498567 0.278021 0.011520
C42   C     C_R   0.433912 0.499735 0.631500 -0.011261
C43   C     C_R   0.069317 0.000373 0.370557 -0.017987
C44   C     C_R   0.051880 0.000149 0.727087 -0.008955
C45   C     C_R   0.193839 0.499602 0.633290 0.082420
C46   C     C_R   0.824883 0.500725 0.270234 0.042470
C47   C     C_R   0.694788 0.000806 0.632865 0.077493
C48   C     C_R   0.324575 0.001590 0.271470 0.048693
Ni1   Ni    Ni4+2 0.434860 0.434850 0.869700 0.246642
Ni2   Ni    Ni4+2 0.565140 0.434850 0.130300 0.264731
Ni3   Ni    Ni4+2 0.934860 0.934850 0.869700 0.265918
Ni4   Ni    Ni4+2 0.065140 0.934850 0.130300 0.232413
Ni5   Ni    Ni4+2 0.565130 0.565140 0.130240 0.194549
Ni6   Ni    Ni4+2 0.434870 0.565140 0.869760 0.209180
Ni7   Ni    Ni4+2 0.065130 0.065140 0.130240 0.188454
Ni8   Ni    Ni4+2 0.934870 0.065140 0.869760 0.241683
C49   C     C_R   0.072772 0.547477 0.456664 0.000679
C50   C     C_R   0.983338 0.548320 0.358114 -0.031541
C51   C     C_R   0.568487 0.051550 0.466433 -0.040490
C52   C     C_R   0.478370 0.052826 0.369256 -0.092147
C53   C     C_R   0.114235 0.499329 0.515415 0.081063
C54   C     C_R   0.927826 0.500691 0.322551 0.037628
C55   C     C_R   0.614053 0.002445 0.516211 0.110202
C56   C     C_R   0.427230 0.003925 0.325706 0.067490
C57   C     C_R   0.070701 0.450458 0.459098 -0.185662
C58   C     C_R   0.977757 0.451147 0.362466 -0.152310
C59   C     C_R   0.573319 0.954639 0.453869 -0.194369
C60   C     C_R   0.479789 0.955383 0.358440 -0.152853
H25   H     H_    0.102480 0.411494 0.495120 0.122072
H26   H     H_    0.942425 0.412562 0.329941 0.116228
H27   H     H_    0.608330 0.915835 0.484465 0.126142
H28   H     H_    0.446016 0.917002 0.320553 0.112648
C61   C     C_3   0.969799 0.606822 0.376485 0.246451
C62   C     C_3   0.064370 0.602958 0.489781 0.298080
C63   C     C_3   0.457128 0.105767 0.402656 0.260667
C64   C     C_3   0.554682 0.101757 0.511831 0.299188
H29   H     H_    0.911372 0.616554 0.383417 0.065143
H30   H     H_    0.120729 0.631188 0.504153 0.055924
H31   H     H_    0.400405 0.103469 0.415303 0.085357
H32   H     H_    0.605173 0.134713 0.527521 0.062109
C65   C     C_R   0.254850 0.741004 0.934265 0.549134
C66   C     C_R   0.678936 0.775392 0.067989 0.555378
C67   C     C_R   0.752266 0.232715 0.935618 0.533279
C68   C     C_R   0.214907 0.263426 0.067047 0.561426
C69   C     C_R   0.701912 0.275355 0.935934 -0.318713
C70   C     C_R   0.281583 0.296152 0.071744 -0.295390
C71   C     C_R   0.200160 0.780945 0.934223 -0.337576
C72   C     C_R   0.730779 0.818952 0.068333 -0.284330
H33   H     H_    0.692387 0.311700 0.889500 0.153166
H34   H     H_    0.308064 0.331466 0.125006 0.135744
H35   H     H_    0.188647 0.818249 0.889134 0.141771
H36   H     H_    0.761719 0.848827 0.133873 0.168008
C73   C     C_R   0.666533 0.272223 0.998630 0.126868
C74   C     C_R   0.311926 0.284168 0.005169 0.129700
C75   C     C_R   0.162712 0.773497 0.994466 0.127922
C76   C     C_R   0.746575 0.822018 0.986637 0.135570
C77   C     C_R   0.678623 0.226382 0.060619 -0.185963
C78   C     C_R   0.280326 0.239052 0.937119 -0.190371
C79   C     C_R   0.178115 0.726592 0.054953 -0.178718
C80   C     C_R   0.704877 0.785116 0.899433 -0.179151
H37   H     H_    0.651581 0.224950 0.110186 0.156639
H38   H     H_    0.304610 0.230326 0.886231 0.150211
H39   H     H_    0.149851 0.722029 0.102882 0.139827
H40   H     H_    0.716819 0.786216 0.835796 0.144080
C81   C     C_R   0.230694 0.685612 0.052829 -0.194653
C82   C     C_R   0.657076 0.741760 0.900330 -0.241305
C83   C     C_R   0.725470 0.182141 0.056981 -0.190011
C84   C     C_R   0.217902 0.204815 0.936336 -0.284015
H41   H     H_    0.243632 0.648555 0.099133 0.146448
H42   H     H_    0.634973 0.711108 0.837672 0.191126
H43   H     H_    0.735393 0.145947 0.104189 0.157238
H44   H     H_    0.195386 0.168364 0.886262 0.148565
C85   C     C_R   0.267326 0.693029 0.991522 0.027397
C86   C     C_R   0.648930 0.734753 0.987560 -0.006571
C87   C     C_R   0.760667 0.185321 0.993367 0.019070
C88   C     C_R   0.183180 0.218132 0.998084 -0.040355
C89   C     C_R   0.385938 0.547173 0.458738 -0.163512
C90   C     C_R   0.389569 0.546667 0.368228 -0.171286
C91   C     C_R   0.108228 0.049446 0.630190 -0.166577
C92   C     C_R   0.111218 0.049531 0.539195 -0.152072
H45   H     H_    0.381683 0.585957 0.489395 0.114558
H46   H     H_    0.386968 0.585074 0.331218 0.124516
H47   H     H_    0.105622 0.088166 0.662261 0.107450
H48   H     H_    0.110447 0.088312 0.504613 0.106233
C93   C     C_R   0.408779 0.497802 0.336728 0.146255
C94   C     C_R   0.399576 0.498635 0.515619 0.139547
C95   C     C_R   0.103068 0.000412 0.486764 0.134274
C96   C     C_R   0.096070 0.000282 0.668230 0.144408
C97   C     C_R   0.402048 0.448664 0.378985 -0.164520
C98   C     C_R   0.396495 0.449044 0.467578 -0.163357
C99   C     C_R   0.111482 0.951256 0.539686 -0.151324
C100  C     C_R   0.108568 0.951219 0.630719 -0.161766
H49   H     H_    0.411772 0.409923 0.353263 0.121426
H50   H     H_    0.400966 0.410394 0.504693 0.134158
H51   H     H_    0.110657 0.912482 0.505370 0.133705
H52   H     H_    0.106119 0.912454 0.663105 0.115982
O1    O     O_3   0.979462 0.643416 0.310068 -0.653368
C101  C     C_3   0.899859 0.640956 0.198549 0.207749
H53   H     H_    0.838104 0.659695 0.190057 0.101747
H54   H     H_    0.882730 0.598299 0.168087 0.107846
C102  C     C_3   0.920709 0.673235 0.127060 -0.210149
H55   H     H_    0.912343 0.717311 0.135156 0.235751
H56   H     H_    0.994957 0.666001 0.156092 0.211443
C103  C     C_3   0.854587 0.656814 0.005406 -1.020259
H57   H     H_    0.872890 0.615477 0.993858 0.269412
H58   H     H_    0.862026 0.685853 0.953724 0.284139
H59   H     H_    0.779979 0.656559 0.977453 0.271997
O2    O     O_3   0.053603 0.599491 0.576608 -0.661784
C104  C     C_3   0.046757 0.651952 0.608759 0.190716
H60   H     H_    0.986363 0.674632 0.537218 0.119002
H61   H     H_    0.113477 0.675135 0.642945 0.098819
C105  C     C_3   0.030240 0.646445 0.698436 -0.343214
H62   H     H_    0.971712 0.617187 0.671093 0.222812
H63   H     H_    0.095458 0.630584 0.775626 0.206805
C106  C     C_3   0.004180 0.700750 0.722177 -0.842212
H64   H     H_    0.057061 0.732046 0.739417 0.283792
H65   H     H_    0.002357 0.696845 0.795246 0.280079
H66   H     H_    0.933240 0.713835 0.649691 0.280129
O3    O     O_3   0.452358 0.154331 0.347134 -0.664148
C107  C     C_3   0.425240 0.147117 0.237750 0.253873
H67   H     H_    0.380766 0.182425 0.188116 0.157410
H68   H     H_    0.381015 0.110525 0.195463 0.072190
C108  C     C_3   0.513370 0.146860 0.237966 -0.284897
H69   H     H_    0.555723 0.184130 0.279649 0.244916
H70   H     H_    0.558148 0.111157 0.284902 0.188352
C109  C     C_3   0.487129 0.144819 0.120669 -0.977361
H71   H     H_    0.441686 0.108989 0.075552 0.261699
H72   H     H_    0.552508 0.141760 0.124306 0.264639
H73   H     H_    0.449185 0.182389 0.075008 0.286701
O4    O     O_3   0.550588 0.089247 0.601760 -0.662947
C110  C     C_3   0.536574 0.137265 0.641998 0.200048
H74   H     H_    0.470149 0.158031 0.575404 0.122583
H75   H     H_    0.597290 0.165631 0.674340 0.110858
C111  C     C_3   0.528620 0.122521 0.736070 -0.331272
H76   H     H_    0.475060 0.089829 0.708240 0.218672
H77   H     H_    0.598004 0.107123 0.807923 0.206070
C112  C     C_3   0.499196 0.171377 0.772087 -0.883788
H78   H     H_    0.548450 0.205699 0.794109 0.295423
H79   H     H_    0.500678 0.160488 0.845521 0.262609
H80   H     H_    0.426298 0.184298 0.704084 0.275172
O5    O     O_3   0.292861 0.747406 0.875068 -0.691548
C113  C     C_3   0.362530 0.788892 0.921915 0.136790
H81   H     H_    0.431122 0.770087 0.949984 0.108399
H82   H     H_    0.374262 0.809282 0.996026 0.082304
C114  C     C_3   0.335933 0.831643 0.833406 -0.259873
H83   H     H_    0.320713 0.811569 0.757853 0.203263
H84   H     H_    0.270960 0.853296 0.810804 0.191830
C115  C     C_3   0.415464 0.872768 0.874092 -1.031737
H85   H     H_    0.433160 0.893026 0.950665 0.267163
H86   H     H_    0.392509 0.904132 0.809321 0.280631
H87   H     H_    0.479461 0.852250 0.891014 0.259255
O6    O     O_3   0.665971 0.769060 0.150927 -0.687539
C116  C     C_3   0.621736 0.815170 0.159114 0.118808
H88   H     H_    0.556003 0.801292 0.147968 0.105545
H89   H     H_    0.599507 0.846840 0.094532 0.097387
C117  C     C_3   0.686925 0.840517 0.274246 -0.237665
H90   H     H_    0.704863 0.809727 0.338304 0.211729
H91   H     H_    0.753780 0.854225 0.287862 0.212769
C118  C     C_3   0.639806 0.888847 0.287706 -1.008055
H92   H     H_    0.622483 0.920769 0.225652 0.270630
H93   H     H_    0.688816 0.906307 0.371896 0.279760
H94   H     H_    0.573848 0.875769 0.277090 0.260605
O7    O     O_3   0.790537 0.236165 0.876117 -0.673386
C119  C     C_3   0.860686 0.277291 0.919315 0.161713
H95   H     H_    0.926759 0.258208 0.939573 0.121142
H96   H     H_    0.879032 0.296236 0.997789 0.068535
C120  C     C_3   0.829317 0.321319 0.831434 -0.245797
H97   H     H_    0.810751 0.302368 0.753517 0.218280
H98   H     H_    0.765258 0.342183 0.813182 0.198847
C121  C     C_3   0.906774 0.363540 0.869435 -1.060837
H99   H     H_    0.928333 0.382118 0.948988 0.274957
H100  H     H_    0.880000 0.396028 0.805976 0.285895
H101  H     H_    0.969100 0.344425 0.879841 0.254527
O8    O     O_3   0.187451 0.271801 0.136630 -0.668749
C122  C     C_3   0.139237 0.321816 0.113361 0.142207
H102  H     H_    0.068765 0.312855 0.094781 0.126112
H103  H     H_    0.126540 0.344057 0.040336 0.080740
C123  C     C_3   0.194035 0.358582 0.215166 -0.257296
H104  H     H_    0.211761 0.336015 0.289711 0.222837
H105  H     H_    0.261146 0.371233 0.228786 0.187853
C124  C     C_3   0.137183 0.409112 0.200532 -1.000258
H106  H     H_    0.120159 0.432836 0.127415 0.270942
H107  H     H_    0.179377 0.435097 0.275339 0.281876
H108  H     H_    0.070378 0.397486 0.189297 0.261760
O9    O     O_3   0.455643 0.663426 0.190162 -0.700226
C125  C     C_3   0.541880 0.688594 0.224562 0.172618
H109  H     H_    0.541160 0.729835 0.254053 0.140927
H110  H     H_    0.550033 0.694821 0.156557 0.112400
C126  C     C_3   0.626192 0.657223 0.321641 -0.304822
H111  H     H_    0.609442 0.644149 0.379869 0.215547
H112  H     H_    0.639703 0.620567 0.289806 0.195893
C127  C     C_3   0.716268 0.691505 0.387117 -0.988166
H113  H     H_    0.734299 0.708238 0.332498 0.290507
H114  H     H_    0.776233 0.665971 0.451532 0.266656
H115  H     H_    0.707013 0.725464 0.428893 0.271084
O10   O     O_3   0.494406 0.664840 0.795262 -0.678820
C128  C     C_3   0.426490 0.702169 0.780428 0.194631
H116  H     H_    0.457412 0.743637 0.804804 0.112717
H117  H     H_    0.400006 0.690874 0.830091 0.094993
C129  C     C_3   0.341233 0.702546 0.658722 -0.298797
H118  H     H_    0.312550 0.660714 0.632810 0.176906
H119  H     H_    0.284680 0.728514 0.648888 0.167439
C130  C     C_3   0.367271 0.723995 0.583455 -0.829560
H120  H     H_    0.395339 0.766032 0.607525 0.244769
H121  H     H_    0.303237 0.724406 0.496327 0.240909
H122  H     H_    0.421326 0.697529 0.588698 0.271090
O11   O     O_3   0.944138 0.148818 0.195084 -0.680666
C131  C     C_3   0.013251 0.187686 0.218454 0.178907
H123  H     H_    0.983325 0.218615 0.150958 0.094234
H124  H     H_    0.075107 0.167549 0.228630 0.101485
C132  C     C_3   0.046751 0.216645 0.326275 -0.269938
H125  H     H_    0.984657 0.234050 0.319418 0.209723
H126  H     H_    0.081836 0.186965 0.395722 0.189438
C133  C     C_3   0.115999 0.262273 0.351412 -1.000258
H127  H     H_    0.178209 0.246057 0.357129 0.281972
H128  H     H_    0.140989 0.281556 0.431574 0.272076
H129  H     H_    0.080350 0.293627 0.285307 0.264004
O12   O     O_3   0.986495 0.166218 0.796280 -0.690125
C134  C     C_3   0.987733 0.221867 0.774738 0.163111
H130  H     H_    0.048974 0.230787 0.772473 0.127491
H131  H     H_    0.989762 0.247913 0.836972 0.095722
C135  C     C_3   0.897854 0.234867 0.660150 -0.250116
H132  H     H_    0.890806 0.205856 0.598593 0.208018
H133  H     H_    0.835091 0.229893 0.661486 0.205001
C136  C     C_3   0.899976 0.292485 0.623634 -1.011374
H134  H     H_    0.908678 0.322580 0.684240 0.277897
H135  H     H_    0.832509 0.300956 0.541777 0.288205
H136  H     H_    0.959356 0.297030 0.615890 0.264654
Cl1   Cl    Cl    0.524424 0.320221 0.221194 -0.723394
Cl2   Cl    Cl    0.475840 0.321714 0.776784 -0.755199
Cl3   Cl    Cl    0.957731 0.838690 0.219404 -0.744135
Cl4   Cl    Cl    0.963102 0.823000 0.776313 -0.743472

loop_
_geom_bond_atom_site_label_1
_geom_bond_atom_site_label_2
_geom_bond_distance
_ccdc_geom_bond_type
C101  H54   1.114178 S    
C118  H93   1.110428 S    
C70   H34   1.082431 S    
C14   N14   1.334560 A    
C107  C108  1.532918 S    
C72   H36   1.081744 S    
C125  H109  1.110740 S    
C14   C46   1.389634 A    
N14   Ni5   1.865172 S    
C78   H38   1.084004 S    
C25   C37   1.367478 A    
C101  C102  1.530766 S    
C27   C39   1.376136 A    
C122  H102  1.110470 S    
C115  H85   1.110949 S    
C123  H104  1.110158 S    
C102  H56   1.112242 S    
C73   C77   1.392660 A    
C113  H81   1.110632 S    
C131  C132  1.527432 S    
C76   C80   1.392199 A    
C26   H22   1.076330 S    
C67   C87   1.404299 A    
C75   C79   1.389722 A    
C4    N4    1.332286 A    
C69   H33   1.081809 S    
C71   C75   1.395079 A    
C18   C42   1.383065 A    
N12   N20   1.399713 A    
C62   H30   1.115546 S    
C20   C44   1.389537 A    
C133  H128  1.110376 S    
C134  H131  1.111596 S    
N8    N28   1.371551 A    
C63   O3    1.427016 S    
C127  H115  1.110423 S    
C84   H44   1.084084 S    
N4    Ni4   1.867706 S    
O12   C134  1.410084 S    
C31   Cl3   1.756299 S    
C11   N11   1.337070 A    
C98   H50   1.079448 S    
O3    C107  1.416625 S    
C12   N12   1.336619 A    
C9    C41   1.380094 A    
O11   C131  1.411590 S    
N6    N26   1.371551 A    
C111  H77   1.111463 S    
C61   H29   1.107960 S    
C33   C74   1.409494 S    
C89   C94   1.401396 A    
N7    Ni7   1.865811 S    
C1    H1    1.081721 S    
C16   N16   1.326400 A    
N17   Ni5   1.862654 S    
C120  H98   1.108932 S    
C104  H60   1.114121 S    
C135  C136  1.526722 S    
N19   Ni7   1.862654 S    
C12   C44   1.389488 A    
C23   H19   1.080316 S    
C32   N32   1.318120 A    
N5    Ni5   1.865811 S    
N13   N21   1.399955 A    
C21   H17   1.080088 S    
C55   C59   1.407931 A    
C31   C35   1.390126 A    
C15   C47   1.379920 A    
C115  H87   1.111072 S    
C24   H20   1.078638 S    
C45   C53   1.467512 S    
C126  H112  1.108593 S    
C91   C92   1.385624 A    
C38   C86   1.438199 S    
C65   O5    1.386041 S    
C3    N3    1.318820 A    
C28   C40   1.375718 A    
C20   H16   1.074338 S    
C103  H58   1.110770 S    
C136  H134  1.108727 S    
C132  H126  1.111570 S    
C81   H41   1.084099 S    
C117  H90   1.109500 S    
C10   C42   1.377753 A    
C25   N25   1.322326 A    
C27   N27   1.324574 A    
C59   C60   1.401110 A    
N10   N18   1.399713 A    
C116  H88   1.109490 S    
C77   C83   1.382927 A    
C78   C84   1.368995 A    
C107  H68   1.110892 S    
N1    Ni1   1.863291 S    
C51   C52   1.378161 A    
C19   C43   1.379130 A    
N18   Ni6   1.866968 S    
C2    C34   1.365792 A    
C114  H83   1.110365 S    
C54   C58   1.412569 A    
C135  H133  1.111240 S    
C23   N23   1.339711 A    
C129  C130  1.526639 S    
N3    N31   1.371549 A    
C15   N15   1.328378 A    
C112  H78   1.107647 S    
C43   C95   1.465512 S    
C81   C85   1.397571 A    
C131  H124  1.113808 S    
C17   N17   1.337954 A    
C82   H42   1.081755 S    
O5    C113  1.417818 S    
C32   Cl4   1.755041 S    
N21   Ni1   1.865193 S    
C51   C64   1.496636 S    
C104  H61   1.114189 S    
C29   Cl1   1.759314 S    
C8    C40   1.379544 A    
C49   C62   1.490332 S    
N4    N32   1.371550 A    
C79   H39   1.083642 S    
C80   H40   1.082467 S    
C109  H73   1.108720 S    
C52   C56   1.409831 A    
C127  H114  1.110709 S    
C57   H25   1.080596 S    
C128  H116  1.111641 S    
C64   O4    1.414766 S    
C130  H121  1.110379 S    
C59   H27   1.080963 S    
C7    O11   1.379812 S    
C64   H32   1.115365 S    
C136  H136  1.110899 S    
C36   C75   1.406691 S    
C109  H72   1.110489 S    
C121  H100  1.110258 S    
C117  C118  1.526155 S    
C49   C53   1.397407 A    
C110  H75   1.113758 S    
O1    C101  1.409867 S    
C51   C55   1.397803 A    
N10   Ni1   1.861929 S    
C84   C88   1.403938 A    
N29   Ni2   1.863745 S    
C122  H103  1.116654 S    
C61   C62   1.521409 S    
C9    H5    1.071752 S    
N2    N30   1.371550 A    
C116  C117  1.529905 S    
C10   N10   1.328522 A    
C12   H8    1.075044 S    
C119  H95   1.109792 S    
C121  H101  1.108635 S    
C97   H49   1.079125 S    
C21   C45   1.386307 A    
C125  H110  1.111648 S    
C5    N5    1.337629 A    
C100  H52   1.080601 S    
C114  C115  1.525151 S    
C23   C47   1.385586 A    
C28   N28   1.330999 A    
C66   C72   1.398826 A    
C108  C109  1.525253 S    
C6    O10   1.382649 S    
C67   C69   1.371680 A    
C5    O9    1.387251 S    
C115  H86   1.110370 S    
C30   Cl2   1.754659 S    
N26   Ni5   1.862120 S    
C123  H105  1.106988 S    
C102  H55   1.112036 S    
C130  H122  1.110828 S    
N2    Ni2   1.867706 S    
C92   H48   1.080464 S    
C106  H66   1.110990 S    
O2    C104  1.408528 S    
C125  C126  1.535469 S    
N15   N23   1.399955 A    
O4    C110  1.411926 S    
C124  H108  1.111050 S    
C32   C36   1.362164 A    
C48   C56   1.470204 S    
C24   C48   1.399936 A    
C29   N29   1.322848 A    
O7    C119  1.417817 S    
C22   H18   1.076871 S    
C122  C123  1.528926 S    
C31   N31   1.341033 A    
C120  C121  1.524633 S    
C123  C124  1.526164 S    
C120  H97   1.109415 S    
C8    O12   1.394470 S    
C79   C81   1.377280 A    
C7    N7    1.333987 A    
C113  C114  1.529892 S    
C37   C85   1.405788 S    
N27   Ni8   1.866535 S    
C13   C45   1.387553 A    
C26   C38   1.384168 A    
C68   C70   1.379843 A    
C128  C129  1.529151 S    
C3    H3    1.078881 S    
C7    C39   1.380255 A    
C35   C76   1.433383 S    
C66   C86   1.407093 A    
C3    C35   1.372844 A    
C94   C98   1.402078 A    
N8    Ni8   1.863856 S    
C105  H62   1.111944 S    
C134  C135  1.528615 S    
N12   Ni3   1.861929 S    
C67   O7    1.387873 S    
C25   H21   1.080049 S    
C22   C46   1.398415 A    
C83   C87   1.399032 A    
C90   H46   1.081243 S    
C4    H4    1.081683 S    
C60   H28   1.081542 S    
C29   C33   1.362524 A    
C129  H119  1.111004 S    
C101  H53   1.108422 S    
C118  H94   1.110950 S    
C134  H130  1.108072 S    
C119  C120  1.531458 S    
C113  H82   1.117824 S    
C132  H125  1.111923 S    
C1    N1    1.329029 A    
C108  H69   1.111735 S    
N32   Ni3   1.865702 S    
C19   H15   1.076730 S    
C30   N30   1.325571 A    
C13   H9    1.076473 S    
C5    C37   1.371203 A    
C42   C94   1.458307 S    
C102  C103  1.526343 S    
C15   H11   1.078734 S    
C130  H120  1.110923 S    
C126  H111  1.110919 S    
C95   C99   1.403317 A    
C106  H64   1.108745 S    
C82   C86   1.396548 A    
C17   H13   1.062199 S    
C18   N18   1.336183 A    
N5    N25   1.371548 A    
N7    N27   1.371548 A    
C57   C58   1.401483 A    
C50   C61   1.512050 S    
C63   C64   1.518392 S    
O6    C116  1.418869 S    
C117  H91   1.110378 S    
C49   C50   1.379850 A    
C133  H127  1.111070 S    
N6    Ni6   1.863856 S    
C21   N21   1.334861 A    
C30   C34   1.367041 A    
C13   N13   1.332422 A    
C70   C74   1.401277 A    
C99   C100  1.385380 A    
C97   C98   1.377640 A    
C9    N9    1.332628 A    
C105  C106  1.520995 S    
N28   Ni7   1.862120 S    
C68   O8    1.387527 S    
C77   H37   1.083462 S    
C111  H76   1.111772 S    
C44   C96   1.465935 S    
N16   Ni7   1.865172 S    
C24   N24   1.342992 A    
C72   C76   1.396855 A    
C10   H6    1.073044 S    
O8    C122  1.416089 S    
N11   N19   1.399711 A    
C39   C87   1.420967 S    
C6    C38   1.371066 A    
C91   C96   1.402833 A    
C4    C36   1.370156 A    
C133  H129  1.110727 S    
C92   C95   1.402719 A    
C11   C43   1.379988 A    
C26   N26   1.342280 A    
N11   Ni4   1.866243 S    
C6    N6    1.315126 A    
C28   H24   1.081617 S    
C69   C73   1.388871 A    
C89   C90   1.385343 A    
C71   H35   1.084170 S    
C132  C133  1.524892 S    
O10   C128  1.411274 S    
C126  C127  1.527154 S    
C63   H31   1.109860 S    
C111  C112  1.525191 S    
C53   C57   1.408477 A    
C22   N22   1.339735 A    
N31   Ni4   1.863745 S    
C110  H74   1.113809 S    
C103  H57   1.111153 S    
C136  H135  1.110379 S    
C11   H7    1.075829 S    
C65   C85   1.396324 A    
C46   C54   1.478621 S    
C8    N8    1.322168 A    
N1    N29   1.371549 A    
C65   C71   1.370728 A    
C80   C82   1.357431 A    
C68   C88   1.393923 A    
C2    H2    1.081570 S    
N22   Ni2   1.863338 S    
C34   C73   1.413773 S    
C90   C93   1.403244 A    
C112  H80   1.110776 S    
C116  H89   1.115697 S    
C16   H12   1.067942 S    
C107  H67   1.110157 S    
C119  H96   1.117866 S    
C40   C88   1.415156 S    
C93   C97   1.398750 A    
C91   H47   1.080564 S    
O9    C125  1.413900 S    
C96   C100  1.402431 A    
C114  H84   1.111009 S    
C58   H26   1.080435 S    
C83   H43   1.083557 S    
C135  H132  1.112042 S    
C108  H70   1.110062 S    
C89   H45   1.081033 S    
C112  H79   1.110443 S    
C50   C54   1.410740 A    
C131  H123  1.116585 S    
C106  H65   1.110488 S    
N13   Ni6   1.863317 S    
C124  H107  1.110549 S    
N3    Ni3   1.863291 S    
N9    Ni2   1.866243 S    
N16   N24   1.399957 A    
N30   Ni1   1.865702 S    
N15   Ni8   1.863317 S    
C118  H92   1.110842 S    
C2    N2    1.332822 A    
C62   O2    1.412779 S    
C19   N19   1.335886 A    
C104  C105  1.526904 S    
C20   N20   1.336908 A    
C129  H118  1.110978 S    
C1    C33   1.374758 A    
C14   H10   1.065614 S    
C99   H51   1.080412 S    
C47   C55   1.461532 S    
C61   O1    1.417034 S    
C41   C93   1.458288 S    
C18   H14   1.077323 S    
C16   C48   1.382086 A    
C127  H113  1.107286 S    
C128  H117  1.110891 S    
C17   C41   1.382920 A    
C27   H23   1.079220 S    
N23   Ni3   1.865193 S    
C52   C63   1.518439 S    
N9    N17   1.399711 A    
C103  H59   1.108381 S    
C109  H71   1.110847 S    
C66   O6    1.387302 S    
C121  H99   1.110958 S    
C110  C111  1.528487 S    
C105  H63   1.111419 S    
C74   C78   1.383617 A    
N14   N22   1.399957 A    
N24   Ni4   1.863338 S    
C124  H106  1.110847 S    
N25   Ni6   1.866535 S    
N20   Ni8   1.866968 S    
C56   C60   1.409024 A    
