data_mof_unit_42742.cif
_audit_creation_date              2012-12-11T18:04:41-0500
_audit_creation_method            fapswitch 2.2
_symmetry_space_group_name_H-M    P1
_symmetry_Int_Tables_number       1
_space_group_crystal_system       triclinic
_cell_length_a                    8.384905
_cell_length_b                    12.751883
_cell_length_c                    22.778205
_cell_angle_alpha                 96.669067
_cell_angle_beta                  88.404631
_cell_angle_gamma                 98.283623
_cell_volume                      2393.65076001

loop_
_atom_site_label
_atom_site_type_symbol
_atom_type_description
_atom_site_fract_x
_atom_site_fract_y
_atom_site_fract_z
_atom_type_partial_charge
Ba1   Ba    Ba6+2 0.856210 0.551220 0.472190 1.633279
Ba2   Ba    Ba6+2 0.333620 0.448870 0.527810 1.635206
C1    C     C_3   0.609720 0.917327 0.296561 -0.294750
C2    C     C_3   0.599928 0.814765 0.325278 0.324405
C3    C     C_3   0.476146 0.283427 0.347356 0.282885
C4    C     C_3   0.464974 0.249566 0.281159 -0.367102
C5    C     C_3   0.089252 0.188351 0.690084 0.290354
C6    C     C_3   0.018932 0.218145 0.750847 -0.335710
C7    C     C_3   0.506485 0.209425 0.729335 0.416459
C8    C     C_3   0.502357 0.241233 0.796211 -0.348100
C9    C     C_R   0.350121 0.503791 0.325937 -0.284468
C10   C     C_R   0.086237 0.617166 0.942927 -0.025651
C11   C     C_R   0.039026 0.615411 0.883190 0.584055
C12   C     C_3   0.102890 0.780075 0.315935 0.331438
C13   C     C_R   0.920654 0.432434 0.881345 0.580641
C14   C     C_R   0.967133 0.431391 0.940776 -0.022201
C15   C     C_R   0.050411 0.524355 0.971713 -0.051165
C16   C     C_R   0.168877 0.709596 0.974664 -0.077747
C17   C     C_R   0.214998 0.709761 0.033434 -0.075356
C18   C     C_R   0.181049 0.617342 0.062692 -0.021241
C19   C     C_R   0.098506 0.524325 0.031578 -0.050980
C20   C     C_R   0.933325 0.338942 0.969918 -0.080233
C21   C     C_R   0.981565 0.338688 0.028314 -0.075010
C22   C     C_R   0.064622 0.431057 0.059979 -0.026917
C23   C     C_3   0.093546 0.814073 0.254552 -0.318629
C24   C     C_R   0.115384 0.431614 0.119094 0.589535
C25   C     C_R   0.227690 0.616147 0.122215 0.577317
C26   C     C_2   0.757767 0.505508 0.772311 -0.075941
C27   C     C_3   0.714393 0.504852 0.706816 -0.056326
C28   C     C_1   0.003315 0.534384 0.687741 0.013613
C29   C     C_2   0.043807 0.536433 0.743880 -0.147795
C30   C     C_2   0.914437 0.521609 0.790347 0.234022
C31   C     C_R   0.406144 0.563062 0.229760 -0.105773
C32   C     C_R   0.456557 0.554964 0.287488 -0.010814
C33   C     C_R   0.188650 0.472386 0.312576 0.045882
C34   C     C_3   0.062049 0.780457 0.669987 0.247557
C35   C     C_R   0.136669 0.479463 0.254752 -0.090995
C36   C     C_R   0.245735 0.522689 0.211687 0.205370
C37   C     C_2   0.859906 0.493200 0.667891 -0.193939
C38   C     C_R   0.764516 0.177837 0.513921 -0.230423
C39   C     C_R   0.399389 0.824407 0.501154 -0.206445
C40   C     C_R   0.394181 0.993663 0.464655 -0.096539
C41   C     C_R   0.319841 0.890692 0.470738 0.021975
C42   C     C_R   0.562308 0.854137 0.517521 0.016665
C43   C     C_R   0.634486 0.961657 0.515028 -0.027340
C44   C     C_R   0.547006 0.032408 0.489179 -0.005428
C45   C     C_3   0.134713 0.824732 0.729779 -0.398334
C46   C     C_R   0.615480 0.140399 0.488697 0.092692
C47   C     C_R   0.854559 0.109315 0.536196 0.075719
C48   C     C_R   0.788567 0.002251 0.538715 -0.016339
C49   C     C_3   0.960295 0.216495 0.396592 0.248890
C50   C     C_3   0.970511 0.098021 0.380503 0.416890
C51   C     C_3   0.571746 0.725067 0.651945 0.250372
C52   C     C_3   0.590870 0.761961 0.717635 -0.410798
H1    H     H_    0.640343 0.834827 0.371855 0.088360
H2    H     H_    0.241948 0.884783 0.723771 0.108669
H3    H     H_    0.044510 0.863258 0.757986 0.110511
H4    H     H_    0.172163 0.759571 0.752078 0.150424
H5    H     H_    0.832745 0.229245 0.399550 0.043999
H6    H     H_    0.021945 0.243898 0.439379 0.004465
H7    H     H_    0.967491 0.077222 0.331786 0.054755
H8    H     H_    0.085131 0.078804 0.396790 0.035977
H9    H     H_    0.569822 0.637574 0.645044 0.077635
H10   H     H_    0.459921 0.750196 0.637723 0.068007
H11   H     H_    0.539523 0.973728 0.323271 0.115030
H12   H     H_    0.596588 0.849985 0.725734 0.123370
H13   H     H_    0.702616 0.738842 0.734163 0.107237
H14   H     H_    0.486134 0.724248 0.742362 0.093243
H15   H     H_    0.471582 0.777683 0.324324 -0.048630
H16   H     H_    0.559103 0.899816 0.251361 0.113384
H17   H     H_    0.355999 0.300842 0.363925 0.034929
H18   H     H_    0.568205 0.355452 0.355037 0.050026
H19   H     H_    0.373589 0.177560 0.272250 0.130410
H20   H     H_    0.429142 0.314592 0.258261 0.080697
H21   H     H_    0.583743 0.231183 0.263354 0.128741
H22   H     H_    0.736959 0.954906 0.293514 0.141106
H23   H     H_    0.048064 0.743722 0.223036 0.118687
H24   H     H_    0.156086 0.119883 0.692265 0.016653
H25   H     H_    0.168567 0.259881 0.677587 0.096366
H26   H     H_    0.117667 0.247974 0.782632 0.084481
H27   H     H_    0.942869 0.281895 0.748440 0.177709
H28   H     H_    0.944514 0.147532 0.766741 0.119020
H29   H     H_    0.388113 0.211835 0.711546 0.024940
H30   H     H_    0.613386 0.224881 0.816549 0.165745
H31   H     H_    0.397177 0.194238 0.816251 0.055218
H32   H     H_    0.981490 0.741880 0.328275 0.128055
H33   H     H_    0.490916 0.326925 0.806561 0.132912
H34   H     H_    0.953225 0.265481 0.048660 0.122454
H35   H     H_    0.869752 0.265928 0.947504 0.116258
H36   H     H_    0.278174 0.782856 0.055891 0.121352
H37   H     H_    0.491818 0.599551 0.199132 0.119999
H38   H     H_    0.198367 0.782502 0.954106 0.119690
H39   H     H_    0.169759 0.547479 0.756151 0.103034
H40   H     H_    0.661345 0.497671 0.804943 0.073017
H41   H     H_    0.013050 0.449687 0.242970 0.132153
H42   H     H_    0.395180 0.487016 0.366904 0.011916
H43   H     H_    0.189345 0.721451 0.314759 -0.017656
H44   H     H_    0.846952 0.446194 0.624837 0.072166
H45   H     H_    0.331511 0.041861 0.439922 0.085678
H46   H     H_    0.855040 0.953959 0.562039 0.084608
H47   H     H_    0.812514 0.261642 0.515606 0.033669
H48   H     H_    0.009780 0.874178 0.255013 0.122743
H49   H     H_    0.214913 0.849282 0.239863 0.141218
H50   H     H_    0.032234 0.848329 0.647954 0.085957
H51   H     H_    0.946472 0.728123 0.675920 0.020502
N1    N     N_R   0.956872 0.523562 0.852784 -0.421871
N2    N     N_R   0.194892 0.523866 0.150314 -0.422458
O1    O     O_2   0.890290 0.440320 0.360790 -0.461757
O2    O     O_3   0.702633 0.772176 0.620960 -0.645157
O3    O     O_3   0.154070 0.870139 0.355865 -0.626022
O4    O     O_2   0.299410 0.559720 0.639240 -0.506043
O5    O     O_3   0.058870 0.558650 0.568170 -0.475896
O6    O     O_3   0.517310 0.362160 0.604450 -0.451633
O7    O     O_3   0.176337 0.731227 0.634450 -0.644185
O8    O     O_3   0.614910 0.369290 0.471050 -0.484980
O9    O     O_3   0.099190 0.306290 0.575790 -0.471924
O10   O     O_2   0.180501 0.106644 0.568754 -0.532690
O11   O     O_3   0.964204 0.155982 0.650208 -0.613951
O12   O     O_3   0.130840 0.441440 0.431840 -0.514665
O13   O     O_3   0.574800 0.630800 0.528960 -0.516023
O14   O     O_2   0.344900 0.234690 0.472540 -0.497871
O15   O     O_3   0.521242 0.200069 0.374855 -0.638537
O16   O     O_2   0.391511 0.401798 0.713371 -0.551239
O17   O     O_3   0.626107 0.277348 0.702040 -0.595786
O18   O     O_2   0.070256 0.696081 0.858501 -0.613412
O19   O     O_2   0.849502 0.351406 0.854848 -0.629598
O20   O     O_2   0.090774 0.349010 0.142321 -0.597460
O21   O     O_2   0.296538 0.697910 0.149007 -0.617554
O22   O     O_3   0.672400 0.637930 0.395560 -0.490723
O23   O     O_2   0.793475 0.562104 0.291200 -0.499138
O24   O     O_3   0.034167 0.270176 0.351117 -0.670984
O25   O     O_3   0.699907 0.747474 0.293975 -0.605027
O26   O     O_2   0.844800 0.765340 0.527490 -0.439823
O27   O     O_3   0.090520 0.693800 0.424220 -0.530815
O28   O     O_2   0.984059 0.881990 0.452890 -0.428339
P1    P     P_3+3 0.057140 0.408270 0.369700 0.975637
P2    P     P_3+3 0.667360 0.749400 0.544670 0.973186
P3    P     P_3+3 0.134500 0.834286 0.427937 0.956178
P4    P     P_3+3 0.132580 0.591820 0.630310 0.958989
P5    P     P_3+3 0.034450 0.169249 0.577912 0.944554
P6    P     P_3+3 0.654181 0.620689 0.317601 0.935751
P7    P     P_3+3 0.525229 0.235963 0.451350 0.940963
P8    P     P_3+3 0.555178 0.391641 0.681154 0.949857
F1    F     F_    0.842475 0.036329 0.404700 -0.751761
C53   C     C_3   0.541872 0.093909 0.716560 -0.211348
C54   C     C_3   0.514354 0.050609 0.651871 -0.384877
H52   H     H_    0.554556 0.971008 0.643298 0.109560
H53   H     H_    0.384467 0.041852 0.641307 0.133276
H54   H     H_    0.583503 0.105239 0.622808 0.148523
H55   H     H_    0.668772 0.089999 0.727876 0.142962
H56   H     H_    0.462079 0.041397 0.744154 0.061198
C55   C     C_3   0.319406 0.713177 0.504503 -0.145343
C56   C     C_3   0.367041 0.646420 0.447174 -0.173461
H57   H     H_    0.411033 0.696471 0.411815 -0.006467
H58   H     H_    0.442972 0.585090 0.450228 0.159037
H59   H     H_    0.267666 0.594605 0.428977 0.137828
H60   H     H_    0.342741 0.682950 0.545813 0.120990
H61   H     H_    0.189340 0.711872 0.513189 0.152710

loop_
_geom_bond_atom_site_label_1
_geom_bond_atom_site_label_2
_ccdc_geom_bond_type
C9    H42   S    
O28   P3    D    
C32   P6    S    
O26   P2    D    
C42   P2    S    
C17   C18   A    
O5    P4    S    
C34   O7    S    
C53   C54   S    
O4    P4    D    
C5    C6    S    
C2    O25   S    
C39   C55   S    
C51   C52   S    
Ba2   O5    S    
C50   F1    S    
C34   C45   S    
C23   H23   S    
Ba2   P4    S    
C8    H31   S    
C26   H40   S    
C26   C27   S    
C33   C35   A    
C22   C24   A    
O1    P1    D    
C3    H18   S    
Ba1   O22   S    
C50   H7    S    
C31   H37   S    
Ba1   O5    S    
C40   C44   A    
C28   C29   D    
C51   H10   S    
O11   P5    S    
C23   H48   S    
O22   P6    S    
C13   C14   A    
C27   P8    S    
C7    O17   S    
C35   H41   S    
C41   P3    S    
O2    P2    S    
Ba1   Ba2   S    
Ba1   O12   S    
C8    H30   S    
C36   N2    S    
O23   P6    D    
C38   H47   S    
Ba2   O9    S    
C14   C15   A    
C13   O19   D    
C10   C15   A    
C21   C22   A    
O17   P8    S    
C56   H58   S    
Ba1   P1    S    
C7    C8    S    
C53   H55   S    
C11   O18   D    
O8    P7    S    
C30   N1    S    
C39   C41   A    
C5    O11   S    
C1    H11   S    
Ba1   O26   S    
C2    H15   S    
C4    H20   S    
C54   H53   S    
C12   H43   S    
C8    H33   S    
C55   H61   S    
Ba2   O4    S    
C6    H27   S    
C26   C30   D    
C1    H16   S    
O6    P8    S    
C12   H32   S    
O24   P1    S    
Ba2   O13   S    
C16   C17   A    
C37   H44   S    
C52   H13   S    
C29   H39   S    
C3    O15   S    
C15   C19   A    
C49   C50   S    
Ba1   O13   S    
C24   N2    Am   
C35   C36   A    
C45   H3    S    
C54   H54   S    
Ba2   O8    S    
C29   C30   S    
C25   N2    Am   
C27   C37   S    
C31   C32   A    
C46   P7    S    
O7    P4    S    
C10   C11   A    
C56   H59   S    
C1    H22   S    
C25   O21   D    
C53   H56   S    
C7    H29   S    
C5    H24   S    
O3    P3    S    
C55   C56   S    
C21   H34   S    
C2    H1    S    
C39   C42   A    
C6    H28   S    
C19   C22   A    
O10   P5    D    
C49   H5    S    
C40   C41   A    
O15   P7    S    
C10   C16   A    
C1    C2    S    
Ba1   O27   S    
Ba1   P2    S    
C42   C43   A    
C13   N1    Am   
C4    H19   S    
C5    H25   S    
C54   H52   S    
Ba2   O14   S    
C51   O2    S    
O25   P6    S    
C38   C46   A    
C55   H60   S    
C14   C20   A    
C28   P4    S    
C34   H51   S    
O14   P7    D    
C9    C32   A    
C23   H49   S    
O12   P1    S    
C11   N1    Am   
C33   P1    S    
O27   P3    S    
Ba2   O12   S    
C52   H12   S    
C18   C25   A    
C48   H46   S    
C31   C36   A    
C34   H50   S    
C16   H38   S    
C9    C33   A    
C3    H17   S    
C17   H36   S    
C50   H8    S    
C40   H45   S    
C45   H4    S    
C51   H9    S    
C3    C4    S    
C43   C48   A    
C12   O3    S    
C7    C53   S    
Ba2   O6    S    
C20   H35   S    
C28   C37   D    
C24   O20   D    
C12   C23   S    
Ba1   O1    S    
C44   C46   A    
C43   C44   A    
C52   H14   S    
C18   C19   A    
O13   P2    S    
C49   O24   S    
C47   C48   A    
C47   P5    S    
O16   P8    D    
C6    H26   S    
C20   C21   A    
C49   H6    S    
Ba1   O8    S    
C56   H57   S    
C38   C47   A    
C45   H2    S    
O9    P5    S    
C4    H21   S    
