data_mof_unit_28522.cif
_audit_creation_date              2012-12-10T19:47:48-0500
_audit_creation_method            fapswitch 2.2
_symmetry_space_group_name_H-M    P1
_symmetry_Int_Tables_number       1
_space_group_crystal_system       triclinic
_cell_length_a                    18.242908
_cell_length_b                    18.242935
_cell_length_c                    21.709151
_cell_angle_alpha                 89.999227
_cell_angle_beta                  89.998955
_cell_angle_gamma                 89.999928
_cell_volume                      7224.89630058

loop_
_atom_site_label
_atom_site_type_symbol
_atom_type_description
_atom_site_fract_x
_atom_site_fract_y
_atom_site_fract_z
_atom_type_partial_charge
C1    C     C_R   1.000000 0.358717 0.999999 0.909761
C2    C     C_1   0.282222 1.000000 0.999999 -0.227738
C3    C     C_3   0.180189 0.174497 0.862371 -0.759283
C4    C     C_3   0.135722 0.747092 0.851432 0.093527
C5    C     C_3   0.174486 0.819763 0.862459 -0.759238
C6    C     C_3   0.747097 0.864280 0.851426 0.093527
C7    C     C_3   0.819766 0.825511 0.862454 -0.759197
C8    C     C_3   0.864273 0.747097 0.148575 0.093490
C9    C     C_3   0.825499 0.819764 0.137547 -0.759096
C10   C     C_3   0.252945 0.864276 0.148476 0.093467
C11   C     C_3   0.180255 0.825553 0.137437 -0.759135
C12   C     C_3   0.135668 0.252810 0.148705 0.093671
C13   C     C_1   1.000000 0.717778 0.000001 -0.227723
C14   C     C_3   0.174499 0.180172 0.137685 -0.759329
C15   C     C_3   0.746761 0.135910 0.148082 0.093025
C16   C     C_3   0.819565 0.174426 0.137054 -0.758702
C17   C     C_3   0.364438 0.752633 0.351054 0.093950
C18   C     C_3   0.325477 0.680068 0.362089 -0.759634
C19   C     C_3   0.752874 0.635701 0.351397 0.093590
C20   C     C_3   0.680214 0.674487 0.362426 -0.759322
C21   C     C_3   0.635608 0.247321 0.351066 0.093840
C22   C     C_3   0.674541 0.319906 0.362073 -0.759567
C23   C     C_3   0.247127 0.364314 0.351407 0.093589
C24   C     C_1   0.717778 0.000001 0.000002 -0.227795
C25   C     C_3   0.319796 0.325545 0.362431 -0.759337
C26   C     C_3   0.364285 0.247106 0.648578 0.093552
C27   C     C_3   0.325514 0.319775 0.637553 -0.759236
C28   C     C_3   0.752880 0.364289 0.648618 0.093555
C29   C     C_3   0.680217 0.325506 0.637597 -0.759198
C30   C     C_3   0.635717 0.752896 0.648585 0.093534
C31   C     C_3   0.674489 0.680228 0.637560 -0.759228
C32   C     C_3   0.247127 0.635704 0.648608 0.093560
C33   C     C_3   0.319786 0.674493 0.637582 -0.759198
C34   C     C_1   0.500001 0.782222 0.500000 -0.227656
C35   C     C_1   0.782222 0.500000 0.499999 -0.227707
C36   C     C_1   0.499999 0.217778 0.500002 -0.227657
C37   C     C_1   0.217777 0.500000 0.500001 -0.227718
C38   C     C_R   0.000001 0.500000 0.879840 0.876008
C39   C     C_R   0.499999 0.000000 0.879839 0.876034
C40   C     C_R   0.999999 0.499999 0.120160 0.875997
C41   C     C_R   0.358717 1.000000 0.000000 0.909769
C42   C     C_R   0.499998 0.999999 0.120159 0.876062
C43   C     C_R   0.500001 0.000002 0.379838 0.875909
C44   C     C_R   0.999999 0.500001 0.379840 0.875973
C45   C     C_R   0.499999 0.999999 0.620160 0.875938
C46   C     C_R   0.999999 0.499999 0.620161 0.875968
C47   C     C_R   0.085047 0.606474 0.812571 -0.392813
C48   C     C_R   0.606473 0.914952 0.812573 -0.392805
C49   C     C_R   0.914958 0.393522 0.812578 -0.392823
C50   C     C_R   0.393530 0.085055 0.812573 -0.392726
C51   C     C_R   0.085059 0.393536 0.187428 -0.392687
C52   C     C_R   1.000000 0.641283 0.000000 0.909757
C53   C     C_R   0.606515 0.084996 0.187414 -0.393198
C54   C     C_R   0.914946 0.606470 0.187426 -0.392814
C55   C     C_R   0.393500 0.914984 0.187424 -0.392871
C56   C     C_R   0.585102 0.106430 0.312561 -0.392550
C57   C     C_R   0.106481 0.414962 0.312575 -0.392774
C58   C     C_R   0.414918 0.893554 0.312572 -0.392472
C59   C     C_R   0.893526 0.585050 0.312574 -0.392781
C60   C     C_R   0.585050 0.893528 0.687427 -0.392792
C61   C     C_R   0.106470 0.585052 0.687424 -0.392759
C62   C     C_R   0.414951 0.106474 0.687424 -0.392786
C63   C     C_R   0.641283 0.000000 0.000001 0.909741
C64   C     C_R   0.893533 0.414942 0.687431 -0.392773
C65   C     C_R   0.135908 0.650855 0.780958 0.482202
C66   C     C_R   0.650852 0.864090 0.780962 0.482206
C67   C     C_R   0.864096 0.349141 0.780970 0.482202
C68   C     C_R   0.349154 0.135916 0.780961 0.482148
C69   C     C_R   0.135924 0.349166 0.219040 0.482132
C70   C     C_R   0.650928 0.135847 0.219021 0.482357
C71   C     C_R   0.864084 0.650848 0.219037 0.482195
C72   C     C_R   0.349104 0.864134 0.219038 0.482102
C73   C     C_R   0.635980 0.150777 0.280948 0.482237
C74   C     C_R   0.500000 0.858717 0.500000 0.909742
C75   C     C_R   0.150865 0.364106 0.280963 0.482152
C76   C     C_R   0.364050 0.849199 0.280959 0.482017
C77   C     C_R   0.849147 0.635910 0.280963 0.482193
C78   C     C_R   0.635912 0.849151 0.719038 0.482219
C79   C     C_R   0.150846 0.635915 0.719033 0.482202
C80   C     C_R   0.364091 0.150855 0.719036 0.482169
C81   C     C_R   0.849157 0.364080 0.719045 0.482211
C82   C     C_R   0.140915 1.000000 1.000000 0.918222
C83   C     C_R   1.000000 0.859085 0.000000 0.918178
C84   C     C_R   0.859084 0.000000 0.000000 0.918045
C85   C     C_R   0.858717 0.500000 0.500000 0.909736
C86   C     C_R   1.000000 0.140915 1.000000 0.918147
C87   C     C_R   0.640915 0.500000 0.499999 0.918356
C88   C     C_R   0.500000 0.359085 0.500000 0.918378
C89   C     C_R   0.359085 0.500000 0.500000 0.918348
C90   C     C_R   0.500000 0.640915 0.500000 0.918381
C91   C     C_R   0.050602 0.545162 0.718013 0.028493
C92   C     C_R   0.545162 0.949399 0.718014 0.028506
C93   C     C_R   0.949402 0.454832 0.718016 0.028495
C94   C     C_R   0.454838 0.050603 0.718013 0.028509
C95   C     C_R   0.050606 0.454844 0.281987 0.028508
C96   C     C_R   0.500000 0.141283 0.500001 0.909738
C97   C     C_R   0.545189 0.050579 0.281979 0.028384
C98   C     C_R   0.949397 0.545163 0.281986 0.028493
C99   C     C_R   0.454824 0.949412 0.281984 0.028371
C100  C     C_R   0.550625 0.045137 0.218007 0.028715
C101  C     C_R   0.045166 0.449403 0.218015 0.028449
C102  C     C_R   0.449385 0.954853 0.218012 0.028501
C103  C     C_R   0.954835 0.550601 0.218014 0.028507
C104  C     C_R   0.550602 0.954839 0.781986 0.028515
C105  C     C_R   0.045162 0.550602 0.781985 0.028510
C106  C     C_R   0.449399 0.045165 0.781985 0.028459
C107  C     C_R   0.141283 0.500000 0.500000 0.909736
C108  C     C_R   0.954843 0.449393 0.781988 0.028516
C109  C     C_R   0.000001 0.499998 0.686307 -0.101885
C110  C     C_R   0.499999 1.000000 0.686306 -0.101862
C111  C     C_R   0.000000 0.500002 0.313694 -0.101861
C112  C     C_R   0.500004 0.999998 0.313691 -0.101900
C113  C     C_R   0.500002 0.999997 0.186304 -0.101865
C114  C     C_R   0.999999 0.500000 0.186307 -0.101903
C115  C     C_R   0.500000 0.000002 0.813693 -0.101903
C116  C     C_R   0.000002 0.499998 0.813694 -0.101884
C117  C     C_1   0.999999 0.217404 0.999999 -0.214375
C118  C     C_1   1.000000 0.282222 0.999999 -0.227706
C119  C     C_1   0.217404 1.000000 0.999999 -0.214377
C120  C     C_1   0.000000 0.782596 0.000001 -0.214374
C121  C     C_1   0.782596 0.000001 0.000002 -0.214397
C122  C     C_1   0.500001 0.717404 0.499999 -0.214364
C123  C     C_1   0.717404 0.500000 0.499999 -0.214373
C124  C     C_1   0.499999 0.282596 0.500001 -0.214359
C125  C     C_1   0.282596 0.500000 0.500001 -0.214374
C126  C     C_3   0.864272 0.252915 0.851458 0.093516
C127  C     C_3   0.825505 0.180247 0.862497 -0.759257
C128  C     C_3   0.252828 0.135675 0.851334 0.093632
H1    H     H_    0.076978 0.616195 0.861052 0.169701
H2    H     H_    0.116202 0.423030 0.361055 0.169715
H3    H     H_    0.422964 0.883816 0.361054 0.169937
H4    H     H_    0.883805 0.576985 0.361055 0.169729
H5    H     H_    0.576981 0.883805 0.638947 0.169709
H6    H     H_    0.116194 0.576985 0.638943 0.169735
H7    H     H_    0.423018 0.116194 0.638943 0.169714
H8    H     H_    0.883809 0.423007 0.638950 0.169732
H9    H     H_    0.869124 0.281293 0.896591 0.153215
H10   H     H_    0.919982 0.240764 0.832857 0.137433
H11   H     H_    0.820226 0.149685 0.818474 0.257628
H12   H     H_    0.616195 0.923022 0.861053 0.169715
H13   H     H_    0.857527 0.146616 0.895570 0.217058
H14   H     H_    0.770033 0.190024 0.881927 0.256223
H15   H     H_    0.281131 0.130664 0.896487 0.153163
H16   H     H_    0.240641 0.080029 0.832615 0.137389
H17   H     H_    0.149705 0.179946 0.818325 0.257632
H18   H     H_    0.146466 0.142415 0.895337 0.217156
H19   H     H_    0.190001 0.229897 0.881929 0.256252
H20   H     H_    0.130864 0.718724 0.896570 0.153224
H21   H     H_    0.080014 0.759237 0.832825 0.137425
H22   H     H_    0.179768 0.850316 0.818431 0.257604
H23   H     H_    0.923029 0.383802 0.861059 0.169698
H24   H     H_    0.142459 0.853402 0.895524 0.217081
H25   H     H_    0.229955 0.809993 0.881893 0.256248
H26   H     H_    0.718736 0.869151 0.896566 0.153230
H27   H     H_    0.759246 0.919983 0.832808 0.137421
H28   H     H_    0.850312 0.820216 0.818424 0.257606
H29   H     H_    0.853411 0.857541 0.895510 0.217093
H30   H     H_    0.809992 0.770046 0.881899 0.256251
H31   H     H_    0.869152 0.718739 0.103435 0.153216
H32   H     H_    0.919973 0.759249 0.167197 0.137440
H33   H     H_    0.820193 0.850305 0.181578 0.257658
H34   H     H_    0.383806 0.076994 0.861054 0.169771
H35   H     H_    0.857533 0.853416 0.104496 0.217085
H36   H     H_    0.770039 0.809987 0.118096 0.256231
H37   H     H_    0.281377 0.869015 0.103358 0.153268
H38   H     H_    0.240824 0.920032 0.166993 0.137485
H39   H     H_    0.149636 0.820392 0.181443 0.257601
H40   H     H_    0.146691 0.857538 0.104291 0.217048
H41   H     H_    0.190003 0.770033 0.118097 0.256226
H42   H     H_    0.130623 0.281084 0.103541 0.153142
H43   H     H_    0.080036 0.240622 0.167454 0.137407
H44   H     H_    0.179991 0.149724 0.181746 0.257663
H45   H     H_    0.076999 0.383808 0.138947 0.169787
H46   H     H_    0.142399 0.146415 0.104757 0.217180
H47   H     H_    0.229881 0.189983 0.118090 0.256237
H48   H     H_    0.718091 0.131715 0.103032 0.153530
H49   H     H_    0.758735 0.079936 0.166198 0.137610
H50   H     H_    0.850438 0.178981 0.180980 0.257474
H51   H     H_    0.852811 0.142647 0.103543 0.216783
H52   H     H_    0.809964 0.230192 0.118166 0.256244
H53   H     H_    0.369835 0.780753 0.396256 0.152986
H54   H     H_    0.419926 0.740353 0.332045 0.137270
H55   H     H_    0.319599 0.649783 0.317984 0.257704
H56   H     H_    0.616216 0.076895 0.138935 0.169423
H57   H     H_    0.357706 0.646111 0.394782 0.217329
H58   H     H_    0.270257 0.689969 0.381973 0.256254
H59   H     H_    0.781214 0.630784 0.396542 0.153213
H60   H     H_    0.740714 0.580017 0.332746 0.137361
H61   H     H_    0.649690 0.679831 0.318390 0.257571
H62   H     H_    0.646542 0.642440 0.395453 0.217109
H63   H     H_    0.689998 0.729931 0.381906 0.256283
H64   H     H_    0.630265 0.219195 0.396271 0.153034
H65   H     H_    0.580097 0.259574 0.332095 0.137230
H66   H     H_    0.680354 0.350197 0.317964 0.257680
H67   H     H_    0.923013 0.616191 0.138945 0.169724
H68   H     H_    0.642332 0.353846 0.394793 0.217292
H69   H     H_    0.729789 0.310034 0.381913 0.256284
H70   H     H_    0.218778 0.369206 0.396550 0.153221
H71   H     H_    0.259274 0.420009 0.332771 0.137377
H72   H     H_    0.350327 0.320225 0.318396 0.257571
H73   H     H_    0.353456 0.357589 0.395468 0.217124
H74   H     H_    0.310025 0.270091 0.381898 0.256267
H75   H     H_    0.369165 0.218752 0.603437 0.153217
H76   H     H_    0.419985 0.259255 0.667202 0.137405
H77   H     H_    0.320206 0.350312 0.681586 0.257604
H78   H     H_    0.383787 0.923061 0.138944 0.169639
H79   H     H_    0.357551 0.353430 0.604506 0.217091
H80   H     H_    0.270055 0.310002 0.618099 0.256257
H81   H     H_    0.781215 0.369206 0.603470 0.153222
H82   H     H_    0.740723 0.419974 0.667270 0.137382
H83   H     H_    0.649701 0.320158 0.681638 0.257598
H84   H     H_    0.646539 0.357557 0.604577 0.217119
H85   H     H_    0.689998 0.270064 0.618112 0.256280
H86   H     H_    0.630832 0.781249 0.603442 0.153222
H87   H     H_    0.580019 0.740746 0.667213 0.137396
H88   H     H_    0.679801 0.649693 0.681594 0.257601
H89   H     H_    0.577059 0.116171 0.361043 0.169921
H90   H     H_    0.642452 0.646572 0.604516 0.217090
H91   H     H_    0.729947 0.690003 0.618101 0.256266
H92   H     H_    0.218794 0.630777 0.603461 0.153219
H93   H     H_    0.259288 0.580024 0.667268 0.137385
H94   H     H_    0.350300 0.679851 0.681622 0.257597
H95   H     H_    0.353468 0.642441 0.604567 0.217124
H96   H     H_    0.310001 0.729931 0.618089 0.256278
O1    O     O_R   0.939380 0.392670 0.000020 -0.622886
O2    O     O_R   0.892670 0.560620 0.500020 -0.622827
O3    O     O_R   0.560620 0.107330 0.500020 -0.622684
O4    O     O_R   0.107330 0.439380 0.500020 -0.622832
O5    O     O_R   0.439380 0.107330 0.499980 -0.622876
O6    O     O_R   0.892670 0.439380 0.499980 -0.622802
O7    O     O_R   0.560620 0.892670 0.499980 -0.622869
O8    O     O_R   0.107330 0.560620 0.499980 -0.622801
O9    O     O_R   0.939380 0.500000 0.908420 -0.618881
O10   O     O_R   0.500000 0.060620 0.908420 -0.618855
O11   O     O_R   0.060620 0.500000 0.908420 -0.618880
O12   O     O_R   0.392670 0.060620 0.000020 -0.622774
O13   O     O_R   0.500000 0.939380 0.908420 -0.618873
O14   O     O_R   0.939380 0.500000 0.091580 -0.618903
O15   O     O_R   0.500000 0.939380 0.091580 -0.618890
O16   O     O_R   0.060620 0.500000 0.091580 -0.618874
O17   O     O_R   0.500000 0.060620 0.091580 -0.618943
O18   O     O_R   0.439380 0.000000 0.408420 -0.618843
O19   O     O_R   1.000000 0.560620 0.408420 -0.618863
O20   O     O_R   0.560620 0.000000 0.408420 -0.618824
O21   O     O_R   0.000000 0.439380 0.408420 -0.618857
O22   O     O_R   0.439380 0.000000 0.591580 -0.618893
O23   O     O_R   0.060620 0.607330 0.000020 -0.622848
O24   O     O_R   1.000000 0.439380 0.591580 -0.618876
O25   O     O_R   0.560620 0.000000 0.591580 -0.618883
O26   O     O_R   1.000000 0.560620 0.591580 -0.618870
O27   O     O_R   0.107300 0.999970 0.948290 -0.627638
O28   O     O_R   0.999970 0.892700 0.948290 -0.627614
O29   O     O_R   0.892700 0.000030 0.948290 -0.627602
O30   O     O_R   0.000030 0.107300 0.948290 -0.627642
O31   O     O_R   0.107300 0.000030 0.051710 -0.627640
O32   O     O_R   0.999970 0.107300 0.051710 -0.627523
O33   O     O_R   0.892700 0.999970 0.051710 -0.627483
O34   O     O_R   0.607330 0.939380 0.000020 -0.622784
O35   O     O_R   0.000030 0.892700 0.051710 -0.627590
O36   O     O_R   0.607300 0.499970 0.448290 -0.627719
O37   O     O_R   0.499970 0.392700 0.448290 -0.627710
O38   O     O_R   0.392700 0.500030 0.448290 -0.627731
O39   O     O_R   0.500030 0.607300 0.448290 -0.627727
O40   O     O_R   0.607300 0.500030 0.551710 -0.627625
O41   O     O_R   0.499970 0.607300 0.551710 -0.627634
O42   O     O_R   0.392700 0.499970 0.551710 -0.627627
O43   O     O_R   0.500030 0.392700 0.551710 -0.627637
O44   O     O_3   0.822084 0.295782 0.810278 -0.573690
O45   O     O_R   0.939380 0.607330 0.999980 -0.622833
O46   O     O_3   0.295804 0.177925 0.810278 -0.573679
O47   O     O_3   0.177917 0.704216 0.810262 -0.573691
O48   O     O_3   0.704211 0.822080 0.810269 -0.573685
O49   O     O_3   0.822072 0.704206 0.189729 -0.573700
O50   O     O_3   0.295730 0.822127 0.189745 -0.573778
O51   O     O_3   0.177934 0.295821 0.189721 -0.573701
O52   O     O_3   0.704344 0.177854 0.189763 -0.573789
O53   O     O_3   0.322043 0.795878 0.310304 -0.573635
O54   O     O_3   0.795791 0.677919 0.310274 -0.573657
O55   O     O_3   0.677988 0.204096 0.310291 -0.573542
O56   O     O_R   0.392670 0.939380 0.999980 -0.622885
O57   O     O_3   0.204228 0.322102 0.310269 -0.573696
O58   O     O_3   0.322081 0.204213 0.689728 -0.573695
O59   O     O_3   0.795800 0.322071 0.689737 -0.573666
O60   O     O_3   0.677922 0.795792 0.689730 -0.573668
O61   O     O_3   0.204200 0.677926 0.689720 -0.573669
O62   O     O_R   0.060620 0.392670 0.999980 -0.622769
O63   O     O_R   0.607330 0.060620 0.999980 -0.623045
O64   O     O_R   0.439380 0.892670 0.500020 -0.622675
Zn1   Zn    Zn3+2 0.919060 0.500000 0.000000 0.974269
Zn2   Zn    Zn3+2 1.000000 0.000000 0.069040 0.929345
Zn3   Zn    Zn3+2 0.500000 0.500000 0.430960 0.928844
Zn4   Zn    Zn3+2 0.500000 0.500000 0.569040 0.929127
Zn5   Zn    Zn3+2 0.500000 0.080940 0.000000 0.974155
Zn6   Zn    Zn3+2 0.080940 0.500000 0.000000 0.974375
Zn7   Zn    Zn3+2 0.500000 0.919060 0.000000 0.974284
Zn8   Zn    Zn3+2 0.419060 0.000000 0.500000 0.974545
Zn9   Zn    Zn3+2 1.000000 0.580940 0.500000 0.974457
Zn10  Zn    Zn3+2 0.580940 0.000000 0.500000 0.974572
Zn11  Zn    Zn3+2 1.000000 0.419060 0.500000 0.974449
Zn12  Zn    Zn3+2 1.000000 0.000000 0.930960 0.929141

loop_
_geom_bond_atom_site_label_1
_geom_bond_atom_site_label_2
_ccdc_geom_bond_type
C79   O61   S    
C28   O59   S    
C64   H8    S    
C126  H9    S    
C80   O58   S    
C126  C127  S    
C65   C79   A    
C83   O28   A    
C50   H34   S    
C91   C105  A    
C22   H69   S    
C19   C20   S    
O28   Zn12  S    
C71   C77   A    
O43   Zn4   S    
C72   C76   A    
C28   H82   S    
C22   H68   S    
C54   C103  A    
C59   C77   A    
C20   H63   S    
O32   Zn2   S    
C32   H93   S    
C105  C116  A    
O20   Zn10  S    
C7    H30   S    
C89   C125  S    
C23   C25   S    
C73   O55   S    
C3    H19   S    
C4    H21   S    
C23   H70   S    
C60   C78   A    
C26   C27   S    
C5    H24   S    
C76   O53   S    
C47   H1    S    
C72   O50   S    
C56   C97   A    
C62   C80   A    
C28   C29   S    
C36   C124  T    
C67   C81   A    
C64   C93   A    
C37   C107  S    
O31   Zn2   S    
C25   H73   S    
C21   O55   S    
C93   C108  A    
C20   H62   S    
C30   C31   S    
C3    H17   S    
O15   Zn7   S    
C2    C41   S    
C86   O32   A    
C98   C103  A    
C48   C104  A    
C23   H71   S    
O56   Zn7   S    
C84   O33   A    
O38   Zn3   S    
O62   Zn6   S    
C51   H45   S    
C89   O42   A    
O40   Zn4   S    
O6    Zn11  S    
C9    H35   S    
O29   Zn12  S    
O21   Zn11  S    
C46   O26   A    
C40   O14   A    
O13   Zn7   S    
C19   H59   S    
C30   H87   S    
C89   O38   A    
C17   H54   S    
C92   C110  A    
C126  H10   S    
C7    H28   S    
C52   O45   A    
O17   Zn5   S    
C8    C9    S    
C47   C105  A    
C81   O59   S    
C99   C102  A    
C88   O37   A    
O41   Zn4   S    
O24   Zn11  S    
C83   O35   A    
C54   H67   S    
C12   H43   S    
C38   O9    A    
C31   H91   S    
C8    O49   S    
C60   H5    S    
C16   H51   S    
C88   C124  S    
C31   H90   S    
C45   O25   A    
C33   H94   S    
C4    O47   S    
C60   C92   A    
O25   Zn10  S    
O36   Zn3   S    
C34   C122  T    
C107  O8    A    
O4    Zn11  S    
C11   H39   S    
C101  C114  A    
C90   C122  S    
C83   C120  S    
C126  O44   S    
C54   C71   A    
C127  H11   S    
C82   C119  S    
C10   O50   S    
C66   C78   A    
C53   C70   A    
O34   Zn7   S    
C12   O51   S    
C1    O62   A    
O14   Zn1   S    
C16   H50   S    
O33   Zn2   S    
C29   H83   S    
C49   C108  A    
C37   C125  T    
C23   O57   S    
C43   O18   A    
C69   O51   S    
C40   C114  S    
C59   H4    S    
C56   C73   A    
C70   O52   S    
C49   H23   S    
C104  C115  A    
C58   C76   A    
C96   O3    A    
C82   O27   A    
C90   O41   A    
C66   O48   S    
C62   H7    S    
C14   H44   S    
C32   O61   S    
C63   O34   A    
C38   O11   A    
C97   C112  A    
C48   H12   S    
C3    C128  S    
C74   O7    A    
C21   H64   S    
C12   H42   S    
C57   H2    S    
O35   Zn2   S    
C28   H81   S    
C6    O48   S    
C18   H58   S    
C5    H22   S    
O63   Zn5   S    
C91   C109  A    
C27   H77   S    
C127  H14   S    
C33   H96   S    
C77   O54   S    
C87   O36   A    
C9    H36   S    
C26   H76   S    
O12   Zn5   S    
C20   H61   S    
C62   C94   A    
C68   O46   S    
C14   H47   S    
C17   H53   S    
C19   H60   S    
C30   H86   S    
C13   C52   S    
C38   C116  S    
C36   C96   S    
C42   C113  S    
C29   H85   S    
C61   H6    S    
O23   Zn6   S    
C74   O64   A    
C58   H3    S    
C10   H38   S    
O26   Zn9   S    
O16   Zn6   S    
C107  O4    A    
C103  C114  A    
C70   C73   A    
C30   O60   S    
C17   C18   S    
C55   C102  A    
O3    Zn10  S    
C32   H92   S    
C96   O5    A    
C9    H33   S    
C90   O39   A    
C128  H16   S    
C78   O60   S    
C6    H26   S    
C61   C91   A    
C44   O21   A    
C34   C74   S    
C127  H13   S    
C15   H48   S    
C100  C113  A    
C12   C14   S    
O10   Zn5   S    
C25   H74   S    
C24   C63   S    
C39   C115  S    
C15   H49   S    
C11   H40   S    
O9    Zn1   S    
C82   O31   A    
C53   H56   S    
C86   O30   A    
C43   C112  S    
C68   C80   A    
C8    H32   S    
C52   O23   A    
C33   H95   S    
O7    Zn10  S    
C39   O13   A    
C13   C120  T    
C29   H84   S    
C53   C100  A    
C1    O1    A    
C55   H78   S    
C102  C113  A    
C94   C106  A    
C98   C111  A    
C49   C67   A    
C25   H72   S    
C45   C110  S    
O2    Zn9   S    
C128  O46   S    
C27   H80   S    
C58   C99   A    
C6    H27   S    
C4    C5    S    
C31   H88   S    
C45   O22   A    
C85   O6    A    
C39   O10   A    
C2    C119  T    
C88   O43   A    
C11   H41   S    
C6    C7    S    
C7    H29   S    
C41   O12   A    
O39   Zn3   S    
C43   O20   A    
C51   C101  A    
C75   O57   S    
C42   O17   A    
O1    Zn1   S    
O27   Zn12  S    
C63   O63   A    
C106  C115  A    
C21   H65   S    
C32   C33   S    
C108  C116  A    
C42   O15   A    
C35   C123  T    
C26   H75   S    
C84   C121  S    
O11   Zn6   S    
C46   O24   A    
C14   H46   S    
C41   O56   A    
C95   C111  A    
C117  C118  T    
O5    Zn8   S    
C87   C123  S    
C67   O44   S    
C35   C85   S    
C97   C100  A    
C57   C75   A    
O45   Zn1   S    
C18   H55   S    
C61   C79   A    
C10   H37   S    
C5    H25   S    
C99   C112  A    
O37   Zn3   S    
O22   Zn8   S    
C24   C121  T    
C71   O49   S    
C18   H57   S    
C94   C110  A    
C95   C101  A    
C69   C75   A    
C86   C117  S    
C27   H79   S    
C1    C118  S    
O64   Zn8   S    
C56   H89   S    
C15   O52   S    
C65   O47   S    
C128  H15   S    
C64   C81   A    
C26   O58   S    
O18   Zn8   S    
O30   Zn12  S    
C10   C11   S    
C92   C104  A    
C44   C111  S    
C16   H52   S    
C55   C72   A    
C19   O54   S    
C3    H18   S    
C40   O16   A    
C57   C95   A    
C46   C109  S    
C84   O29   A    
C50   C106  A    
C59   C98   A    
C22   H66   S    
O42   Zn4   S    
C85   O2    A    
C51   C69   A    
C48   C66   A    
C21   C22   S    
C8    H31   S    
C50   C68   A    
C87   O40   A    
C47   C65   A    
O19   Zn9   S    
C17   O53   S    
C15   C16   S    
C44   O19   A    
C93   C109  A    
O8    Zn9   S    
C4    H20   S    
