data_mof_unit_64629.cif
_audit_creation_date              2012-12-10T19:50:53-0500
_audit_creation_method            fapswitch 2.2
_symmetry_space_group_name_H-M    P1
_symmetry_Int_Tables_number       1
_space_group_crystal_system       triclinic
_cell_length_a                    23.467412
_cell_length_b                    10.946957
_cell_length_c                    22.301853
_cell_angle_alpha                 89.132968
_cell_angle_beta                  90.812238
_cell_angle_gamma                 87.195325
_cell_volume                      5721.11731456

loop_
_atom_site_label
_atom_site_type_symbol
_atom_type_description
_atom_site_fract_x
_atom_site_fract_y
_atom_site_fract_z
_atom_type_partial_charge
C1    C     C_R   0.495841 0.262270 0.500469 0.892199
C2    C     C_R   0.504159 0.737730 0.499531 0.892198
C3    C     C_R   0.236463 0.608832 0.487293 -0.156341
C4    C     C_R   0.763537 0.391169 0.512706 -0.156343
C5    C     C_R   0.295795 0.610252 0.488281 0.250314
C6    C     C_R   0.704205 0.389750 0.511719 0.250314
C7    C     C_R   0.328618 0.501374 0.500358 -0.202043
C8    C     C_R   0.671381 0.498627 0.499641 -0.202044
C9    C     C_R   0.301416 0.394277 0.517257 0.125599
C10   C     C_R   0.698584 0.605724 0.482742 0.125599
C11   C     C_R   0.241561 0.393507 0.515805 0.305593
C12   C     C_R   0.758439 0.606494 0.484193 0.305596
C13   C     C_R   0.209298 0.500859 0.499925 0.177962
C14   C     C_R   0.790702 0.499143 0.500073 0.177963
C15   C     C_R   0.368415 0.219143 0.350013 -0.103934
C16   C     C_R   0.631582 0.780852 0.649991 -0.103936
C17   C     C_R   0.397811 0.161106 0.398238 -0.105918
C18   C     C_R   0.602188 0.838888 0.601765 -0.105916
C19   C     C_R   0.456068 0.127079 0.394021 0.150594
C20   C     C_R   0.543931 0.872919 0.605980 0.150597
C21   C     C_R   0.484019 0.149166 0.339932 -0.038842
C22   C     C_R   0.515978 0.850834 0.660068 -0.038841
C23   C     C_R   0.390954 0.501485 0.499878 0.924820
C24   C     C_R   0.609046 0.498515 0.500121 0.924817
C25   C     C_R   0.454163 0.204439 0.291207 -0.131685
C26   C     C_R   0.545833 0.795563 0.708794 -0.131683
C27   C     C_R   0.396603 0.240908 0.296494 -0.071644
C28   C     C_R   0.603393 0.759090 0.703510 -0.071647
C29   C     C_R   0.498960 0.939991 0.444519 0.294448
C30   C     C_R   0.501042 0.060009 0.555481 0.294444
C31   C     C_R   0.507806 0.872060 0.498664 -0.174213
C32   C     C_R   0.492195 0.127940 0.501336 -0.174213
C33   C     C_R   0.513851 0.934051 0.553506 -0.088219
C34   C     C_R   0.486150 0.065948 0.446494 -0.088218
C35   C     C_R   0.536587 0.570048 0.872569 0.595477
C36   C     C_R   0.463410 0.429956 0.127431 0.595477
C37   C     C_R   0.459510 0.435934 0.872827 0.606145
C38   C     C_R   0.540486 0.564071 0.127172 0.606146
C39   C     C_R   0.459577 0.433457 0.936350 -0.044251
C40   C     C_R   0.540419 0.566549 0.063650 -0.044252
C41   C     C_R   0.499431 0.500928 0.968062 -0.005862
C42   C     C_R   0.500565 0.499078 0.031938 -0.005862
C43   C     C_R   0.538191 0.570170 0.936030 -0.022697
C44   C     C_R   0.461806 0.429836 0.063970 -0.022697
C45   C     C_R   0.880084 0.532544 0.550923 0.599034
C46   C     C_R   0.119916 0.467458 0.449075 0.599035
C47   C     C_R   0.421088 0.364582 0.968922 -0.131509
C48   C     C_R   0.578908 0.635424 0.031078 -0.131509
C49   C     C_R   0.422191 0.362782 0.031792 -0.127712
C50   C     C_R   0.577805 0.637224 0.968208 -0.127712
C51   C     C_R   0.542125 0.431334 0.257321 -0.319404
C52   C     C_R   0.457872 0.568663 0.742678 -0.319400
C53   C     C_R   0.540917 0.431217 0.320392 0.387803
C54   C     C_R   0.459082 0.568781 0.679607 0.387804
C55   C     C_R   0.459891 0.569584 0.317344 0.364104
C56   C     C_R   0.540109 0.430418 0.682656 0.364103
C57   C     C_R   0.460114 0.570277 0.253661 0.192137
C58   C     C_R   0.539885 0.429725 0.746340 0.192137
C59   C     C_R   0.501433 0.499662 0.223276 0.199574
C60   C     C_R   0.498565 0.500338 0.776724 0.199571
C61   C     C_R   0.880366 0.462341 0.449944 0.601632
C62   C     C_R   0.119633 0.537665 0.550053 0.601631
C63   C     C_R   0.940110 0.462574 0.448713 -0.032953
C64   C     C_R   0.059890 0.537431 0.551284 -0.032952
C65   C     C_R   0.969950 0.499227 0.500132 -0.007839
C66   C     C_R   0.030050 0.500776 0.499864 -0.007839
C67   C     C_R   0.939830 0.534368 0.551812 -0.027815
C68   C     C_R   0.060170 0.465635 0.448185 -0.027815
C69   C     C_R   0.970563 0.427709 0.397437 -0.126746
C70   C     C_R   0.029437 0.572295 0.602560 -0.126745
C71   C     C_R   0.029979 0.429250 0.397171 -0.129848
C72   C     C_R   0.970020 0.570753 0.602826 -0.129848
Cu1   Cu    Cu3+1 0.500000 0.499970 0.559570 1.084984
Cu2   Cu    Cu3+1 0.500000 0.500030 0.440430 1.084984
H1    H     H_    0.948608 0.399224 0.357349 0.200608
H2    H     H_    0.051391 0.600780 0.642648 0.200608
H3    H     H_    0.528638 0.122068 0.335220 0.195836
H4    H     H_    0.471359 0.877935 0.664779 0.195836
H5    H     H_    0.475777 0.219210 0.249404 0.182531
H6    H     H_    0.524217 0.780793 0.750596 0.182530
H7    H     H_    0.389948 0.311621 0.945935 0.198955
H8    H     H_    0.610048 0.688385 0.054065 0.198955
H9    H     H_    0.391791 0.308645 0.055095 0.197515
H10   H     H_    0.608206 0.691360 0.944905 0.197515
H11   H     H_    0.574388 0.375892 0.234626 0.206048
H12   H     H_    0.425609 0.624103 0.765373 0.206049
H13   H     H_    0.052139 0.401774 0.356913 0.198692
H14   H     H_    0.947861 0.598229 0.643084 0.198692
H15   H     H_    0.211153 0.692512 0.477930 0.196446
H16   H     H_    0.788847 0.307490 0.522069 0.196446
H17   H     H_    0.373656 0.284841 0.259003 0.199527
H18   H     H_    0.626338 0.715159 0.741001 0.199532
H19   H     H_    0.323616 0.245847 0.353922 0.173839
H20   H     H_    0.676381 0.754146 0.646083 0.173838
H21   H     H_    0.374994 0.140697 0.438553 0.189146
H22   H     H_    0.625006 0.859294 0.561450 0.189144
N1    N     N_R   0.851793 0.497530 0.500414 -0.448048
N2    N     N_R   0.148206 0.502472 0.499583 -0.448047
N3    N     N_R   0.497874 0.502996 0.842008 -0.430021
N4    N     N_R   0.502124 0.497007 0.157992 -0.430022
N5    N     N_R   0.500010 0.500010 0.350920 -0.242946
N6    N     N_R   0.499990 0.499990 0.649080 -0.242946
O1    O     O_R   0.500000 0.319610 0.550310 -0.513322
O2    O     O_R   0.500000 0.680390 0.449690 -0.513321
O3    O     O_R   0.499990 0.319670 0.449690 -0.580813
O4    O     O_R   0.500010 0.680330 0.550310 -0.580813
O5    O     O_R   0.417880 0.499930 0.550320 -0.521158
O6    O     O_R   0.582120 0.500070 0.449680 -0.521158
O7    O     O_R   0.417880 0.499990 0.449700 -0.568018
O8    O     O_R   0.582120 0.500010 0.550300 -0.568016
O9    O     O_2   0.850411 0.565836 0.599927 -0.505078
O10   O     O_2   0.149588 0.434164 0.400070 -0.505078
O11   O     O_2   0.850958 0.427980 0.401096 -0.482443
O12   O     O_2   0.149041 0.572028 0.598900 -0.482444
O13   O     O_2   0.573752 0.635981 0.841792 -0.552338
O14   O     O_2   0.426244 0.364022 0.158208 -0.552333
O15   O     O_2   0.421730 0.370788 0.842263 -0.481730
O16   O     O_2   0.578266 0.629219 0.157737 -0.481728
Br1   Br    Br    0.511342 0.868486 0.366376 -0.362961
Br2   Br    Br    0.488663 0.131515 0.633625 -0.362965
Br3   Br    Br    0.598492 0.325864 0.358998 -0.400651
Br4   Br    Br    0.401507 0.674134 0.641001 -0.400653
Br5   Br    Br    0.401620 0.670550 0.353915 -0.313381
Br6   Br    Br    0.598383 0.329456 0.646086 -0.313379
Br7   Br    Br    0.405215 0.669967 0.207037 -0.348876
Br8   Br    Br    0.594782 0.330032 0.792965 -0.348874
Br9   Br    Br    0.329623 0.765802 0.480645 -0.358217
Br10  Br    Br    0.670378 0.234199 0.519356 -0.358214
Br11  Br    Br    0.345501 0.252613 0.547114 -0.400728
Br12  Br    Br    0.654498 0.747388 0.452886 -0.400725
Br13  Br    Br    0.203041 0.247921 0.536769 -0.331365
Br14  Br    Br    0.796958 0.752080 0.463227 -0.331362

loop_
_geom_bond_atom_site_label_1
_geom_bond_atom_site_label_2
_ccdc_geom_bond_type
C44   C49   A    
C16   C28   A    
C66   C68   A    
C63   C65   A    
C46   O10   S    
C18   H22   S    
C41   C42   A    
C60   N3    S    
C51   H11   S    
Cu2   O7    S    
C50   H10   S    
Cu1   O8    S    
C39   C41   A    
C29   Br1   S    
C56   Br6   S    
Cu2   O2    S    
C19   C21   A    
C62   O12   S    
C57   Br7   S    
C57   C59   A    
C58   C60   A    
C61   C63   A    
C67   C72   A    
Cu1   Cu2   S    
C13   N2    S    
C69   C71   A    
C62   C64   A    
C52   C60   A    
C8    C24   S    
C62   N2    A    
C63   C69   A    
C53   N5    A    
C65   C67   A    
C45   C67   A    
C31   C33   A    
C27   H17   S    
C17   H21   S    
C64   C70   A    
C35   C43   A    
C1    O1    A    
C3    C13   A    
C48   C50   A    
C46   N2    A    
C38   C40   A    
C4    C14   A    
C59   N4    S    
C41   C43   A    
C42   C44   A    
C35   N3    A    
C72   H14   S    
C52   C54   A    
C4    H16   S    
C56   C58   A    
C23   O7    A    
C55   Br5   S    
C24   O8    A    
C22   H4    S    
C38   N4    A    
C5    C7    A    
C6    C8    A    
Cu2   O6    S    
C29   C34   A    
C2    O4    A    
C1    C32   S    
C26   H6    S    
C2    C31   S    
C51   C53   A    
C64   C66   A    
C10   Br12  S    
C46   C68   A    
C15   C27   A    
C2    O2    A    
C29   C31   A    
C23   O5    A    
C5    Br9   S    
C36   N4    A    
C16   C18   A    
C35   O13   S    
C9    C11   A    
C10   C12   A    
Cu2   N5    S    
C71   H13   S    
C20   C33   S    
C4    C6    A    
Cu1   N6    S    
C12   C14   A    
C58   Br8   S    
C55   C57   A    
C70   H2    S    
C25   C27   A    
C36   C44   A    
C51   C59   A    
C36   O14   S    
C37   N3    A    
C14   N1    S    
C39   C47   A    
C40   C48   A    
C21   C25   A    
C12   Br14  S    
C30   C33   A    
C25   H5    S    
C16   H20   S    
C54   N6    A    
C61   N1    A    
C20   C22   A    
C3    C5    A    
C19   C34   S    
C11   Br13  S    
C15   H19   S    
C70   C72   A    
C45   O9    S    
C43   C50   A    
C15   C17   A    
C9    Br11  S    
C47   C49   A    
C55   N5    A    
C26   C28   A    
C1    O3    A    
C3    H15   S    
C49   H9    S    
C52   H12   S    
C56   N6    A    
C37   C39   A    
C45   N1    A    
Cu2   O3    S    
C30   C32   A    
C11   C13   A    
Cu1   O4    S    
C30   Br2   S    
C68   C71   A    
C7    C23   S    
C40   C42   A    
C17   C19   A    
C48   H8    S    
C69   H1    S    
C18   C20   A    
C47   H7    S    
C54   Br4   S    
Cu1   O5    S    
C61   O11   S    
C6    Br10  S    
C28   H18   S    
C7    C9    A    
Cu1   O1    S    
C37   O15   S    
C8    C10   A    
C65   C66   A    
C22   C26   A    
C21   H3    S    
C38   O16   S    
C53   Br3   S    
C24   O6    A    
C32   C34   A    
