data_mof_unit_6035.cif
_audit_creation_date              2013-03-05T15:41:24-0500
_audit_creation_method            fapswitch 2.2
_symmetry_space_group_name_H-M    P1
_symmetry_Int_Tables_number       1
_space_group_crystal_system       triclinic
_cell_length_a                    7.768235
_cell_length_b                    8.559174
_cell_length_c                    10.63177
_cell_angle_alpha                 91.51637
_cell_angle_beta                  85.238913
_cell_angle_gamma                 93.885487
_cell_volume                      702.690125576

loop_
_atom_site_label
_atom_site_type_symbol
_atom_site_description
_atom_site_fract_x
_atom_site_fract_y
_atom_site_fract_z
_atom_type_partial_charge
O1    O     O_R   0.389250 0.738570 0.508370 -0.608819
O2    O     O_R   0.678390 0.711620 0.486510 -0.626987
C1    C     C_R   0.545959 0.794801 0.496926 0.996040
O3    O     O_R   0.355430 0.513500 0.696140 -0.632933
O4    O     O_R   0.644580 0.486550 0.674270 -0.631294
C2    C     C_R   0.501296 0.499776 0.741982 0.899357
Zn1   Zn    Zn3+2 0.306940 0.517990 0.514600 0.991681
Zn2   Zn    Zn3+2 0.693060 0.482010 0.485400 0.980567
O5    O     O_R   0.321610 0.288380 0.513490 -0.606174
O6    O     O_R   0.610750 0.261430 0.491630 -0.619136
O7    O     O_R   0.355420 0.513450 0.325730 -0.624782
O8    O     O_R   0.644570 0.486500 0.303860 -0.625463
C3    C     C_R   0.454184 0.205273 0.504908 1.022913
C4    C     C_R   0.498463 0.496077 0.257738 0.941408
C5    C     C_3   0.442317 0.657372 0.936361 0.196238
H1    H     H_    0.303726 0.664904 0.918221 0.126750
C6    C     C_3   0.451308 0.657823 0.080657 -0.489793
H2    H     H_    0.548541 0.749342 0.111617 0.248420
H3    H     H_    0.323846 0.687919 0.127514 0.190661
H4    H     H_    0.243659 0.372109 0.895550 0.165380
H5    H     H_    0.229233 0.408934 0.105300 0.085354
C7    C     C_3   0.374753 0.362973 0.928852 -0.519285
C8    C     C_3   0.684764 0.465384 0.916326 -0.372796
C9    C     C_3   0.502502 0.498409 0.877975 -0.041272
H6    H     H_    0.721939 0.348851 0.878036 0.203985
H7    H     H_    0.785904 0.552921 0.877128 0.222460
C10   C     C_3   0.497957 0.494009 0.121155 -0.044406
C11   C     C_3   0.359625 0.368497 0.074079 0.273644
C12   C     C_3   0.683046 0.466011 0.058994 -0.355972
H8    H     H_    0.777461 0.561075 0.088506 0.196543
H9    H     H_    0.730062 0.354518 0.089216 0.231567
H10   H     H_    0.421436 0.249374 0.891255 0.260965
C13   C     C_2   0.570196 0.958432 0.495768 -0.306695
H11   H     H_    0.702400 0.009802 0.484718 0.179185
C14   C     C_2   0.430127 0.041682 0.507800 -0.255107
H12   H     H_    0.297929 0.990318 0.518963 0.182901
N1    N     N_2   0.950330 0.457950 0.465890 -0.176671
H13   H     H_    0.013916 0.382396 0.404194 0.218185
N2    N     N_2   0.049670 0.542050 0.534110 -0.176166
H14   H     H_    0.986070 0.617608 0.595800 0.203344
S1    S     S_3+6 0.360323 0.174039 0.136535 0.009674
O9    O     O_2   0.541145 0.125535 0.145218 -0.278606
O10   O     O_2   0.265703 0.170193 0.265512 -0.346066
O11   O     O_3   0.256879 0.044170 0.042624 -0.500529
H15   H     H_    0.136759 0.077322 0.045684 0.358508
N3    N     N_R   0.541204 0.794101 0.879713 0.236738
O12   O     O_R   0.463783 0.890367 0.814205 -0.384509
O13   O     O_R   0.703407 0.825229 0.898761 -0.399006

loop_
_geom_bond_atom_site_label_1
_geom_bond_atom_site_label_2
_geom_bond_distance
_ccdc_geom_bond_type
O4    Zn2   2.011918 S    
C8    C9    1.551440 S    
C3    C14   1.400819 S    
C12   H8    1.114562 S    
C4    C10   1.452089 S    
C10   C12   1.562718 S    
S1    O9    1.502173 D    
C14   H12   1.087807 S    
Zn2   O8    1.998799 S    
C2    C9    1.447019 S    
S1    O11   1.682740 S    
O2    C1    1.285949 A    
C12   H9    1.109166 S    
C7    C11   1.538438 S    
Zn1   O7    2.011917 S    
S1    O10   1.501165 D    
N1    H13   1.029317 S    
C7    H10   1.113477 S    
O3    Zn1   1.998800 S    
C8    C12   1.515639 S    
O3    C2    1.283763 A    
C5    C9    1.564751 S    
C6    H3    1.113928 S    
H5    C11   1.114265 S    
H4    C7    1.113849 S    
C6    H2    1.113518 S    
N3    O13   1.301411 A    
C8    H6    1.114450 S    
O4    C2    1.284413 A    
N1    N2    1.276607 D    
O7    C4    1.289483 A    
C7    C9    1.552216 S    
Zn2   N1    2.016004 S    
C1    C13   1.400688 S    
C5    H1    1.115781 S    
C6    C10   1.552204 S    
C11   S1    1.808731 S    
C10   C11   1.569620 S    
C13   H11   1.087812 S    
O11   H15   0.991278 S    
Zn2   O6    1.952866 S    
C8    H7    1.111184 S    
N2    H14   1.029357 S    
Zn1   O5    1.975936 S    
Zn1   N2    2.016004 S    
N3    O12   1.301053 A    
O1    Zn1   1.952867 S    
O5    C3    1.286538 A    
C5    N3    1.470054 S    
C13   C14   1.336104 D    
C5    C6    1.541382 S    
O2    Zn2   1.975936 S    
O8    C4    1.281598 A    
O1    C1    1.275737 A    
O6    C3    1.275174 A    
