data_mof_unit_8269.cif
_audit_creation_date              2012-12-11T15:54:47-0500
_audit_creation_method            fapswitch 2.2
_symmetry_space_group_name_H-M    P1
_symmetry_Int_Tables_number       1
_space_group_crystal_system       triclinic
_cell_length_a                    17.486903
_cell_length_b                    24.345502
_cell_length_c                    15.033163
_cell_angle_alpha                 90.020586
_cell_angle_beta                  125.825593
_cell_angle_gamma                 89.94702
_cell_volume                      5189.15754317

loop_
_atom_site_label
_atom_site_type_symbol
_atom_type_description
_atom_site_fract_x
_atom_site_fract_y
_atom_site_fract_z
_atom_type_partial_charge
C1    C     C_R   0.901696 0.877415 0.092229 -0.134628
C2    C     C_R   0.901618 0.122914 0.092042 -0.130972
C3    C     C_R   0.405368 0.369970 0.090615 -0.131964
C4    C     C_R   0.404844 0.629376 0.090656 -0.126976
C5    C     C_R   0.055084 0.847415 0.908335 -0.151630
C6    C     C_R   0.055005 0.152476 0.908182 -0.149370
C7    C     C_R   0.560547 0.348865 0.908097 -0.144444
C8    C     C_R   0.561222 0.650903 0.908054 -0.142503
C9    C     C_R   0.146530 0.152858 0.090779 -0.130060
C10   C     C_R   0.146595 0.847142 0.090918 -0.147084
C11   C     C_R   0.650398 0.651603 0.091440 -0.142560
C12   C     C_R   0.649767 0.348096 0.091330 -0.151802
C13   C     C_R   0.324010 0.000129 0.271108 0.133060
C14   C     C_R   0.824335 0.499340 0.271774 0.115820
C15   C     C_R   0.047899 0.999954 0.723284 -0.007673
C16   C     C_R   0.430753 0.500001 0.632320 -0.007989
C17   C     C_R   0.114296 0.815414 0.999293 -0.007329
C18   C     C_R   0.114386 0.184437 0.999059 -0.010509
C19   C     C_R   0.621998 0.317528 0.999801 -0.009654
C20   C     C_R   0.623650 0.681821 0.999863 -0.008256
C21   C     C_3   0.964260 0.000451 0.427691 -0.394198
C22   C     C_3   0.118419 0.948156 0.538607 -0.406285
C23   C     C_3   0.403698 0.551539 0.375764 -0.400662
C24   C     C_3   0.404130 0.448342 0.376066 -0.399825
C25   C     C_3   0.959693 0.000333 0.525695 -0.398047
C26   C     C_3   0.114392 0.948276 0.638135 -0.402065
C27   C     C_3   0.388622 0.551565 0.466359 -0.415332
C28   C     C_3   0.388828 0.448402 0.466467 -0.415539
C29   C     C_3   0.119568 0.051399 0.539520 -0.406826
C30   C     C_3   0.558161 0.500080 0.500833 -0.420206
C31   C     C_3   0.068090 0.000008 0.466984 0.404831
C32   C     C_3   0.461819 0.499988 0.387780 0.410356
C33   C     C_3   0.060429 0.999965 0.634578 0.401120
C34   C     C_3   0.436251 0.499994 0.539794 0.410895
C35   C     C_R   0.809018 0.123094 0.907953 -0.138522
C36   C     C_R   0.808859 0.877222 0.908178 -0.137192
C37   C     C_R   0.310836 0.626061 0.906833 -0.141494
C38   C     C_R   0.311423 0.373279 0.906641 -0.142899
C39   C     C_3   0.115271 0.051316 0.638894 -0.400809
C40   C     C_3   0.543243 0.500009 0.590518 -0.383594
C41   C     C_3   0.649300 0.175395 0.908354 -0.400598
C42   C     C_3   0.649352 0.826514 0.915833 -0.400464
C43   C     C_3   0.152305 0.681653 0.894160 -0.403709
C44   C     C_3   0.154913 0.315711 0.891025 -0.405780
C45   C     C_3   0.096203 0.730139 0.894899 -0.407740
C46   C     C_3   0.098255 0.267965 0.892207 -0.407876
C47   C     C_3   0.596690 0.226816 0.906765 -0.400616
C48   C     C_3   0.596474 0.775611 0.916131 -0.399090
C49   C     C_3   0.300450 0.739501 0.998003 -0.406896
C50   C     C_3   0.304648 0.259298 0.004543 -0.409909
C51   C     C_3   0.793041 0.234645 0.980164 -0.399104
C52   C     C_3   0.787945 0.765857 0.970437 -0.393905
C53   C     C_3   0.769635 0.185764 0.111622 -0.411504
C54   C     C_3   0.777834 0.810460 0.115565 -0.402100
C55   C     C_3   0.254802 0.680855 0.100013 -0.402496
C56   C     C_3   0.251638 0.320063 0.096547 -0.398522
C57   C     C_3   0.756418 0.181395 0.000195 0.405435
C58   C     C_3   0.757237 0.818305 0.000734 0.400996
C59   C     C_3   0.256150 0.684408 0.997521 0.405942
C60   C     C_3   0.257344 0.314531 0.997424 0.405271
C61   C     C_3   0.161827 0.766186 0.998496 0.409738
C62   C     C_3   0.162433 0.233287 0.998291 0.399982
C63   C     C_3   0.667478 0.266802 0.000312 0.408545
C64   C     C_3   0.668706 0.732615 0.000214 0.400512
C65   C     C_3   0.245297 0.787388 0.998697 -0.392413
C66   C     C_3   0.248328 0.211646 0.003655 -0.384437
C67   C     C_3   0.743100 0.284730 0.983824 -0.399740
C68   C     C_3   0.735505 0.715845 0.969194 -0.394135
C69   C     C_3   0.199752 0.729704 0.101128 -0.411085
C70   C     C_3   0.196895 0.271193 0.098232 -0.407295
C71   C     C_3   0.715833 0.235568 0.110955 -0.412720
C72   C     C_3   0.726606 0.759750 0.115423 -0.407409
C73   C     C_3   0.477666 0.948688 0.357433 0.509922
C74   C     C_3   0.475511 0.054457 0.361714 0.501029
C75   C     C_3   0.975639 0.444324 0.365300 0.546699
C76   C     C_3   0.979463 0.549454 0.356437 0.566954
C77   C     C_R   0.744139 0.954469 0.695510 -0.166521
C78   C     C_R   0.744872 0.045969 0.695751 -0.163566
C79   C     C_R   0.244438 0.453950 0.696476 -0.159201
C80   C     C_R   0.243176 0.545558 0.696291 -0.155414
C81   C     C_3   0.583381 0.951850 0.454571 -0.554444
C82   C     C_3   0.580307 0.054869 0.464328 -0.617562
C83   C     C_3   0.076969 0.443357 0.471572 -0.544192
C84   C     C_3   0.085983 0.544372 0.451666 -0.569873
C85   C     C_3   0.432845 0.998168 0.467935 -0.622925
C86   C     C_3   0.932356 0.503183 0.468616 -0.627452
C87   C     C_3   0.425987 0.000359 0.359922 0.120620
C88   C     C_3   0.926274 0.499024 0.361297 0.124298
C89   C     C_3   0.601516 0.000999 0.530763 0.323447
C90   C     C_3   0.100785 0.499033 0.532718 0.305165
C91   C     C_3   0.535376 0.996830 0.567199 -0.393944
C92   C     C_3   0.034389 0.508470 0.567489 -0.406110
C93   C     C_R   0.048874 0.045733 0.304237 -0.152174
C94   C     C_R   0.049097 0.954300 0.304330 -0.151862
C95   C     C_R   0.504382 0.545983 0.273632 -0.144374
C96   C     C_R   0.504123 0.453987 0.273319 -0.143125
C97   C     C_R   0.812626 0.863739 0.000549 -0.013905
C98   C     C_R   0.812305 0.136248 0.000137 -0.013049
C99   C     C_R   0.316195 0.357428 0.998249 -0.008001
C100  C     C_R   0.315193 0.641437 0.998454 -0.010952
C101  C     C_R   0.697710 0.000421 0.632614 0.075830
C102  C     C_R   0.196544 0.499526 0.634273 0.077663
C103  C     C_R   0.064757 0.000019 0.367001 -0.006560
C104  C     C_R   0.481525 0.499995 0.306768 -0.000832
C105  C     C_R   0.267884 0.953991 0.245545 -0.158865
C106  C     C_R   0.267552 0.046116 0.245398 -0.133841
C107  C     C_R   0.767526 0.453618 0.246010 -0.160886
C108  C     C_R   0.768211 0.545681 0.245766 -0.133400
C109  C     C_R   0.018801 0.046107 0.750613 -0.134428
C110  C     C_R   0.018798 0.953836 0.750599 -0.137749
C111  C     C_R   0.448755 0.545829 0.695560 -0.140178
C112  C     C_R   0.448791 0.454171 0.695568 -0.142525
H1    H     H_    0.926243 0.963796 0.375691 0.153791
H2    H     H_    0.083587 0.910028 0.491069 0.145281
H3    H     H_    0.334337 0.551750 0.293835 0.154787
H4    H     H_    0.334852 0.447912 0.294051 0.156392
H5    H     H_    0.919472 0.963585 0.520783 0.153317
H6    H     H_    0.078851 0.909900 0.635406 0.143500
H7    H     H_    0.311858 0.551892 0.429656 0.152165
H8    H     H_    0.312033 0.448113 0.429595 0.155508
H9    H     H_    0.919989 0.037265 0.521393 0.155164
H10   H     H_    0.187082 0.947739 0.715519 0.154138
H11   H     H_    0.419567 0.590053 0.514179 0.145846
H12   H     H_    0.419780 0.409919 0.514374 0.145831
H13   H     H_    0.085785 0.089845 0.492601 0.146004
H14   H     H_    0.194326 0.051765 0.567890 0.152200
H15   H     H_    0.599672 0.537059 0.509876 0.155145
H16   H     H_    0.600056 0.463226 0.509991 0.154779
H17   H     H_    0.080258 0.089902 0.636538 0.144178
H18   H     H_    0.187898 0.051399 0.716391 0.154825
H19   H     H_    0.578178 0.536855 0.643379 0.156768
H20   H     H_    0.578266 0.463117 0.643269 0.156457
H21   H     H_    0.635462 0.170876 0.826559 0.142063
H22   H     H_    0.630988 0.832243 0.832036 0.143881
H23   H     H_    0.148155 0.684217 0.817688 0.143646
H24   H     H_    0.154061 0.311074 0.816951 0.144842
H25   H     H_    0.621488 0.138015 0.922912 0.155471
H26   H     H_    0.626128 0.863980 0.936352 0.154150
H27   H     H_    0.119589 0.642108 0.892407 0.153892
H28   H     H_    0.120444 0.355513 0.884070 0.154037
H29   H     H_    0.540940 0.214472 0.916890 0.152833
H30   H     H_    0.548040 0.788143 0.937774 0.154428
H31   H     H_    0.035821 0.714630 0.893813 0.152355
H32   H     H_    0.036497 0.284052 0.887734 0.153191
H33   H     H_    0.066962 0.754100 0.818504 0.144584
H34   H     H_    0.071089 0.242945 0.817518 0.145026
H35   H     H_    0.561328 0.246958 0.825347 0.143483
H36   H     H_    0.552616 0.757919 0.832103 0.142598
H37   H     H_    0.219308 0.813682 0.925501 0.153896
H38   H     H_    0.224528 0.184836 0.931719 0.156473
H39   H     H_    0.710422 0.308290 0.906014 0.152787
H40   H     H_    0.694742 0.697131 0.885812 0.149991
H41   H     H_    0.844929 0.191620 0.180705 0.147760
H42   H     H_    0.854091 0.803634 0.179962 0.147658
H43   H     H_    0.326963 0.681951 0.177620 0.143327
H44   H     H_    0.322710 0.320659 0.175873 0.143667
H45   H     H_    0.744594 0.147547 0.127436 0.163741
H46   H     H_    0.755605 0.847518 0.138435 0.154529
H47   H     H_    0.221752 0.641596 0.099017 0.153428
H48   H     H_    0.216040 0.359239 0.090556 0.155639
H49   H     H_    0.662237 0.222135 0.123959 0.160285
H50   H     H_    0.679387 0.771465 0.139250 0.158797
H51   H     H_    0.140327 0.714683 0.102452 0.157789
H52   H     H_    0.135770 0.286247 0.096189 0.159684
H53   H     H_    0.248315 0.753202 0.177933 0.145159
H54   H     H_    0.244656 0.248712 0.176669 0.148359
H55   H     H_    0.767618 0.262290 0.180979 0.145467
H56   H     H_    0.780663 0.730754 0.178276 0.148969
H57   H     H_    0.374859 0.742183 0.071466 0.163910
H58   H     H_    0.377859 0.257357 0.081105 0.154579
H59   H     H_    0.870327 0.238889 0.042675 0.167747
H60   H     H_    0.865097 0.759451 0.030020 0.170377
H61   H     H_    0.448356 0.912157 0.372634 -0.007947
H62   H     H_    0.443346 0.088418 0.378916 0.042599
H63   H     H_    0.939061 0.408988 0.372278 -0.041079
H64   H     H_    0.951674 0.586652 0.371439 -0.017848
H65   H     H_    0.628487 0.956089 0.425209 0.171278
H66   H     H_    0.633497 0.060270 0.447527 0.167756
H67   H     H_    0.128977 0.434617 0.453346 0.175085
H68   H     H_    0.128207 0.532995 0.420883 0.182744
H69   H     H_    0.730680 0.912039 0.669819 0.088070
H70   H     H_    0.733068 0.088424 0.670175 0.091312
H71   H     H_    0.232922 0.411572 0.670405 0.088809
H72   H     H_    0.228826 0.587920 0.670121 0.085433
H73   H     H_    0.602614 0.912325 0.499646 0.124263
H74   H     H_    0.589461 0.090944 0.515134 0.142837
H75   H     H_    0.081776 0.409420 0.524217 0.124700
H76   H     H_    0.111002 0.585091 0.491945 0.122611
H77   H     H_    0.396391 0.961148 0.469788 0.192311
H78   H     H_    0.397565 0.034532 0.474287 0.189287
H79   H     H_    0.900762 0.466025 0.478392 0.195925
H80   H     H_    0.892391 0.539337 0.466828 0.193671
H81   H     H_    0.548982 0.957930 0.613354 0.167225
H82   H     H_    0.548552 0.031415 0.623115 0.169979
H83   H     H_    0.048686 0.478051 0.630949 0.175182
H84   H     H_    0.046134 0.550177 0.603925 0.168037
H85   H     H_    0.062092 0.088122 0.330249 0.084955
H86   H     H_    0.062694 0.911926 0.330474 0.084321
H87   H     H_    0.513538 0.587340 0.303570 0.081433
H88   H     H_    0.512929 0.412568 0.302807 0.080720
H89   H     H_    0.289439 0.911491 0.260372 0.084545
H90   H     H_    0.288274 0.088706 0.259273 0.098434
H91   H     H_    0.787598 0.410985 0.260435 0.085141
H92   H     H_    0.790446 0.588052 0.261308 0.086755
H93   H     H_    0.012190 0.834880 0.823386 0.083230
H94   H     H_    0.011700 0.164946 0.823200 0.083318
H95   H     H_    0.520998 0.336645 0.823001 0.083563
H96   H     H_    0.521871 0.663368 0.823065 0.082643
N1    N     N_R   0.950530 0.896220 0.057200 -0.035265
N2    N     N_R   0.950530 0.103780 0.057200 -0.036555
N3    N     N_R   0.450530 0.396220 0.057200 -0.033879
N4    N     N_R   0.450530 0.603780 0.057200 -0.034227
N5    N     N_R   0.893330 0.103780 0.942800 -0.035905
N6    N     N_R   0.893330 0.896220 0.942800 -0.035305
N7    N     N_R   0.393330 0.603780 0.942800 -0.035640
N8    N     N_R   0.393330 0.396220 0.942800 -0.035087
N9    N     N_R   0.818150 0.971400 0.792440 -0.033955
N10   N     N_R   0.818150 0.028600 0.792440 -0.034551
N11   N     N_R   0.318150 0.471400 0.792440 -0.033446
N12   N     N_R   0.318150 0.528600 0.792440 -0.033487
N13   N     N_R   0.025710 0.028600 0.207560 -0.031872
N14   N     N_R   0.025710 0.971400 0.207560 -0.031485
N15   N     N_R   0.525710 0.528600 0.207560 -0.033714
N16   N     N_R   0.525710 0.471400 0.207560 -0.033404
N17   N     N_R   0.181850 0.971400 0.207560 -0.040775
N18   N     N_R   0.181850 0.028600 0.207560 -0.045851
N19   N     N_R   0.681850 0.471400 0.207560 -0.042394
N20   N     N_R   0.681850 0.528600 0.207560 -0.045846
N21   N     N_R   0.974290 0.028600 0.792440 -0.035750
N22   N     N_R   0.974290 0.971400 0.792440 -0.035520
N23   N     N_R   0.474290 0.528600 0.792440 -0.032904
N24   N     N_R   0.474290 0.471400 0.792440 -0.032932
N25   N     N_R   0.049470 0.896220 0.942800 -0.030987
N26   N     N_R   0.049470 0.103780 0.942800 -0.031146
N27   N     N_R   0.549470 0.396220 0.942800 -0.032737
N28   N     N_R   0.549470 0.603780 0.942800 -0.032830
N29   N     N_R   0.106670 0.103780 0.057200 -0.031346
N30   N     N_R   0.106670 0.896220 0.057200 -0.030129
N31   N     N_R   0.606670 0.603780 0.057200 -0.031249
N32   N     N_R   0.606670 0.396220 0.057200 -0.030613
Ni1   Ni    Ni4+2 0.065600 0.934400 0.131190 0.209259
Ni2   Ni    Ni4+2 0.065600 0.065600 0.131190 0.208802
Ni3   Ni    Ni4+2 0.565600 0.434400 0.131190 0.206545
Ni4   Ni    Ni4+2 0.565600 0.565600 0.131190 0.208145
Ni5   Ni    Ni4+2 0.934400 0.065600 0.868810 0.206992
Ni6   Ni    Ni4+2 0.934400 0.934400 0.868810 0.206973
Ni7   Ni    Ni4+2 0.434400 0.565600 0.868810 0.207437
Ni8   Ni    Ni4+2 0.434400 0.434400 0.868810 0.206487
H97   H     H_    0.930744 0.871572 0.177461 0.090328
H98   H     H_    0.930821 0.129496 0.177151 0.092792
H99   H     H_    0.437503 0.355342 0.172731 0.080176
H100  H     H_    0.437120 0.643996 0.172744 0.081284
H101  H     H_    0.301001 0.742625 0.924442 0.154332
H102  H     H_    0.309428 0.255029 0.934139 0.155062
H103  H     H_    0.780619 0.233156 0.898595 0.151462
H104  H     H_    0.773185 0.770035 0.887965 0.147745
H105  H     H_    0.752690 0.131408 0.823238 0.087511
H106  H     H_    0.752107 0.868995 0.823560 0.087259
H107  H     H_    0.255094 0.633575 0.821693 0.088163
H108  H     H_    0.255855 0.365948 0.821377 0.089255
H109  H     H_    0.293255 0.813010 0.072675 0.149183
H110  H     H_    0.294993 0.186383 0.078875 0.169932
H111  H     H_    0.795708 0.312124 0.051986 0.155959
H112  H     H_    0.787057 0.684480 0.027141 0.169653
O1    O     O_3   0.465460 0.945558 0.255414 -0.676532
C113  C     C_3   0.457421 0.890776 0.218821 0.196686
H113  H     H_    0.416064 0.892188 0.127937 0.131245
H114  H     H_    0.417114 0.863512 0.237057 0.062547
C114  C     C_3   0.554638 0.866341 0.264109 -0.307242
H115  H     H_    0.593705 0.894511 0.245708 0.201588
H116  H     H_    0.595688 0.861346 0.354326 0.187608
C115  C     C_3   0.546243 0.810133 0.214306 -1.059215
H117  H     H_    0.510039 0.781008 0.235060 0.264345
H118  H     H_    0.617769 0.793857 0.248535 0.267110
H119  H     H_    0.506429 0.813286 0.123749 0.268246
O2    O     O_3   0.453149 0.068213 0.256371 -0.669895
C116  C     C_3   0.522376 0.056440 0.238476 0.322579
H120  H     H_    0.485115 0.041036 0.153085 0.123319
H121  H     H_    0.571767 0.023147 0.290674 0.114942
C117  C     C_3   0.574386 0.109227 0.247950 -0.367969
H122  H     H_    0.524185 0.137795 0.180739 0.205453
H123  H     H_    0.602004 0.130164 0.326972 0.203668
C118  C     C_3   0.656268 0.097308 0.240731 -1.065858
H124  H     H_    0.707610 0.068976 0.307569 0.268826
H125  H     H_    0.693077 0.136261 0.249641 0.275044
H126  H     H_    0.629915 0.078613 0.160132 0.270286
O3    O     O_3   0.977455 0.440847 0.272075 -0.627731
C119  C     C_3   0.956663 0.387277 0.226686 0.227064
H127  H     H_    0.935250 0.391157 0.141305 0.131407
H128  H     H_    0.895428 0.368495 0.219962 0.057288
C120  C     C_3   0.043673 0.349843 0.290727 -0.332532
H129  H     H_    0.104136 0.370241 0.298406 0.207977
H130  H     H_    0.062688 0.342193 0.374232 0.185314
C121  C     C_3   0.025488 0.294615 0.233764 -1.057299
H131  H     H_    0.967198 0.272862 0.228578 0.267831
H132  H     H_    0.089980 0.268819 0.281543 0.270486
H133  H     H_    0.007153 0.300602 0.150105 0.265584
O4    O     O_3   0.961191 0.552907 0.251051 -0.629459
C122  C     C_3   0.006331 0.598001 0.239300 0.235642
H134  H     H_    0.986483 0.595851 0.154381 0.132361
H135  H     H_    0.084280 0.594164 0.293524 0.078386
C123  C     C_3   0.976287 0.654589 0.254511 -0.378194
H136  H     H_    0.898280 0.656674 0.205775 0.203422
H137  H     H_    0.006162 0.661519 0.342177 0.184145
C124  C     C_3   0.012922 0.700416 0.219446 -1.034085
H138  H     H_    0.091270 0.700162 0.271775 0.264752
H139  H     H_    0.988741 0.740789 0.228673 0.267579
H140  H     H_    0.986608 0.694942 0.132542 0.261605
H141  H     H_    0.023958 0.088652 0.734878 0.087561
H142  H     H_    0.024019 0.911272 0.734968 0.087449
H143  H     H_    0.438227 0.588525 0.671669 0.083160
H144  H     H_    0.438258 0.411480 0.671673 0.083418
H145  H     H_    0.189122 0.165935 0.175437 0.081427
H146  H     H_    0.189020 0.834188 0.175650 0.084175
H147  H     H_    0.690705 0.665024 0.175851 0.084067
H148  H     H_    0.690093 0.334703 0.175712 0.084575
H149  H     H_    0.927132 0.037529 0.376608 0.157860
H150  H     H_    0.193099 0.947072 0.566747 0.152181
H151  H     H_    0.440744 0.590153 0.383076 0.143171
H152  H     H_    0.441632 0.409798 0.383885 0.143032

loop_
_geom_bond_atom_site_label_1
_geom_bond_atom_site_label_2
_ccdc_geom_bond_type
N7    Ni7   S    
C55   C59   S    
C15   C109  A    
C77   C101  A    
N15   N16   A    
C42   C58   S    
C42   C48   S    
N29   Ni2   S    
C46   C62   S    
C86   C88   S    
C42   H26   S    
C85   H77   S    
C62   C70   S    
C84   H68   S    
C35   H105  S    
C110  N22   A    
C17   C61   S    
C120  H129  S    
C19   C63   S    
C115  H117  S    
C77   H69   S    
C32   C104  S    
C79   C102  A    
C36   C97   A    
C51   C57   S    
N22   Ni6   S    
C78   C101  A    
C73   C81   S    
C44   C46   S    
C47   H35   S    
C11   C20   A    
C119  C120  S    
N2    Ni2   S    
C108  N20   A    
N26   N29   A    
C24   C32   S    
N21   N22   A    
C90   C92   S    
N19   N20   A    
N20   Ni4   S    
C82   H66   S    
C52   C58   S    
C21   H1    S    
C14   C107  A    
C63   C71   S    
C7    C19   A    
C114  H116  S    
O4    C122  S    
C53   C71   S    
C96   C104  A    
C30   H15   S    
C71   H49   S    
C89   C101  S    
C86   H80   S    
N23   Ni7   S    
C37   H107  S    
C13   C106  A    
C92   H84   S    
C38   H108  S    
C54   H42   S    
C67   H111  S    
N8    Ni8   S    
C26   H6    S    
C47   H29   S    
C21   H149  S    
C42   H22   S    
C23   H151  S    
C14   C88   S    
C77   N9    A    
C46   H34   S    
C115  H119  S    
C65   H37   S    
C61   C65   S    
C48   H30   S    
N11   Ni8   S    
N24   Ni8   S    
C25   H9    S    
C16   C111  A    
C76   O4    S    
C53   H41   S    
C29   H13   S    
C111  N23   A    
N27   N32   A    
C56   H44   S    
C93   C103  A    
C41   H21   S    
C55   H43   S    
C21   C31   S    
C82   C89   S    
C45   H33   S    
C64   C68   S    
C120  H130  S    
C3    H99   S    
C74   H62   S    
N26   Ni5   S    
C91   H81   S    
C1    H97   S    
N18   Ni2   S    
C54   H46   S    
C108  H92   S    
C110  H142  S    
C90   C102  S    
C36   N6    A    
C124  H139  S    
C107  N19   A    
C105  N17   A    
C74   C87   S    
C89   C91   S    
C43   C59   S    
N21   Ni5   S    
N3    N8    A    
C6    N26   A    
C71   H55   S    
C116  H120  S    
C118  H126  S    
C59   C100  S    
C72   H56   S    
C84   C90   S    
C9    H145  S    
C3    N3    A    
C123  H137  S    
C62   C66   S    
C1    N1    A    
N10   Ni5   S    
C117  H122  S    
C7    H95   S    
C28   H8    S    
N1    Ni1   S    
C36   H106  S    
C18   C62   S    
C46   H32   S    
C39   H17   S    
N9    N10   A    
C95   N15   A    
C80   C102  A    
C78   H70   S    
C119  H128  S    
C93   H85   S    
C107  H91   S    
N13   N14   A    
C50   C66   S    
C26   C33   S    
C105  H89   S    
N4    N7    A    
C12   N32   A    
C29   C31   S    
C13   C87   S    
C41   C47   S    
C51   C67   S    
N5    Ni5   S    
C43   C45   S    
C55   C69   S    
C113  H114  S    
C40   H19   S    
C24   H4    S    
C9    N29   A    
N27   Ni8   S    
C68   H112  S    
C96   H88   S    
C21   C25   S    
C65   H109  S    
C24   C28   S    
C113  C114  S    
C28   H12   S    
N16   Ni3   S    
N2    N5    A    
C49   C59   S    
N28   N31   A    
C83   H67   S    
C50   C60   S    
C116  H121  S    
C81   H65   S    
C14   C108  A    
C111  H143  S    
C79   H71   S    
C80   H72   S    
C122  C123  S    
C69   H53   S    
C6    H94   S    
C3    C99   A    
C9    C18   A    
C22   H2    S    
O2    C116  S    
C115  H118  S    
C116  C117  S    
C75   O3    S    
C118  H124  S    
C94   N14   A    
C72   H50   S    
C37   C100  A    
C25   C33   S    
C44   H24   S    
C22   H150  S    
C117  C118  S    
C51   H103  S    
C76   C84   S    
N30   Ni1   S    
C82   H74   S    
C66   H38   S    
C47   C63   S    
C121  H131  S    
C48   C64   S    
C5    C17   A    
N17   Ni1   S    
C73   C87   S    
C109  N21   A    
C35   C98   A    
C41   H25   S    
C81   C89   S    
C60   C99   S    
C55   H47   S    
C28   C34   S    
C44   H28   S    
C114  H115  S    
C15   C110  A    
C52   H60   S    
C74   C82   S    
N14   Ni1   S    
C7    N27   A    
C30   H16   S    
C75   H63   S    
C12   H148  S    
N3    Ni3   S    
C76   H64   S    
N9    Ni6   S    
C121  H133  S    
C13   C105  A    
N11   N12   A    
C53   C57   S    
C85   H78   S    
N32   Ni3   S    
C56   C60   S    
C70   H52   S    
N25   N30   A    
C50   H102  S    
O3    C119  S    
N15   Ni4   S    
C50   H58   S    
C8    C20   A    
C35   N5    A    
C4    H100  S    
C73   O1    S    
C8    N28   A    
C10   H146  S    
N12   Ni7   S    
C94   C103  A    
C34   C40   S    
C84   H76   S    
C16   C112  A    
C38   C99   A    
N1    N6    A    
C112  N24   A    
C56   H48   S    
C23   C32   S    
C2    H98   S    
C52   H104  S    
C41   C57   S    
C78   N10   A    
C49   H57   S    
C75   C83   S    
C44   C60   S    
C57   C98   S    
C12   C19   A    
C45   C61   S    
N4    Ni4   S    
C124  H138  S    
C22   C26   S    
C114  C115  S    
C45   H31   S    
C26   H10   S    
C66   H110  S    
C37   N7    A    
C30   C32   S    
C118  H125  S    
C122  H134  S    
C92   H83   S    
C85   C91   S    
C123  C124  S    
C86   H79   S    
C33   C39   S    
C49   C65   S    
C68   H40   S    
C117  H123  S    
C70   H54   S    
N19   Ni3   S    
N25   Ni6   S    
C10   C17   A    
C11   N31   A    
C8    H96   S    
C79   N11   A    
C96   N16   A    
C106  N18   A    
C43   H27   S    
N31   Ni4   S    
C23   C27   S    
O1    C113  S    
C76   C88   S    
C52   C68   S    
C16   C34   S    
C40   H20   S    
C112  H144  S    
C5    N25   A    
C29   H14   S    
N28   Ni7   S    
C83   H75   S    
C58   C97   S    
C81   H73   S    
N13   Ni2   S    
C85   C87   S    
C27   C34   S    
C6    C18   A    
C63   C67   S    
C2    N2    A    
C22   C31   S    
C67   H39   S    
C120  C121  S    
C1    C97   A    
C91   H82   S    
C27   H11   S    
C23   H3    S    
C94   H86   S    
C31   C103  S    
C20   C64   S    
C106  H90   S    
C49   H101  S    
C124  H140  S    
C29   C39   S    
N17   N18   A    
C30   C40   S    
N6    Ni6   S    
C43   H23   S    
C122  H135  S    
C10   N30   A    
C56   C70   S    
C4    C100  A    
C95   C104  A    
C54   C58   S    
C61   C69   S    
C83   C90   S    
C123  H136  S    
C69   H51   S    
C38   N8    A    
C25   H5    S    
C80   N12   A    
C39   H18   S    
C27   H7    S    
C53   H45   S    
C4    N4    A    
C119  H127  S    
C51   H59   S    
C24   H152  S    
C86   C92   S    
C121  H132  S    
C11   H147  S    
C48   H36   S    
C74   O2    S    
C64   C72   S    
C73   H61   S    
C113  H113  S    
C5    H93   S    
C75   C88   S    
C54   C72   S    
C2    C98   A    
C95   H87   S    
C109  H141  S    
N23   N24   A    
C93   N13   A    
C15   C33   S    
