data_mof_unit_54976.cif
_audit_creation_date              2012-10-26T18:33:58-0400
_audit_creation_method            fapswitch 2.2
_symmetry_space_group_name_H-M    P1
_symmetry_Int_Tables_number       1
_space_group_crystal_system       triclinic
_cell_length_a                    11.057173
_cell_length_b                    10.819932
_cell_length_c                    9.517065
_cell_angle_alpha                 90.413284
_cell_angle_beta                  102.626981
_cell_angle_gamma                 89.780739
_cell_volume                      1111.03113992

loop_
_atom_site_label
_atom_site_type_symbol
_atom_type_description
_atom_site_fract_x
_atom_site_fract_y
_atom_site_fract_z
_atom_type_partial_charge
C1    C     C_R   0.504547 0.262325 0.500417 0.584193
C2    C     C_2   0.872103 0.498404 0.591113 -0.089584
C3    C     C_2   0.067222 0.494777 0.515514 -0.140910
C4    C     C_2   0.932689 0.496267 0.484159 -0.111962
C5    C     C_R   0.575542 0.059419 0.418476 0.195195
C6    C     C_R   0.426172 0.940958 0.583273 0.248937
C7    C     C_R   0.567420 0.931369 0.418847 -0.159001
C8    C     C_R   0.433813 0.068946 0.582177 -0.143141
C9    C     C_R   0.494649 0.871747 0.500819 -0.028857
C10   C     C_R   0.506189 0.128479 0.499870 -0.037019
C11   C     C_R   0.495630 0.737765 0.499701 0.592978
C12   C     C_R   0.262742 0.498846 0.441730 0.580814
C13   C     C_R   0.737265 0.499914 0.558235 0.576836
C14   C     C_R   0.418319 0.428425 0.053057 0.060938
C15   C     C_R   0.581594 0.571671 0.946917 0.066537
C16   C     C_R   0.418411 0.428373 0.904254 0.038513
C17   C     C_R   0.581559 0.571658 0.095736 0.051676
C18   C     C_2   0.127893 0.497557 0.408712 -0.086241
Cu1   Cu    Cu3+1 0.500000 0.500020 0.640660 1.030503
Cu2   Cu    Cu3+1 0.500000 0.499980 0.359340 1.042074
H1    H     H_    0.882914 0.496149 0.372101 0.172568
H2    H     H_    0.380730 0.123340 0.643544 0.172675
H3    H     H_    0.544349 0.124391 0.119284 0.341179
H4    H     H_    0.184640 0.731597 0.642613 0.363395
H5    H     H_    0.116965 0.492645 0.627539 0.149826
H6    H     H_    0.353180 0.370766 0.092116 0.120309
H7    H     H_    0.646718 0.629344 0.907850 0.124353
H8    H     H_    0.922095 0.498678 0.703005 0.106021
H9    H     H_    0.077956 0.499597 0.296842 0.113740
H10   H     H_    0.353245 0.370739 0.831144 0.113280
H11   H     H_    0.646736 0.629280 0.168850 0.112161
H12   H     H_    0.620616 0.877097 0.357486 0.170538
N1    N     N_R   0.500030 0.500030 0.852080 -0.224184
N2    N     N_R   0.499970 0.499970 0.147920 -0.217761
O1    O     O_R   0.499990 0.319660 0.618740 -0.518148
O2    O     O_2   0.765048 0.032611 0.282970 -0.263761
O3    O     O_3   0.596714 0.192052 0.170156 -0.487995
O4    O     O_2   0.400332 0.815598 0.816579 -0.274956
O5    O     O_2   0.240539 0.969391 0.723579 -0.276189
O6    O     O_3   0.238687 0.764083 0.581102 -0.510381
O7    O     O_R   0.500010 0.680340 0.381260 -0.519876
O8    O     O_R   0.499990 0.319630 0.381170 -0.441071
O9    O     O_R   0.500010 0.680370 0.618830 -0.440531
O10   O     O_R   0.320690 0.500020 0.575130 -0.495135
O11   O     O_R   0.679310 0.499980 0.424870 -0.485452
O12   O     O_R   0.320680 0.499990 0.337560 -0.509677
O13   O     O_R   0.679320 0.500010 0.662440 -0.511557
O14   O     O_2   0.753548 0.226237 0.413117 -0.238479
S1    S     S_3+6 0.678320 0.127768 0.322026 0.049298
S2    S     S_3+6 0.325095 0.873170 0.682156 0.033332

loop_
_geom_bond_atom_site_label_1
_geom_bond_atom_site_label_2
_ccdc_geom_bond_type
C14   N2    A    
C2    C4    D    
C5    C7    A    
C11   O9    A    
O4    S2    D    
C16   N1    A    
O3    S1    S    
Cu2   O8    S    
Cu1   Cu2   S    
Cu2   N2    S    
C13   O13   A    
C6    C9    A    
Cu2   O7    S    
C5    C10   A    
C12   O10   A    
C18   H9    S    
Cu1   O1    S    
C6    S2    S    
C13   O11   A    
C4    H1    S    
C9    C11   S    
C5    S1    S    
O6    S2    S    
C15   C17   A    
C6    C8    A    
C12   O12   A    
O14   S1    D    
H4    O6    S    
Cu1   O9    S    
C11   O7    A    
C14   C16   A    
C17   H11   S    
Cu1   O13   S    
C17   N2    A    
C1    C10   S    
C16   H10   S    
C3    C4    S    
Cu2   O12   S    
C1    O8    A    
C3    H5    S    
O5    S2    D    
Cu1   O10   S    
C1    O1    A    
C3    C18   D    
C8    C10   A    
Cu1   N1    S    
C12   C18   S    
C7    C9    A    
C2    C13   S    
C2    H8    S    
C7    H12   S    
H3    O3    S    
C15   H7    S    
C8    H2    S    
C15   N1    A    
C14   H6    S    
O2    S1    D    
Cu2   O11   S    
