data_mof_unit_52615.cif
_audit_creation_date              2013-03-05T15:41:35-0500
_audit_creation_method            fapswitch 2.2
_symmetry_space_group_name_H-M    P1
_symmetry_Int_Tables_number       1
_space_group_crystal_system       triclinic
_cell_length_a                    24.732518
_cell_length_b                    17.516194
_cell_length_c                    15.425623
_cell_angle_alpha                 89.977621
_cell_angle_beta                  129.227749
_cell_angle_gamma                 89.935302
_cell_volume                      5176.65282839

loop_
_atom_site_label
_atom_site_type_symbol
_atom_site_description
_atom_site_fract_x
_atom_site_fract_y
_atom_site_fract_z
_atom_type_partial_charge
C1    C     C_R   0.349764 0.360320 0.239470 -0.158823
C2    C     C_R   0.346678 0.635789 0.229691 -0.155415
C3    C     C_R   0.846662 0.864785 0.228523 -0.161432
C4    C     C_R   0.834734 0.111790 0.200887 -0.157854
H1    H     H_    0.301338 0.348342 0.223390 0.092687
H2    H     H_    0.295224 0.644909 0.203644 0.090914
H3    H     H_    0.795033 0.855814 0.201765 0.090471
H4    H     H_    0.782604 0.111482 0.174552 0.085664
N1    N     N_R   0.389430 0.421450 0.294590 -0.038694
N2    N     N_R   0.389430 0.578550 0.294590 -0.037062
N3    N     N_R   0.889430 0.921450 0.294590 -0.037255
N4    N     N_R   0.889430 0.078550 0.294590 -0.037305
C5    C     C_R   0.650143 0.361345 0.758057 -0.090130
C6    C     C_R   0.666038 0.610249 0.797927 -0.069238
C7    C     C_R   0.166232 0.890235 0.798702 -0.069495
C8    C     C_R   0.166766 0.107145 0.801150 -0.118215
H5    H     H_    0.697707 0.347096 0.772386 0.105850
H6    H     H_    0.718078 0.611603 0.823721 0.083428
H7    H     H_    0.218416 0.889160 0.825020 0.079999
H8    H     H_    0.219419 0.106033 0.829546 0.078337
N5    N     N_R   0.612200 0.424040 0.705410 -0.052382
N6    N     N_R   0.612200 0.575960 0.705410 -0.044606
N7    N     N_R   0.112200 0.924040 0.705410 -0.042568
N8    N     N_R   0.112200 0.075960 0.705410 -0.040931
C9    C     C_R   0.615200 0.397449 0.406957 0.372800
C10   C     C_R   0.615386 0.602687 0.407580 0.373125
C11   C     C_R   0.116161 0.901261 0.407347 0.377549
C12   C     C_R   0.099908 0.131594 0.406038 0.377342
N9    N     N_R   0.581780 0.422390 0.443390 -0.051605
N10   N     N_R   0.581780 0.577610 0.443390 -0.050822
N11   N     N_R   0.081780 0.922390 0.443390 -0.047772
N12   N     N_R   0.081780 0.077610 0.443390 -0.059691
C13   C     C_R   0.387442 0.400251 0.594946 -0.154306
C14   C     C_R   0.406778 0.633154 0.597374 -0.127866
C15   C     C_R   0.907014 0.866897 0.597637 -0.127288
C16   C     C_R   0.910725 0.137608 0.596501 -0.126304
H9    H     H_    0.410332 0.400835 0.682162 0.090711
H10   H     H_    0.434115 0.642755 0.685150 0.092494
H11   H     H_    0.933545 0.857721 0.685353 0.092192
H12   H     H_    0.937265 0.147835 0.683931 0.093163
N13   N     N_R   0.419850 0.423100 0.556610 -0.033037
N14   N     N_R   0.419850 0.576900 0.556610 -0.036529
N15   N     N_R   0.919850 0.923100 0.556610 -0.038658
N16   N     N_R   0.919850 0.076900 0.556610 -0.041524
C17   C     C_R   0.689087 0.399105 0.592203 -0.141976
C18   C     C_R   0.688739 0.601731 0.593179 -0.119173
C19   C     C_R   0.189326 0.900645 0.592632 -0.102880
C20   C     C_R   0.170893 0.135078 0.593556 -0.203243
H13   H     H_    0.735715 0.401981 0.678596 0.096934
H14   H     H_    0.734779 0.600097 0.680156 0.096168
H15   H     H_    0.235400 0.900900 0.679767 0.093425
H16   H     H_    0.213556 0.145816 0.680578 0.112376
N17   N     N_R   0.627410 0.423100 0.556610 -0.053945
N18   N     N_R   0.627410 0.576900 0.556610 -0.052112
N19   N     N_R   0.127410 0.923100 0.556610 -0.048303
N20   N     N_R   0.127410 0.076900 0.556610 -0.059985
C21   C     C_R   0.312682 0.399719 0.409746 -0.157532
C22   C     C_R   0.327782 0.632172 0.410140 -0.147102
C23   C     C_R   0.828874 0.866880 0.410108 -0.150573
C24   C     C_R   0.834826 0.139574 0.408967 -0.135132
H17   H     H_    0.265868 0.398636 0.323356 0.091100
H18   H     H_    0.279770 0.640209 0.326154 0.081674
H19   H     H_    0.781121 0.858415 0.326054 0.083930
H20   H     H_    0.790230 0.152033 0.323370 0.089405
N21   N     N_R   0.374220 0.422390 0.443390 -0.031492
N22   N     N_R   0.374220 0.577610 0.443390 -0.031644
N23   N     N_R   0.874220 0.922390 0.443390 -0.035637
N24   N     N_R   0.874220 0.077610 0.443390 -0.040911
C25   C     C_R   0.559488 0.361045 0.759229 -0.143595
C26   C     C_R   0.576430 0.609897 0.800553 -0.150148
C27   C     C_R   0.076424 0.890463 0.800779 -0.147637
C28   C     C_R   0.076617 0.108014 0.801754 -0.148888
H21   H     H_    0.523383 0.345232 0.773312 0.098320
H22   H     H_    0.548213 0.609018 0.832618 0.094078
H23   H     H_    0.048046 0.891528 0.832564 0.094685
H24   H     H_    0.047972 0.106593 0.833070 0.094611
N25   N     N_R   0.555000 0.424040 0.705410 -0.046036
N26   N     N_R   0.555000 0.575960 0.705410 -0.041642
N27   N     N_R   0.055000 0.924040 0.705410 -0.040501
N28   N     N_R   0.055000 0.075960 0.705410 -0.039984
C29   C     C_R   0.441710 0.356859 0.242794 -0.108696
C30   C     C_R   0.440023 0.640544 0.237168 -0.105930
C31   C     C_R   0.940277 0.860513 0.236081 -0.088203
C32   C     C_R   0.922563 0.109144 0.195899 -0.067576
H25   H     H_    0.479024 0.336558 0.234476 0.136732
H26   H     H_    0.476675 0.660036 0.226895 0.135687
H27   H     H_    0.977360 0.842655 0.225379 0.140108
H28   H     H_    0.945594 0.101074 0.156544 0.106322
N29   N     N_R   0.446630 0.421450 0.294590 -0.048843
N30   N     N_R   0.446630 0.578550 0.294590 -0.047664
N31   N     N_R   0.946630 0.921450 0.294590 -0.051866
N32   N     N_R   0.946630 0.078550 0.294590 -0.043410
C33   C     C_R   0.381627 0.317819 0.206642 0.091283
C34   C     C_R   0.378433 0.677614 0.196463 0.090068
C35   C     C_R   0.878590 0.823467 0.194874 0.095207
C36   C     C_R   0.854132 0.132619 0.137514 0.096379
C37   C     C_R   0.617590 0.319980 0.790709 0.154499
C38   C     C_R   0.645485 0.631408 0.859866 0.143320
C39   C     C_R   0.145606 0.869321 0.860665 0.140751
C40   C     C_R   0.146096 0.127786 0.863085 0.151196
C41   C     C_R   0.683432 0.381067 0.499980 -0.029979
C42   C     C_R   0.683158 0.619902 0.501222 -0.042701
C43   C     C_R   0.184235 0.884738 0.500522 -0.042004
C44   C     C_R   0.153308 0.173151 0.500032 0.024620
C45   C     C_R   0.319369 0.385833 0.503959 0.040314
C46   C     C_R   0.349111 0.669617 0.506039 0.044231
C47   C     C_R   0.850101 0.830005 0.506332 0.055886
C48   C     C_R   0.856750 0.178025 0.504848 0.053901
Ni1   Ni    Ni4+2 0.382890 0.500000 0.370170 0.222727
Ni2   Ni    Ni4+2 0.882890 0.000000 0.370170 0.215856
Ni3   Ni    Ni4+2 0.618740 0.500000 0.629830 0.215779
Ni4   Ni    Ni4+2 0.118740 0.000000 0.629830 0.212881
Ni5   Ni    Ni4+2 0.514090 0.500000 0.370170 0.222786
Ni6   Ni    Ni4+2 0.014090 0.000000 0.370170 0.221959
Ni7   Ni    Ni4+2 0.487550 0.500000 0.629830 0.215097
Ni8   Ni    Ni4+2 0.987550 0.000000 0.629830 0.215980
C49   C     C_3   0.287191 0.337182 0.619194 -0.407760
C50   C     C_3   0.347493 0.762239 0.627108 -0.397461
C51   C     C_3   0.845494 0.743140 0.629105 -0.405300
C52   C     C_3   0.850319 0.264925 0.626604 -0.401316
H29   H     H_    0.281907 0.395591 0.641062 0.169912
H30   H     H_    0.365454 0.718567 0.692480 0.156236
H31   H     H_    0.853040 0.788936 0.685670 0.178838
H32   H     H_    0.859548 0.219276 0.684665 0.179635
H33   H     H_    0.341663 0.318314 0.687548 0.156830
H34   H     H_    0.394826 0.792709 0.651594 0.168774
H35   H     H_    0.898083 0.720424 0.665482 0.157714
H36   H     H_    0.902082 0.289246 0.661519 0.156995
C53   C     C_3   0.802108 0.679260 0.624907 -0.363976
C54   C     C_3   0.805234 0.327201 0.621991 -0.358977
C55   C     C_3   0.237547 0.281471 0.614981 -0.364950
C56   C     C_3   0.299593 0.818063 0.625552 -0.394537
H37   H     H_    0.830248 0.623908 0.646574 0.154714
H38   H     H_    0.831070 0.383654 0.640158 0.155005
H39   H     H_    0.270462 0.243705 0.689281 0.144779
H40   H     H_    0.326938 0.873710 0.660833 0.153818
H41   H     H_    0.202955 0.312804 0.625054 0.216098
H42   H     H_    0.289973 0.795428 0.681895 0.202960
H43   H     H_    0.798230 0.690735 0.691350 0.197569
H44   H     H_    0.803197 0.315995 0.690487 0.194937
C57   C     C_3   0.194199 0.355630 0.408802 -0.062294
C58   C     C_3   0.238334 0.688521 0.470352 -0.047398
C59   C     C_3   0.736547 0.812213 0.461806 -0.058708
C60   C     C_3   0.743180 0.192033 0.462869 -0.051031
C61   C     C_3   0.288876 0.254320 0.487070 -0.458792
C62   C     C_3   0.291580 0.792617 0.427987 -0.474897
C63   C     C_3   0.796139 0.705643 0.435529 -0.455308
C64   C     C_3   0.797644 0.301360 0.431189 -0.451507
C65   C     C_3   0.272691 0.335939 0.505301 0.323744
C66   C     C_3   0.307693 0.726717 0.509009 0.318624
C67   C     C_3   0.808090 0.774399 0.509262 0.312477
C68   C     C_3   0.813201 0.232622 0.507360 0.303289
H45   H     H_    0.775383 0.724349 0.350467 0.155117
H46   H     H_    0.777129 0.282323 0.346474 0.161729
H47   H     H_    0.272622 0.249360 0.401462 0.161874
H48   H     H_    0.260108 0.771151 0.340572 0.153635
H49   H     H_    0.345896 0.241793 0.547704 0.189439
H50   H     H_    0.340830 0.816353 0.450750 0.195209
H51   H     H_    0.846449 0.675754 0.473757 0.197342
H52   H     H_    0.846477 0.333765 0.467643 0.198856
C69   C     C_3   0.729763 0.674108 0.505061 0.210631
C70   C     C_3   0.731824 0.329225 0.503464 0.203917
C71   C     C_3   0.195475 0.234399 0.503727 0.204080
C72   C     C_3   0.230015 0.829346 0.503564 0.218004
C73   C     C_3   0.692049 0.753529 0.466876 0.245187
C74   C     C_3   0.697601 0.248215 0.469432 0.254203
C75   C     C_3   0.149064 0.290496 0.401467 0.237726
C76   C     C_3   0.189278 0.751844 0.454713 0.240475
C77   C     C_3   0.744521 0.650129 0.424691 -0.488367
C78   C     C_3   0.743906 0.353938 0.419887 -0.490706
C79   C     C_3   0.250434 0.194689 0.501120 -0.481763
C80   C     C_3   0.250805 0.856372 0.432369 -0.468498
H53   H     H_    0.765037 0.590703 0.442361 0.188919
H54   H     H_    0.761289 0.414447 0.433855 0.189453
H55   H     H_    0.288542 0.162970 0.580851 0.189382
H56   H     H_    0.283154 0.908973 0.469202 0.192273
H57   H     H_    0.697028 0.653722 0.336353 0.186636
H58   H     H_    0.695946 0.347561 0.332398 0.186903
H59   H     H_    0.228162 0.151705 0.434120 0.173511
H60   H     H_    0.205329 0.869804 0.345184 0.187881
H61   H     H_    0.184530 0.355017 0.327900 0.103162
H62   H     H_    0.211696 0.662459 0.386374 0.107866
H63   H     H_    0.708054 0.823994 0.371295 0.105280
H64   H     H_    0.714055 0.180337 0.372169 0.104325
H65   H     H_    0.642835 0.747472 0.379229 0.033026
H66   H     H_    0.647098 0.252310 0.382752 0.030982
H67   H     H_    0.131204 0.259208 0.325328 0.052484
H68   H     H_    0.149084 0.760020 0.362558 0.034290
H69   H     H_    0.291406 0.775354 0.180002 0.101999
H70   H     H_    0.288361 0.223768 0.180106 0.101247
H71   H     H_    0.715632 0.127537 0.991065 0.106147
H72   H     H_    0.791597 0.725903 0.178037 0.100715
H73   H     H_    0.704516 0.219629 0.808555 0.189247
H74   H     H_    0.783385 0.619430 0.010612 0.144246
H75   H     H_    0.283253 0.882540 0.012914 0.140286
H76   H     H_    0.284089 0.115696 0.016591 0.142608
C81   C     C_2   0.643423 0.248862 0.855070 -0.240772
C82   C     C_2   0.691043 0.662457 0.973335 -0.225812
C83   C     C_2   0.190969 0.838723 0.974516 -0.222240
C84   C     C_2   0.191165 0.158083 0.977276 -0.228529
C85   C     C_2   0.691395 0.207198 0.862207 -0.051422
C86   C     C_2   0.760283 0.655647 0.036524 -0.097650
C87   C     C_2   0.260163 0.846083 0.038588 -0.100988
C88   C     C_2   0.260545 0.151727 0.041894 -0.100181
C89   C     C_2   0.350279 0.747388 0.127693 0.286355
C90   C     C_2   0.354071 0.247021 0.139311 0.290483
C91   C     C_2   0.808397 0.164332 0.022922 0.242996
C92   C     C_2   0.850397 0.754078 0.125654 0.282311
C93   C     C_2   0.304502 0.790064 0.126806 -0.151943
C94   C     C_2   0.304475 0.207191 0.131662 -0.152567
C95   C     C_2   0.738461 0.158850 0.960609 -0.163406
C96   C     C_2   0.804590 0.711471 0.124632 -0.145338
H77   H     H_    0.629820 0.236184 0.908174 0.134011
H78   H     H_    0.668055 0.698303 0.000008 0.135455
H79   H     H_    0.167939 0.802604 0.000815 0.135951
H80   H     H_    0.167551 0.193412 0.003334 0.136708
C97   C     C_3   0.173393 0.436785 0.416735 -0.853899
H81   H     H_    0.206506 0.479498 0.416918 0.222906
H82   H     H_    0.118530 0.448890 0.342274 0.272119
H83   H     H_    0.178474 0.444522 0.492879 0.276653
C98   C     C_3   0.250249 0.621676 0.546552 -0.869116
H84   H     H_    0.283584 0.576866 0.550827 0.224874
H85   H     H_    0.275426 0.640725 0.632948 0.272263
H86   H     H_    0.199641 0.594503 0.511644 0.275044
C99   C     C_3   0.742519 0.891080 0.512668 -0.843629
H87   H     H_    0.764065 0.933926 0.488962 0.221736
H88   H     H_    0.690074 0.912054 0.478954 0.266735
H89   H     H_    0.776860 0.889176 0.605201 0.273454
C100  C     C_3   0.752020 0.112640 0.514882 -0.848619
H90   H     H_    0.772833 0.070764 0.488731 0.222113
H91   H     H_    0.788100 0.114459 0.607532 0.272338
H92   H     H_    0.700645 0.090317 0.484341 0.266705
N33   N     N_R   0.671722 0.778666 0.534013 0.249045
O1    O     O_R   0.605921 0.787357 0.485814 -0.398531
O2    O     O_R   0.717877 0.792211 0.640703 -0.417905
N34   N     N_R   0.680960 0.221538 0.540934 0.246949
O3    O     O_R   0.616134 0.210419 0.496908 -0.403346
O4    O     O_R   0.729453 0.208929 0.647418 -0.449417
N35   N     N_R   0.086166 0.317412 0.383592 0.246897
O5    O     O_R   0.025467 0.311848 0.284782 -0.414494
O6    O     O_R   0.089733 0.348490 0.463629 -0.405177
N36   N     N_R   0.151274 0.730398 0.495753 0.245389
O7    O     O_R   0.084240 0.718955 0.424279 -0.402550
O8    O     O_R   0.182588 0.725499 0.602159 -0.417362
C101  C     C_3   0.368253 0.765976 0.052581 -0.991677
H93   H     H_    0.403069 0.722556 0.058444 0.240784
H94   H     H_    0.320047 0.767800 0.963737 0.257881
H95   H     H_    0.394837 0.822176 0.076277 0.247017
C102  C     C_3   0.375943 0.225035 0.070288 -1.005762
H96   H     H_    0.413492 0.265753 0.079578 0.241020
H97   H     H_    0.400675 0.167662 0.096147 0.251805
H98   H     H_    0.329742 0.224143 0.979943 0.246037
C103  C     C_3   0.840950 0.208979 0.982074 -0.926040
H99   H     H_    0.898610 0.211759 0.045858 0.250973
H100  H     H_    0.827665 0.181686 0.905787 0.260506
H101  H     H_    0.821469 0.268740 0.962645 0.246539
C104  C     C_3   0.868450 0.735757 0.050609 -0.962142
H102  H     H_    0.903445 0.779080 0.057007 0.239230
H103  H     H_    0.894916 0.679399 0.073996 0.250271
H104  H     H_    0.820288 0.734412 0.961712 0.257873
C105  C     C_3   0.586568 0.404445 0.287735 -1.141053
H105  H     H_    0.535907 0.434786 0.236580 0.265182
H106  H     H_    0.622099 0.438070 0.282542 0.263007
H107  H     H_    0.578942 0.347257 0.250792 0.246698
C106  C     C_3   0.587955 0.594496 0.289198 -1.138668
H108  H     H_    0.538044 0.562930 0.238286 0.265833
H109  H     H_    0.579273 0.651250 0.250454 0.246573
H110  H     H_    0.624882 0.561514 0.286471 0.261513
C107  C     C_3   0.090324 0.918229 0.291471 -1.148413
H111  H     H_    0.038085 0.945278 0.240962 0.256014
H112  H     H_    0.125732 0.959502 0.295174 0.264281
H113  H     H_    0.086183 0.865108 0.248621 0.254706
C108  C     C_3   0.078542 0.129577 0.290742 -1.108921
H114  H     H_    0.054222 0.074137 0.251234 0.255913
H115  H     H_    0.041304 0.176216 0.238387 0.285922
H116  H     H_    0.123261 0.133048 0.291378 0.239555

loop_
_geom_bond_atom_site_label_1
_geom_bond_atom_site_label_2
_geom_bond_distance
_ccdc_geom_bond_type
C22   H18   1.077962 S    
C21   C45   1.376308 A    
C60   H64   1.115448 S    
C47   C67   1.446373 S    
C73   N33   1.475648 S    
C76   H68   1.114305 S    
C62   C80   1.533758 S    
N19   Ni4   1.855513 S    
C26   N26   1.343791 A    
C39   C83   1.461534 S    
C6    H6    1.080663 S    
C25   N25   1.342219 A    
N26   Ni7   1.859772 S    
C14   N14   1.314432 A    
C3    N3    1.335040 A    
C4    H4    1.079331 S    
C63   H51   1.113705 S    
C108  H116  1.101589 S    
C44   C71   1.472824 S    
C27   N27   1.342970 A    
C57   C65   1.564138 S    
C54   H38   1.113464 S    
C97   H83   1.107806 S    
C7    H7    1.080804 S    
N7    Ni4   1.842150 S    
C18   C42   1.372715 A    
C102  H96   1.106782 S    
C100  H90   1.108037 S    
C51   C53   1.523980 S    
C78   H58   1.102953 S    
C1    H1    1.079307 S    
C41   C70   1.475174 S    
C59   C99   1.549366 S    
C54   C70   1.562603 S    
C98   H86   1.110057 S    
C55   H39   1.109959 S    
N3    N31   1.414700 A    
N16   N24   1.353149 A    
C32   C36   1.383775 A    
C105  H105  1.105741 S    
H70   C94   1.085430 S    
C56   H40   1.113573 S    
C7    C39   1.387397 A    
H75   C87   1.085098 S    
C56   H42   1.109355 S    
H74   C86   1.084845 S    
C99   H89   1.107456 S    
C29   C33   1.393286 A    
N34   O3    1.301291 A    
N2    Ni1   1.875173 S    
C20   N20   1.321956 A    
C104  H102  1.108255 S    
C64   H52   1.113496 S    
N30   Ni5   1.889272 S    
C11   C43   1.386396 A    
C46   C66   1.452196 S    
C50   C66   1.552098 S    
C90   C102  1.517509 S    
C49   H29   1.110570 S    
H72   C96   1.086583 S    
C16   H12   1.078238 S    
C9    C41   1.387458 A    
C23   N23   1.319623 A    
C9    C105  1.500362 S    
C4    C36   1.382840 A    
N8    N28   1.414700 A    
C2    N2    1.335453 A    
C76   N36   1.475997 S    
N35   O5    1.301059 A    
C61   H47   1.114332 S    
N34   O4    1.301037 A    
C75   N35   1.474439 S    
N8    Ni4   1.842542 S    
C82   C86   1.336091 D    
C64   C78   1.532672 S    
C32   N32   1.345953 A    
C25   H21   1.080349 S    
C103  H99   1.108894 S    
C108  H115  1.106729 S    
C89   C93   1.348791 D    
H76   C88   1.084688 S    
C15   N15   1.313319 A    
C106  H108  1.105439 S    
C101  H95   1.110274 S    
C58   C98   1.549019 S    
C24   C48   1.386513 A    
C92   C96   1.349096 D    
C10   C106  1.499669 S    
C57   C97   1.542289 S    
N10   N18   1.353149 A    
C7    N7    1.331391 A    
C24   N24   1.323663 A    
C60   C68   1.573383 S    
C17   N17   1.320653 A    
C8    N8    1.334982 A    
C48   C68   1.458307 S    
C107  H111  1.107213 S    
N3    Ni2   1.875574 S    
C83   C87   1.335448 D    
C91   C95   1.350025 D    
C20   C44   1.385711 A    
C79   H59   1.104507 S    
C2    H2    1.076652 S    
C34   C89   1.471975 S    
C64   H46   1.112834 S    
N13   Ni7   1.872963 S    
C49   C55   1.538134 S    
C33   C90   1.479419 S    
C12   N12   1.324547 A    
C77   H57   1.102654 S    
N5    Ni3   1.842150 S    
C22   N22   1.321986 A    
C29   H25   1.069435 S    
C6    C38   1.386646 A    
C69   C77   1.555314 S    
C11   C107  1.498726 S    
C51   C67   1.551812 S    
C99   H88   1.110609 S    
N29   Ni5   1.892677 S    
C64   C68   1.550587 S    
C57   C75   1.550409 S    
C102  H97   1.110364 S    
C38   C82   1.461746 S    
C5    N5    1.333873 A    
C14   C46   1.372154 A    
C1    N1    1.334160 A    
C37   C81   1.463101 S    
C60   C100  1.549867 S    
C2    C34   1.387971 A    
C85   C95   1.462265 S    
C19   C43   1.373474 A    
C90   C94   1.350664 D    
N6    N26   1.414700 A    
N12   Ni6   1.881816 S    
N2    N30   1.414700 A    
N1    N29   1.414700 A    
C105  H106  1.102602 S    
C101  H93   1.108180 S    
C70   C74   1.564231 S    
C75   H67   1.104425 S    
C8    C40   1.386521 A    
C36   C91   1.477003 S    
C19   H15   1.080713 S    
C97   H81   1.108575 S    
C30   H26   1.070393 S    
C27   C39   1.384666 A    
C1    C33   1.391189 A    
C23   C47   1.381616 A    
C60   C74   1.546396 S    
C22   C46   1.382515 A    
N1    Ni1   1.875574 S    
C59   H63   1.115145 S    
N17   Ni3   1.855513 S    
C71   C75   1.574008 S    
C56   C72   1.563512 S    
C50   H30   1.109714 S    
C26   H22   1.081002 S    
C98   H84   1.108995 S    
C55   H41   1.106547 S    
C15   H11   1.078806 S    
N15   Ni8   1.872963 S    
C103  H101  1.110724 S    
C61   H49   1.114707 S    
C12   C44   1.399067 A    
N23   Ni2   1.864275 S    
N36   O8    1.301239 A    
C17   H13   1.079256 S    
C53   H43   1.106586 S    
C55   C71   1.565950 S    
C8    H8    1.080060 S    
C31   C35   1.388793 A    
C89   C101  1.515797 S    
C18   N18   1.314391 A    
C79   H55   1.114358 S    
C108  H114  1.101999 S    
C43   C72   1.468289 S    
C53   C69   1.563347 S    
C28   H24   1.081099 S    
N35   O6    1.300498 A    
C50   C56   1.523672 S    
N24   Ni2   1.864564 S    
C74   H66   1.113762 S    
C81   C85   1.336116 D    
N33   O2    1.301021 A    
N21   Ni1   1.864275 S    
C17   C41   1.375474 A    
C53   H37   1.113607 S    
C40   C84   1.464770 S    
C72   C76   1.571473 S    
N15   N23   1.353185 A    
C58   H62   1.114556 S    
C25   C37   1.390330 A    
C10   N10   1.330519 A    
C52   C68   1.553238 S    
C107  H112  1.109501 S    
C11   N11   1.329117 A    
N32   Ni6   1.889272 S    
C6    N6    1.330198 A    
C100  H91   1.107661 S    
C52   C54   1.528137 S    
C16   N16   1.317569 A    
C63   C77   1.528512 S    
C4    N4    1.335166 A    
C88   C94   1.463663 S    
C30   C34   1.387080 A    
C82   H78   1.087235 S    
N7    N27   1.414700 A    
C71   C79   1.549228 S    
C19   N19   1.315561 A    
C28   C40   1.383201 A    
C35   C92   1.471348 S    
C59   C73   1.544442 S    
C72   C80   1.552092 S    
N9    Ni5   1.878446 S    
C102  H98   1.110876 S    
C77   H53   1.113070 S    
C92   C104  1.515302 S    
N11   Ni6   1.878446 S    
C99   H87   1.108192 S    
C14   H10   1.077637 S    
C23   H19   1.077817 S    
N4    N32   1.414700 A    
N28   Ni8   1.859772 S    
C32   H28   1.072508 S    
C86   C96   1.457357 S    
N5    N25   1.414700 A    
C31   H27   1.075734 S    
C105  H107  1.108478 S    
N13   N21   1.353185 A    
C52   H36   1.113492 S    
C21   H17   1.079502 S    
C62   H50   1.113620 S    
C78   H54   1.112945 S    
C51   H31   1.111113 S    
C97   H82   1.110544 S    
C31   N31   1.341766 A    
C18   H14   1.079400 S    
C3    H3    1.076790 S    
C62   C66   1.556001 S    
C30   N30   1.343969 A    
C13   C45   1.371404 A    
C5    H5    1.079566 S    
C24   H20   1.079267 S    
C104  H104  1.110835 S    
C13   N13   1.323768 A    
C58   C66   1.566845 S    
C101  H94   1.110824 S    
C91   C103  1.516420 S    
C54   H44   1.106642 S    
C29   N29   1.345836 A    
C70   C78   1.557542 S    
C98   H85   1.107430 S    
C106  H109  1.108286 S    
H69   C93   1.086688 S    
C10   C42   1.387854 A    
C9    N9    1.332972 A    
C27   H23   1.081012 S    
C80   H60   1.102298 S    
C12   C108  1.501655 S    
C45   C65   1.459274 S    
H73   C85   1.085063 S    
N9    N17   1.353185 A    
C42   C69   1.466235 S    
N27   Ni8   1.856423 S    
N4    Ni2   1.875173 S    
N36   O7    1.301330 A    
C59   C67   1.569763 S    
C84   H80   1.087153 S    
C3    C35   1.390745 A    
N20   Ni4   1.855223 S    
N18   Ni3   1.855223 S    
C57   H61   1.112328 S    
N22   Ni1   1.864564 S    
C5    C37   1.393122 A    
C63   H45   1.113501 S    
C106  H110  1.103194 S    
C13   H9    1.080414 S    
C61   C79   1.518083 S    
C15   C47   1.370362 A    
C63   C67   1.551799 S    
C58   C76   1.545001 S    
C100  H92   1.110628 S    
C73   H65   1.113422 S    
C26   C38   1.386105 A    
N14   Ni7   1.869605 S    
C20   H16   1.076967 S    
C81   H77   1.087248 S    
C62   H48   1.113121 S    
C16   C48   1.375513 A    
N16   Ni8   1.869605 S    
C28   N28   1.343931 A    
N6    Ni3   1.842542 S    
C103  H100  1.110431 S    
C107  H113  1.108266 S    
C104  H103  1.110270 S    
N14   N22   1.353149 A    
C61   C65   1.557128 S    
C87   C93   1.458177 S    
C49   C65   1.555261 S    
C84   C88   1.336617 D    
C50   H34   1.113680 S    
C74   N34   1.475956 S    
N11   N19   1.353185 A    
N25   Ni7   1.856423 S    
C83   H79   1.087271 S    
C49   H33   1.112671 S    
N12   N20   1.353149 A    
N31   Ni6   1.892677 S    
C69   C73   1.566466 S    
C52   H32   1.110883 S    
N33   O1    1.301319 A    
H71   C95   1.084590 S    
C80   H56   1.113094 S    
C21   N21   1.321350 A    
N10   Ni5   1.881816 S    
C51   H35   1.113746 S    
