data_mof_unit_60269.cif
_audit_creation_date              2012-12-10T19:38:14-0500
_audit_creation_method            fapswitch 2.2
_symmetry_space_group_name_H-M    P1
_symmetry_Int_Tables_number       1
_space_group_crystal_system       tetragonal
_cell_length_a                    21.635451
_cell_length_b                    21.635451
_cell_length_c                    47.155493
_cell_angle_alpha                 90.0
_cell_angle_beta                  90.0
_cell_angle_gamma                 90.0
_cell_volume                      22073.1439232

loop_
_atom_site_label
_atom_site_type_symbol
_atom_type_description
_atom_site_fract_x
_atom_site_fract_y
_atom_site_fract_z
_atom_type_partial_charge
C1    C     C_R   0.000246 0.880126 0.999936 0.921224
C2    C     C_R   0.000400 0.685524 0.999286 -0.061818
C3    C     C_R   0.081323 0.420836 0.764635 0.350000
C4    C     C_R   0.079163 0.581323 0.264635 0.350000
C5    C     C_R   0.418678 0.079164 0.264635 0.350000
C6    C     C_R   0.920836 0.418677 0.264635 0.350000
C7    C     C_R   0.581322 0.920836 0.264635 0.350000
C8    C     C_R   0.540665 0.039703 0.779798 -0.179458
C9    C     C_R   0.960297 0.540665 0.779798 -0.179457
C10   C     C_R   0.459335 0.960297 0.779798 -0.179458
C11   C     C_R   0.039703 0.459335 0.779798 -0.179458
C12   C     C_R   0.040665 0.539702 0.279798 -0.179458
C13   C     C_R   0.314476 0.000400 0.999286 -0.061819
C14   C     C_R   0.460298 0.040665 0.279798 -0.179458
C15   C     C_R   0.959335 0.460297 0.279798 -0.179458
C16   C     C_R   0.539702 0.959335 0.279798 -0.179457
C17   C     C_R   0.500000 0.000000 0.764837 -0.094468
C18   C     C_R   1.000000 0.500000 0.764837 -0.094468
C19   C     C_R   1.000000 0.500000 0.264837 -0.094468
C20   C     C_R   0.500000 1.000000 0.264837 -0.094468
C21   C     C_R   0.543154 0.034091 0.809554 0.704730
C22   C     C_R   0.965908 0.543154 0.809554 0.704730
C23   C     C_R   0.456846 0.965908 0.809554 0.704730
C24   C     C_R   0.999600 0.314476 0.999286 -0.061818
C25   C     C_R   0.034091 0.456845 0.809554 0.704730
C26   C     C_R   0.043154 0.534091 0.309554 0.704730
C27   C     C_R   0.465909 0.043155 0.309554 0.704730
C28   C     C_R   0.956845 0.465909 0.309554 0.704730
C29   C     C_R   0.534091 0.956845 0.309554 0.704730
C30   C     C_R   0.513425 0.945511 0.868905 0.667097
C31   C     C_R   0.054489 0.513425 0.868905 0.667097
C32   C     C_R   0.486575 0.054489 0.868905 0.667096
C33   C     C_R   0.945511 0.486574 0.868905 0.667097
C34   C     C_R   0.013425 0.445511 0.368905 0.667096
C35   C     C_R   0.185524 0.499600 0.499286 -0.061816
C36   C     C_R   0.554489 0.013425 0.368905 0.667097
C37   C     C_R   0.986574 0.554489 0.368905 0.667097
C38   C     C_R   0.445511 0.986575 0.368905 0.667098
C39   C     C_R   0.513112 0.945464 0.898429 -0.278091
C40   C     C_R   0.054535 0.513112 0.898429 -0.278091
C41   C     C_R   0.486887 0.054536 0.898429 -0.278091
C42   C     C_R   0.945464 0.486887 0.898429 -0.278090
C43   C     C_R   0.013113 0.445464 0.398429 -0.278091
C44   C     C_R   0.554536 0.013112 0.398429 -0.278091
C45   C     C_R   0.986887 0.554535 0.398429 -0.278091
C46   C     C_R   0.500400 0.185524 0.499286 -0.061817
C47   C     C_R   0.445464 0.986888 0.398429 -0.278091
C48   C     C_R   0.500000 0.000000 0.913399 -0.224470
C49   C     C_R   1.000000 0.500000 0.913399 -0.224470
C50   C     C_R   0.000000 0.500000 0.413399 -0.224470
C51   C     C_R   0.500000 0.000000 0.413399 -0.224470
C52   C     C_R   0.053710 0.483714 0.130883 0.680246
C53   C     C_R   0.516286 0.053710 0.130883 0.680247
C54   C     C_R   0.946290 0.516286 0.130883 0.680247
C55   C     C_R   0.483714 0.946290 0.130883 0.680247
C56   C     C_R   0.553710 0.983715 0.630883 0.680246
C57   C     C_R   0.814475 0.500400 0.499286 -0.061818
C58   C     C_R   0.016286 0.553710 0.630883 0.680247
C59   C     C_R   0.446290 0.016285 0.630883 0.680248
C60   C     C_R   0.983714 0.446290 0.630883 0.680246
C61   C     C_R   0.000000 0.500000 0.086406 -0.241281
C62   C     C_R   0.500000 0.000000 0.086406 -0.241283
C63   C     C_R   0.500000 0.000000 0.586406 -0.241280
C64   C     C_R   0.000000 0.500000 0.586406 -0.241281
C65   C     C_R   0.000000 0.500000 0.145760 -0.034410
C66   C     C_R   0.500000 0.000000 0.145760 -0.034411
C67   C     C_R   0.500000 0.000000 0.645760 -0.034411
C68   C     C_R   0.499600 0.814476 0.499286 -0.061817
C69   C     C_R   1.000000 0.500000 0.645760 -0.034411
C70   C     C_R   0.781152 0.037581 0.017089 -0.147050
C71   C     C_R   0.962419 0.781152 0.017089 -0.147050
C72   C     C_R   0.218848 0.962418 0.017088 -0.147050
C73   C     C_R   0.037581 0.218848 0.017089 -0.147050
C74   C     C_R   0.281152 0.537580 0.517089 -0.147048
C75   C     C_R   0.462420 0.281152 0.517089 -0.147048
C76   C     C_R   0.718848 0.462419 0.517089 -0.147049
C77   C     C_R   0.537580 0.718848 0.517089 -0.147048
C78   C     C_R   0.814659 0.998520 0.999747 -0.025888
C79   C     C_R   0.719151 0.039048 0.016403 -0.099985
C80   C     C_R   0.001480 0.814659 0.999747 -0.025889
C81   C     C_R   0.185341 0.001480 0.999747 -0.025887
C82   C     C_R   0.998520 0.185341 0.999747 -0.025888
C83   C     C_R   0.314659 0.498520 0.499747 -0.025888
C84   C     C_R   0.501479 0.314659 0.499747 -0.025888
C85   C     C_R   0.685341 0.501479 0.499747 -0.025887
C86   C     C_R   0.498520 0.685341 0.499747 -0.025888
C87   C     C_R   0.782468 0.958262 0.981535 -0.112734
C88   C     C_R   0.041737 0.782468 0.981535 -0.112731
C89   C     C_R   0.217531 0.041739 0.981536 -0.112733
C90   C     C_R   0.960953 0.719151 0.016403 -0.099985
C91   C     C_R   0.958263 0.217531 0.981535 -0.112734
C92   C     C_R   0.282468 0.458263 0.481534 -0.112736
C93   C     C_R   0.541737 0.282468 0.481535 -0.112734
C94   C     C_R   0.717531 0.541738 0.481535 -0.112735
C95   C     C_R   0.458263 0.717531 0.481535 -0.112736
C96   C     C_R   0.717697 0.958093 0.981643 -0.144947
C97   C     C_R   0.041907 0.717697 0.981643 -0.144946
C98   C     C_R   0.282303 0.041908 0.981644 -0.144946
C99   C     C_R   0.958093 0.282303 0.981643 -0.144946
C100  C     C_R   0.217697 0.458094 0.481643 -0.144946
C101  C     C_R   0.280848 0.960951 0.016402 -0.099984
C102  C     C_R   0.541906 0.217697 0.481643 -0.144946
C103  C     C_R   0.782303 0.541907 0.481643 -0.144946
C104  C     C_R   0.458094 0.782303 0.481643 -0.144947
C105  C     C_R   0.119874 0.000246 0.999936 0.921224
C106  C     C_R   0.039047 0.280849 0.016403 -0.099985
C107  C     C_R   0.219151 0.539047 0.516403 -0.099986
C108  C     C_R   0.460953 0.219151 0.516403 -0.099986
C109  C     C_R   0.780848 0.460952 0.516403 -0.099985
C110  C     C_R   0.539047 0.780848 0.516403 -0.099985
C111  C     C_3   0.714999 0.088593 0.038225 1.090396
C112  C     C_3   0.911408 0.714999 0.038225 1.090395
C113  C     C_3   0.285001 0.911404 0.038224 1.090400
C114  C     C_3   0.088592 0.285001 0.038225 1.090396
C115  C     C_3   0.214999 0.588591 0.538226 1.090395
C116  C     C_R   0.999754 0.119874 0.999936 0.921223
C117  C     C_3   0.411409 0.214999 0.538226 1.090395
C118  C     C_3   0.785001 0.411407 0.538225 1.090396
C119  C     C_3   0.588591 0.785001 0.538226 1.090397
C120  C     C_3   0.786201 0.087336 0.038808 0.386291
C121  C     C_3   0.912665 0.786201 0.038808 0.386293
C122  C     C_3   0.213799 0.912662 0.038807 0.386287
C123  C     C_3   0.087335 0.213799 0.038808 0.386292
C124  C     C_3   0.286201 0.587333 0.538809 0.386293
C125  C     C_3   0.412666 0.286201 0.538809 0.386293
C126  C     C_3   0.713799 0.412664 0.538807 0.386291
C127  C     C_R   0.880126 0.999754 0.999936 0.921223
C128  C     C_3   0.587334 0.713799 0.538809 0.386294
C129  C     C_R   0.053774 0.484040 0.101360 -0.218632
C130  C     C_R   0.515961 0.053774 0.101360 -0.218632
C131  C     C_R   0.946226 0.515960 0.101360 -0.218632
C132  C     C_R   0.484039 0.946226 0.101360 -0.218633
C133  C     C_R   0.553774 0.984040 0.601360 -0.218631
C134  C     C_R   0.015960 0.553774 0.601360 -0.218631
C135  C     C_R   0.446226 0.015960 0.601360 -0.218632
C136  C     C_R   0.984040 0.446226 0.601360 -0.218632
C137  C     C_R   0.500000 0.000000 0.944496 0.924750
C138  C     C_R   0.500246 0.380126 0.499936 0.921224
C139  C     C_R   0.000000 0.500000 0.944496 0.924750
C140  C     C_R   1.000000 0.500000 0.444496 0.924750
C141  C     C_R   0.500000 1.000000 0.444496 0.924750
C142  C     C_R   0.620000 0.000068 0.999868 0.891156
C143  C     C_R   0.999931 0.620000 0.999868 0.891157
C144  C     C_R   0.379999 0.999931 0.999868 0.891156
C145  C     C_R   0.000068 0.380000 0.999868 0.891157
C146  C     C_R   0.120000 0.500069 0.499868 0.891156
C147  C     C_R   0.499931 0.120000 0.499868 0.891157
C148  C     C_R   0.879999 0.499931 0.499868 0.891157
C149  C     C_R   0.619874 0.500246 0.499936 0.921223
C150  C     C_R   0.500069 0.879999 0.499868 0.891157
C151  C     C_R   0.500000 0.000000 0.055332 0.984748
C152  C     C_R   1.000000 0.500000 0.055332 0.984748
C153  C     C_R   0.000000 0.500000 0.555332 0.984748
C154  C     C_R   0.500000 0.000000 0.555332 0.984749
C155  C     C_R   0.963470 0.458902 0.190246 0.697756
C156  C     C_R   0.541097 0.963470 0.190246 0.697756
C157  C     C_R   0.036529 0.541098 0.190246 0.697756
C158  C     C_R   0.458903 0.036530 0.190246 0.697756
C159  C     C_R   0.463471 0.958902 0.690246 0.697756
C160  C     C_R   0.499754 0.619874 0.499936 0.921223
C161  C     C_R   0.041098 0.463470 0.690246 0.697756
C162  C     C_R   0.536529 0.041098 0.690246 0.697756
C163  C     C_R   0.958902 0.536529 0.690246 0.697756
C164  C     C_R   0.042184 0.538057 0.219988 -0.188793
C165  C     C_R   0.461943 0.042184 0.219988 -0.188793
C166  C     C_R   0.957816 0.461942 0.219988 -0.188793
C167  C     C_R   0.538057 0.957816 0.219988 -0.188793
C168  C     C_R   0.542184 0.038058 0.719988 -0.188793
C169  C     C_R   0.961942 0.542184 0.719988 -0.188793
C170  C     C_R   0.457816 0.961942 0.719988 -0.188793
C171  C     C_R   0.380126 0.499754 0.499936 0.921223
C172  C     C_R   0.038058 0.457816 0.719988 -0.188793
C173  C     C_R   0.500000 0.000000 0.854030 -0.013735
C174  C     C_R   1.000000 0.500000 0.854030 -0.013735
C175  C     C_R   0.000000 0.500000 0.354030 -0.013734
C176  C     C_R   0.500000 1.000000 0.354030 -0.013736
C177  C     C_R   0.000000 0.500000 0.234953 -0.081679
C178  C     C_R   0.500000 1.000000 0.234953 -0.081679
C179  C     C_R   0.500000 0.000000 0.734953 -0.081679
C180  C     C_R   1.000000 0.500000 0.734953 -0.081679
C181  C     C_R   0.086331 0.573645 0.235143 0.321045
C182  C     C_R   0.685524 0.999600 0.999286 -0.061817
C183  C     C_R   0.426356 0.086332 0.235143 0.321045
C184  C     C_R   0.913668 0.426355 0.235143 0.321045
C185  C     C_R   0.573644 0.913668 0.235143 0.321045
C186  C     C_R   0.586331 0.073645 0.735143 0.321045
C187  C     C_R   0.926355 0.586331 0.735143 0.321046
C188  C     C_R   0.413669 0.926355 0.735143 0.321045
C189  C     C_R   0.073645 0.413668 0.735143 0.321045
C190  C     C_R   0.579163 0.081323 0.764635 0.349999
C191  C     C_R   0.918677 0.579164 0.764635 0.349999
C192  C     C_R   0.420837 0.918677 0.764635 0.350000
F1    F     F_    0.105691 0.467054 0.145060 -0.570081
F2    F     F_    0.107281 0.527293 0.854727 -0.588915
F3    F     F_    0.472707 0.107281 0.854727 -0.588915
F4    F     F_    0.892719 0.472707 0.854727 -0.588915
F5    F     F_    0.027293 0.392719 0.354727 -0.588915
F6    F     F_    0.607281 0.027292 0.354727 -0.588915
F7    F     F_    0.972707 0.607281 0.354727 -0.588915
F8    F     F_    0.392719 0.972708 0.354727 -0.588916
F9    F     F_    0.690036 0.142915 0.027772 -0.572522
F10   F     F_    0.857085 0.690036 0.027772 -0.572522
F11   F     F_    0.309964 0.857083 0.027770 -0.572522
F12   F     F_    0.532946 0.105691 0.145060 -0.570081
F13   F     F_    0.142915 0.309964 0.027772 -0.572522
F14   F     F_    0.190036 0.642914 0.527774 -0.572522
F15   F     F_    0.357086 0.190036 0.527773 -0.572522
F16   F     F_    0.809964 0.357084 0.527771 -0.572522
F17   F     F_    0.642914 0.809964 0.527773 -0.572522
F18   F     F_    0.687863 0.068531 0.063155 -0.663573
F19   F     F_    0.931470 0.687863 0.063155 -0.663573
F20   F     F_    0.312137 0.931464 0.063154 -0.663573
F21   F     F_    0.068530 0.312137 0.063155 -0.663574
F22   F     F_    0.187863 0.568528 0.563156 -0.663574
F23   F     F_    0.894309 0.532945 0.145060 -0.570081
F24   F     F_    0.431472 0.187863 0.563156 -0.663574
F25   F     F_    0.812137 0.431468 0.563155 -0.663574
F26   F     F_    0.568528 0.812137 0.563156 -0.663575
F27   F     F_    0.812688 0.140281 0.027657 -0.598569
F28   F     F_    0.859720 0.812688 0.027658 -0.598569
F29   F     F_    0.187312 0.859718 0.027655 -0.598571
F30   F     F_    0.140280 0.187312 0.027658 -0.598570
F31   F     F_    0.312688 0.640279 0.527659 -0.598567
F32   F     F_    0.359720 0.312688 0.527659 -0.598568
F33   F     F_    0.687312 0.359719 0.527657 -0.598569
F34   F     F_    0.467054 0.894309 0.145060 -0.570081
F35   F     F_    0.640279 0.687312 0.527659 -0.598569
F36   F     F_    0.605691 0.967055 0.645060 -0.570081
F37   F     F_    0.032945 0.605691 0.645060 -0.570080
F38   F     F_    0.394309 0.032945 0.645060 -0.570081
F39   F     F_    0.967055 0.394309 0.645060 -0.570081
F40   F     F_    0.527293 0.892719 0.854727 -0.588915
H1    H     H_    0.523723 0.902957 0.909541 0.215376
H2    H     H_    0.073207 0.807136 0.967702 0.171753
H3    H     H_    0.192864 0.073210 0.967703 0.171752
H4    H     H_    0.926793 0.192864 0.967702 0.171752
H5    H     H_    0.307136 0.426794 0.467701 0.171752
H6    H     H_    0.573206 0.307136 0.467701 0.171752
H7    H     H_    0.692864 0.573208 0.467702 0.171751
H8    H     H_    0.426794 0.692864 0.467701 0.171751
H9    H     H_    0.693020 0.926552 0.967849 0.168044
H10   H     H_    0.073448 0.693020 0.967849 0.168044
H11   H     H_    0.306980 0.073451 0.967850 0.168045
H12   H     H_    0.097043 0.523723 0.909541 0.215376
H13   H     H_    0.926552 0.306980 0.967849 0.168043
H14   H     H_    0.193020 0.426553 0.467848 0.168042
H15   H     H_    0.573447 0.193020 0.467848 0.168043
H16   H     H_    0.806980 0.573449 0.467849 0.168044
H17   H     H_    0.426553 0.806980 0.467848 0.168043
H18   H     H_    0.806930 0.071441 0.059100 0.109467
H19   H     H_    0.928559 0.806930 0.059100 0.109467
H20   H     H_    0.193070 0.928554 0.059099 0.109467
H21   H     H_    0.071440 0.193070 0.059100 0.109467
H22   H     H_    0.306930 0.571438 0.559101 0.109467
H23   H     H_    0.476277 0.097043 0.909541 0.215376
H24   H     H_    0.428561 0.306930 0.559100 0.109467
H25   H     H_    0.693070 0.428558 0.559100 0.109467
H26   H     H_    0.571439 0.693070 0.559100 0.109467
H27   H     H_    0.095626 0.471149 0.090228 0.232979
H28   H     H_    0.528852 0.095625 0.090228 0.232979
H29   H     H_    0.904374 0.528851 0.090228 0.232979
H30   H     H_    0.471148 0.904374 0.090228 0.232979
H31   H     H_    0.595626 0.971149 0.590228 0.232978
H32   H     H_    0.028851 0.595626 0.590228 0.232979
H33   H     H_    0.404374 0.028851 0.590228 0.232978
H34   H     H_    0.902957 0.476277 0.909541 0.215376
H35   H     H_    0.971149 0.404374 0.590228 0.232979
H36   H     H_    0.575635 0.210369 0.814778 0.405818
H37   H     H_    0.789631 0.575636 0.814778 0.405818
H38   H     H_    0.424364 0.789631 0.814778 0.405818
H39   H     H_    0.210369 0.424364 0.814778 0.405818
H40   H     H_    0.075636 0.710369 0.314778 0.405818
H41   H     H_    0.289632 0.075638 0.314778 0.405818
H42   H     H_    0.924364 0.289631 0.314778 0.405818
H43   H     H_    0.710368 0.924361 0.314778 0.405818
H44   H     H_    0.250021 0.618828 0.232520 0.405495
H45   H     H_    0.023723 0.402957 0.409541 0.215376
H46   H     H_    0.381175 0.250022 0.232520 0.405495
H47   H     H_    0.749979 0.381172 0.232520 0.405495
H48   H     H_    0.618825 0.749977 0.232520 0.405495
H49   H     H_    0.750021 0.118829 0.732520 0.405495
H50   H     H_    0.881171 0.750021 0.732520 0.405495
H51   H     H_    0.249979 0.881171 0.732520 0.405495
H52   H     H_    0.118828 0.249979 0.732520 0.405495
H53   H     H_    0.597043 0.023722 0.409541 0.215376
H54   H     H_    0.976277 0.597043 0.409541 0.215376
H55   H     H_    0.402957 0.976278 0.409541 0.215376
H56   H     H_    0.807136 0.926793 0.967702 0.171752
N1    N     N_R   1.000000 0.500000 0.176161 -0.335643
N2    N     N_R   0.500000 0.000000 0.176161 -0.335643
N3    N     N_R   0.500000 0.000000 0.676161 -0.335643
N4    N     N_R   0.000000 0.500000 0.676161 -0.335643
N5    N     N_R   0.500000 1.000000 0.823629 -0.337054
N6    N     N_R   1.000000 0.500000 0.823629 -0.337054
N7    N     N_R   1.000000 0.500000 0.323629 -0.337054
N8    N     N_R   0.500000 1.000000 0.323629 -0.337054
O1    O     O_R   0.000030 0.908460 0.023630 -0.607911
O2    O     O_R   0.091470 0.000060 0.976290 -0.625544
O3    O     O_3   0.602152 0.785933 0.243034 -0.469789
O4    O     O_2   0.676188 0.050567 0.696891 -0.188990
O5    O     O_2   0.648694 0.159118 0.704933 -0.165785
O6    O     O_3   0.714066 0.102155 0.743034 -0.469789
O7    O     O_2   0.949433 0.676189 0.696891 -0.188989
O8    O     O_2   0.840883 0.648694 0.704933 -0.165786
O9    O     O_3   0.897845 0.714066 0.743034 -0.469790
O10   O     O_2   0.323811 0.949433 0.696891 -0.188990
O11   O     O_2   0.351306 0.840882 0.704933 -0.165785
O12   O     O_3   0.285934 0.897845 0.743034 -0.469788
O13   O     O_R   0.999940 0.091470 0.976290 -0.625544
O14   O     O_2   0.050567 0.323811 0.696891 -0.188989
O15   O     O_2   0.159117 0.351306 0.704933 -0.165785
O16   O     O_3   0.102154 0.285934 0.743034 -0.469788
O17   O     O_R   0.908530 0.999940 0.976290 -0.625544
O18   O     O_R   0.500060 0.408530 0.476290 -0.625544
O19   O     O_R   0.591470 0.500060 0.476290 -0.625544
O20   O     O_R   0.499940 0.591470 0.476290 -0.625545
O21   O     O_R   0.408530 0.499940 0.476290 -0.625545
O22   O     O_R   0.500070 0.051830 0.958000 -0.621116
O23   O     O_R   0.948170 0.500070 0.958000 -0.621116
O24   O     O_R   0.499930 0.948170 0.958000 -0.621115
O25   O     O_R   0.091540 0.000030 0.023630 -0.607911
O26   O     O_R   0.051830 0.499930 0.958000 -0.621116
O27   O     O_R   0.000070 0.551830 0.458000 -0.621116
O28   O     O_R   0.448170 0.000070 0.458000 -0.621116
O29   O     O_R   0.999930 0.448170 0.458000 -0.621115
O30   O     O_R   0.551830 0.999930 0.458000 -0.621116
O31   O     O_R   0.591650 0.051830 0.999920 -0.576629
O32   O     O_R   0.948170 0.591650 0.999920 -0.576630
O33   O     O_R   0.408350 0.948170 0.999920 -0.576628
O34   O     O_R   0.051830 0.408350 0.999920 -0.576629
O35   O     O_R   0.091650 0.551830 0.499920 -0.576630
O36   O     O_R   0.999970 0.091540 0.023630 -0.607910
O37   O     O_R   0.448170 0.091650 0.499920 -0.576630
O38   O     O_R   0.908350 0.448170 0.499920 -0.576629
O39   O     O_R   0.551830 0.908350 0.499920 -0.576630
O40   O     O_R   0.591650 0.948400 0.999950 -0.620654
O41   O     O_R   0.051600 0.591650 0.999950 -0.620654
O42   O     O_R   0.408350 0.051600 0.999950 -0.620654
O43   O     O_R   0.948400 0.408350 0.999950 -0.620654
O44   O     O_R   0.091650 0.448400 0.499950 -0.620653
O45   O     O_R   0.551600 0.091650 0.499950 -0.620653
O46   O     O_R   0.908350 0.551600 0.499950 -0.620654
O47   O     O_R   0.908460 0.999970 0.023630 -0.607910
O48   O     O_R   0.448400 0.908350 0.499950 -0.620653
O49   O     O_R   0.500010 0.051830 0.041840 -0.603215
O50   O     O_R   0.948170 0.500010 0.041840 -0.603215
O51   O     O_R   0.499990 0.948170 0.041840 -0.603214
O52   O     O_R   0.051830 0.499990 0.041840 -0.603215
O53   O     O_R   0.000010 0.551830 0.541840 -0.603215
O54   O     O_R   0.448170 0.000010 0.541840 -0.603215
O55   O     O_R   0.999990 0.448170 0.541840 -0.603214
O56   O     O_R   0.551830 0.999990 0.541840 -0.603215
O57   O     O_2   0.935015 0.413901 0.175407 -0.429551
O58   O     O_R   0.500030 0.408460 0.523630 -0.607910
O59   O     O_2   0.586098 0.935014 0.175407 -0.429550
O60   O     O_2   0.064985 0.586099 0.175407 -0.429551
O61   O     O_2   0.413902 0.064986 0.175407 -0.429551
O62   O     O_2   0.435015 0.913901 0.675407 -0.429551
O63   O     O_2   0.086099 0.435015 0.675407 -0.429550
O64   O     O_2   0.564985 0.086099 0.675407 -0.429550
O65   O     O_2   0.913901 0.564985 0.675407 -0.429551
O66   O     O_2   0.589527 0.060122 0.824435 -0.446723
O67   O     O_2   0.939878 0.589527 0.824435 -0.446723
O68   O     O_2   0.410473 0.939878 0.824435 -0.446722
O69   O     O_R   0.591540 0.500030 0.523630 -0.607910
O70   O     O_2   0.060122 0.410473 0.824435 -0.446723
O71   O     O_2   0.089527 0.560122 0.324435 -0.446723
O72   O     O_2   0.439879 0.089528 0.324435 -0.446723
O73   O     O_2   0.910473 0.439878 0.324435 -0.446723
O74   O     O_2   0.560121 0.910472 0.324435 -0.446723
O75   O     O_2   0.667592 0.138310 0.795383 -0.173801
O76   O     O_2   0.615380 0.200864 0.759290 -0.200707
O77   O     O_3   0.555224 0.175249 0.805089 -0.464160
O78   O     O_2   0.861691 0.667593 0.795383 -0.173802
O79   O     O_2   0.799136 0.615380 0.759290 -0.200708
O80   O     O_R   0.499970 0.591540 0.523630 -0.607909
O81   O     O_3   0.824751 0.555224 0.805089 -0.464161
O82   O     O_2   0.332408 0.861690 0.795383 -0.173801
O83   O     O_2   0.384620 0.799136 0.759290 -0.200707
O84   O     O_3   0.444776 0.824751 0.805089 -0.464160
O85   O     O_2   0.138309 0.332407 0.795383 -0.173801
O86   O     O_2   0.200864 0.384620 0.759290 -0.200707
O87   O     O_3   0.175249 0.444775 0.805089 -0.464161
O88   O     O_2   0.167593 0.638309 0.295383 -0.173802
O89   O     O_2   0.115380 0.700863 0.259290 -0.200708
O90   O     O_3   0.055224 0.675249 0.305089 -0.464161
O91   O     O_R   0.408460 0.499970 0.523630 -0.607909
O92   O     O_2   0.361692 0.167594 0.295383 -0.173802
O93   O     O_2   0.299138 0.115382 0.259290 -0.200707
O94   O     O_3   0.324751 0.055226 0.305089 -0.464161
O95   O     O_2   0.832407 0.361691 0.295383 -0.173802
O96   O     O_2   0.884620 0.299137 0.259290 -0.200708
O97   O     O_3   0.944775 0.324751 0.305089 -0.464161
O98   O     O_2   0.638307 0.832406 0.295383 -0.173802
O99   O     O_2   0.700862 0.884617 0.259290 -0.200707
O100  O     O_3   0.675249 0.944774 0.305089 -0.464161
O101  O     O_2   0.176189 0.550567 0.196891 -0.188990
O102  O     O_R   0.000060 0.908530 0.976290 -0.625544
O103  O     O_2   0.148694 0.659117 0.204933 -0.165786
O104  O     O_3   0.214066 0.602154 0.243034 -0.469789
O105  O     O_2   0.449435 0.176189 0.196891 -0.188990
O106  O     O_2   0.340885 0.148696 0.204933 -0.165785
O107  O     O_3   0.397848 0.214067 0.243034 -0.469789
O108  O     O_2   0.823811 0.449433 0.196891 -0.188990
O109  O     O_2   0.851306 0.340883 0.204933 -0.165786
O110  O     O_3   0.785934 0.397846 0.243034 -0.469789
O111  O     O_2   0.550565 0.823811 0.196891 -0.188990
O112  O     O_2   0.659115 0.851304 0.204933 -0.165785
S1    S     S_3+6 0.606888 0.150594 0.780927 0.157728
S2    S     S_3+6 0.402807 0.157156 0.218871 0.163750
S3    S     S_3+6 0.842845 0.402805 0.218871 0.163750
S4    S     S_3+6 0.597193 0.842844 0.218871 0.163750
S5    S     S_3+6 0.657155 0.097196 0.718871 0.163750
S6    S     S_3+6 0.902805 0.657155 0.718871 0.163750
S7    S     S_3+6 0.342845 0.902804 0.718871 0.163750
S8    S     S_3+6 0.097195 0.342845 0.718871 0.163750
S9    S     S_3+6 0.849406 0.606888 0.780927 0.157728
S10   S     S_3+6 0.393112 0.849406 0.780927 0.157728
S11   S     S_3+6 0.150594 0.393112 0.780927 0.157728
S12   S     S_3+6 0.106888 0.650594 0.280927 0.157728
S13   S     S_3+6 0.349407 0.106889 0.280927 0.157728
S14   S     S_3+6 0.893112 0.349406 0.280927 0.157728
S15   S     S_3+6 0.650592 0.893110 0.280927 0.157728
S16   S     S_3+6 0.157155 0.597195 0.218871 0.163750
Zn1   Zn    Zn3+2 0.000000 0.000000 0.031570 1.079064
Zn2   Zn    Zn3+2 0.430820 0.000040 0.499920 1.101050
Zn3   Zn    Zn3+2 0.999960 0.430820 0.499920 1.101051
Zn4   Zn    Zn3+2 0.569180 0.999960 0.499920 1.101049
Zn5   Zn    Zn3+2 0.500000 0.500000 0.531570 1.079066
Zn6   Zn    Zn3+2 0.000000 0.000000 0.968360 1.044333
Zn7   Zn    Zn3+2 0.500000 0.500000 0.468360 1.044332
Zn8   Zn    Zn3+2 0.500040 0.069180 0.999920 1.101049
Zn9   Zn    Zn3+2 0.930820 0.500040 0.999920 1.101050
Zn10  Zn    Zn3+2 0.499960 0.930820 0.999920 1.101051
Zn11  Zn    Zn3+2 0.069180 0.499960 0.999920 1.101050
Zn12  Zn    Zn3+2 0.000040 0.569180 0.499920 1.101049

loop_
_geom_bond_atom_site_label_1
_geom_bond_atom_site_label_2
_ccdc_geom_bond_type
C165  C178  A    
C101  C113  S    
O18   Zn7   S    
C112  F10   S    
C74   C83   A    
O102  Zn6   S    
C54   C65   A    
C58   C134  A    
O104  S16   S    
C136  H35   S    
C63   C133  A    
C55   F34   S    
C120  H18   S    
C3    C189  A    
C185  S4    S    
C50   C140  S    
C121  H19   S    
C72   C101  A    
O90   S12   S    
C167  C185  A    
C67   N3    S    
O29   Zn3   S    
C2    C90   A    
C7    S15   S    
C161  C172  A    
O28   Zn2   S    
C57   C109  A    
C113  C122  S    
C8    C190  A    
O37   Zn2   S    
C83   C171  S    
C153  O53   A    
C115  C124  S    
C4    C12   A    
C137  O24   A    
H40   O90   S    
C142  O31   A    
C169  C180  A    
C88   C97   A    
C119  C128  S    
C155  N1    A    
O32   Zn9   S    
C78   C127  S    
C29   N8    A    
C138  O18   A    
C109  C118  S    
C139  O23   A    
C64   C134  A    
C56   F36   S    
C165  C183  A    
C35   C107  A    
C62   C132  A    
C161  N4    A    
C166  C184  A    
C169  C187  A    
C162  N3    A    
C28   O73   S    
H50   O9    S    
C39   H1    S    
O83   S10   D    
O6    S5    S    
C82   C91   A    
C6    C184  A    
C186  C190  A    
C146  O44   A    
C151  O49   A    
O52   Zn11  S    
O93   S13   D    
C37   C175  A    
C38   C176  A    
C16   C20   A    
C118  F25   S    
C166  C177  A    
C68   C110  A    
O35   Zn12  S    
C40   H12   S    
C142  C182  S    
O42   Zn8   S    
C121  F28   S    
C38   F8    S    
O9    S6    S    
C36   C44   A    
C158  N2    A    
C37   C45   A    
O86   S11   D    
C125  F32   S    
H42   O97   S    
O87   S11   S    
C70   C79   A    
C113  F20   S    
C183  S2    S    
C130  H28   S    
C163  O65   S    
O10   S7    D    
C32   C173  A    
C8    C17   A    
O23   Zn9   S    
C79   C182  A    
O16   S8    S    
C173  N5    S    
C45   C50   A    
C120  F27   S    
C156  O59   S    
O38   Zn3   S    
C153  O55   A    
C84   C93   A    
C113  F11   S    
O36   Zn1   S    
O103  S16   D    
C3    C11   A    
C86   C95   A    
C122  H20   S    
C94   H7    S    
C167  C178  A    
C171  O21   A    
C80   C88   A    
C55   C132  A    
O56   Zn4   S    
H41   O94   S    
O20   Zn7   S    
C9    C191  A    
O55   Zn3   S    
C76   C85   A    
C52   C65   A    
C158  C165  A    
O40   Zn10  S    
O7    S6    D    
C152  O50   A    
C78   C87   A    
C149  O69   A    
C64   C136  A    
C11   C18   A    
C159  C170  A    
C60   F39   S    
C62   C130  A    
C111  F9    S    
C31   C40   A    
C44   H53   S    
C25   O70   S    
C33   C42   A    
C27   O72   S    
O19   Zn7   S    
C24   C145  S    
C75   C84   A    
C11   C25   A    
C40   C49   A    
C13   C144  S    
O107  S2    S    
O30   Zn4   S    
C164  C181  A    
C59   C67   A    
C74   C107  A    
O112  S4    D    
C33   F4    S    
C70   C120  S    
C76   C109  A    
C73   C123  S    
C141  O28   A    
C46   C108  A    
C32   C41   A    
C146  O35   A    
C4    C181  A    
C60   C136  A    
C163  N4    A    
C61   C129  A    
C116  O13   A    
C17   C179  A    
O12   S7    S    
O50   Zn9   S    
C18   C180  A    
H39   O87   S    
O75   S1    D    
C143  O32   A    
O85   S11   D    
C23   O68   S    
O97   S14   S    
O13   Zn6   S    
C51   C141  S    
C81   C105  S    
O45   Zn4   S    
C168  C186  A    
C112  F19   S    
C21   N5    A    
C191  S9    S    
C160  O20   A    
O8    S6    D    
C64   C153  S    
O91   Zn5   S    
O89   S12   D    
C12   C26   A    
O98   S15   D    
C148  O46   A    
O39   Zn4   S    
C29   O74   S    
C43   H45   S    
C139  O26   A    
O81   S9    S    
O46   Zn12  S    
C38   C47   A    
O94   S13   S    
C156  N2    A    
C33   C174  A    
C157  C164  A    
C127  O47   A    
C162  C168  A    
C114  C123  S    
C152  O52   A    
O15   S8    D    
C127  O17   A    
C49   C139  S    
C154  O56   A    
C42   H34   S    
C105  O2    A    
C35   C100  A    
H51   O12   S    
C132  H30   S    
C133  H31   S    
C108  C117  S    
C7    C185  A    
C102  H15   S    
C129  H27   S    
C110  C119  S    
C4    S12   S    
C43   C50   A    
C5    S13   S    
C85   C149  S    
O26   Zn11  S    
C41   H23   S    
C114  F13   S    
C89   C98   A    
C188  C192  A    
C89   H3    S    
C111  F18   S    
C112  C121  S    
C161  O63   S    
C71   C90   A    
C60   C69   A    
O11   S7    D    
O95   S14   D    
C30   C39   A    
C96   H9    S    
C100  H14   S    
C61   C131  A    
H36   O77   S    
O80   Zn5   S    
C24   C106  A    
C115  F14   S    
C170  C188  A    
C157  O60   S    
C91   C99   A    
C117  C125  S    
H49   O6    S    
C144  O33   A    
C131  H29   S    
C31   C174  A    
C74   C124  S    
C76   C126  S    
O21   Zn7   S    
O44   Zn3   S    
O79   S9    D    
O78   S9    D    
C15   C19   A    
C184  S3    S    
C52   C129  A    
C158  O61   S    
C1    O1    A    
C116  O36   A    
C36   F6    S    
O69   Zn5   S    
O47   Zn1   S    
O31   Zn8   S    
C192  S10   S    
H44   O104  S    
C34   C175  A    
C2    C97   A    
C154  O54   A    
C119  F26   S    
C90   C112  S    
C14   C27   A    
C99   H13   S    
C72   C81   A    
C81   C89   A    
C172  C180  A    
C75   C108  A    
C105  O25   A    
O4    S5    D    
C32   F3    S    
O53   Zn12  S    
C71   C121  S    
C150  O39   A    
C54   F23   S    
C57   C103  A    
C119  F17   S    
H38   O84   S    
C62   C151  S    
C34   C43   A    
C14   C20   A    
C87   H56   S    
C124  H22   S    
C138  O58   A    
O58   Zn5   S    
C47   C51   A    
C26   O71   S    
C10   C192  A    
C75   C125  S    
C35   C146  S    
C125  H24   S    
C54   C131  A    
C150  O48   A    
H37   O81   S    
C46   C147  S    
C190  S1    S    
C171  O91   A    
O99   S15   D    
C5    C14   A    
O105  S2    D    
C7    C16   A    
C94   C103  A    
C36   C176  A    
O110  S3    S    
O77   S1    S    
C140  O27   A    
C126  F33   S    
O3    S4    S    
C22   N6    A    
C159  O62   S    
C73   C82   A    
C55   C66   A    
C147  O37   A    
C65   N1    S    
O101  S16   D    
C134  H32   S    
C104  H17   S    
C174  N6    S    
C126  H25   S    
C68   C104  A    
C63   C154  S    
C96   C182  A    
C117  F15   S    
C93   C102  A    
C20   C178  A    
C58   C69   A    
C79   C111  S    
C172  C189  A    
C168  C179  A    
C88   H2    S    
C170  C179  A    
C103  H16   S    
O82   S10   D    
C69   N4    S    
O109  S3    D    
C82   C116  S    
C47   H55   S    
O54   Zn2   S    
C15   C28   A    
C12   C19   A    
C59   C135  A    
C95   H8    S    
C163  C169  A    
C187  S6    S    
C159  N3    A    
C123  H21   S    
C45   H54   S    
O1    Zn1   S    
C57   C148  S    
C1    C80   S    
C155  C166  A    
C23   N5    A    
C86   C160  S    
C5    C183  A    
C39   C48   A    
C25   N6    A    
C70   C78   A    
C24   C99   A    
C175  N7    S    
C176  N8    S    
C148  O38   A    
C27   N8    A    
C1    O102  A    
C6    S14   S    
C56   C133  A    
H52   O16   S    
C83   C92   A    
C46   C102  A    
C48   C137  S    
C106  C114  S    
O27   Zn12  S    
C9    C22   A    
C10   C17   A    
O51   Zn10  S    
O88   S12   D    
C189  S8    S    
C30   F40   S    
C13   C98   A    
C6    C15   A    
O34   Zn11  S    
C122  F29   S    
C140  O29   A    
O108  S3    D    
C181  S16   S    
C187  C191  A    
O100  S15   S    
C97   H10   S    
C84   C138  S    
C143  O41   A    
C2    C143  S    
C114  F21   S    
C77   C110  A    
C71   C80   A    
C149  O19   A    
O84   S10   S    
C123  F30   S    
C92   H5    S    
C53   F12   S    
O48   Zn2   S    
C141  O30   A    
O43   Zn9   S    
O106  S2    D    
C157  N1    A    
O5    S5    D    
O92   S13   D    
O41   Zn11  S    
O2    Zn6   S    
H43   O100  S    
C156  C167  A    
C16   C29   A    
C52   F1    S    
C91   H4    S    
C137  O22   A    
C115  F22   S    
O25   Zn1   S    
C111  C120  S    
C186  S5    S    
C128  H26   S    
C117  F24   S    
C118  F16   S    
C142  O40   A    
O24   Zn10  S    
C85   C94   A    
C9    C18   A    
C124  F31   S    
C93   H6    S    
O22   Zn8   S    
C87   C96   A    
C8    C21   A    
C98   H11   S    
O111  S4    D    
C53   C66   A    
C107  C115  S    
O76   S1    D    
C77   C128  S    
C160  O80   A    
C44   C51   A    
H47   O110  S    
C77   C86   A    
C26   N7    A    
O33   Zn10  S    
C13   C101  A    
C22   O67   S    
C95   C104  A    
C92   C100  A    
C68   C150  S    
C19   C177  A    
H48   O3    S    
C30   C173  A    
C72   C122  S    
C162  O64   S    
C145  O43   A    
C31   F2    S    
C10   C23   A    
C56   C67   A    
C21   O66   S    
O49   Zn8   S    
C188  S7    S    
C3    S11   S    
C144  O42   A    
C58   F37   S    
C34   F5    S    
C73   C106  A    
O96   S14   D    
C128  F35   S    
C63   C135  A    
C41   C48   A    
C37   F7    S    
C145  O34   A    
C61   C152  S    
C151  O51   A    
C42   C49   A    
O14   S8    D    
O17   Zn6   S    
H46   O107  S    
C66   N2    S    
C135  H33   S    
C155  O57   S    
C53   C130  A    
C118  C126  S    
C28   N7    A    
C59   F38   S    
C164  C177  A    
C147  O45   A    
