data_mof_unit_54776.cif
_audit_creation_date              2013-03-05T16:05:40-0500
_audit_creation_method            fapswitch 2.2
_symmetry_space_group_name_H-M    P1
_symmetry_Int_Tables_number       1
_space_group_crystal_system       triclinic
_cell_length_a                    10.796211
_cell_length_b                    14.902435
_cell_length_c                    15.619286
_cell_angle_alpha                 85.867469
_cell_angle_beta                  88.291512
_cell_angle_gamma                 101.352387
_cell_volume                      2454.92335339

loop_
_atom_site_label
_atom_site_type_symbol
_atom_site_description
_atom_site_fract_x
_atom_site_fract_y
_atom_site_fract_z
_atom_type_partial_charge
O1    O     O_R   0.462770 0.383110 0.605620 -0.589399
O2    O     O_R   0.510160 0.531900 0.639510 -0.624061
C1    C     C_R   0.474591 0.444705 0.662216 0.926346
O3    O     O_R   0.661510 0.425600 0.483070 -0.640548
O4    O     O_R   0.708900 0.574390 0.516960 -0.632588
C2    C     C_R   0.742378 0.501392 0.489460 0.832957
Zn1   Zn    Zn3+2 0.468350 0.400660 0.477370 0.929231
Zn2   Zn    Zn3+2 0.531650 0.599340 0.522630 0.928445
O5    O     O_R   0.489840 0.468100 0.360490 -0.641186
O6    O     O_R   0.537230 0.616890 0.394380 -0.634592
O7    O     O_R   0.291100 0.425610 0.483040 -0.626574
O8    O     O_R   0.338490 0.574400 0.516930 -0.639277
C3    C     C_R   0.510880 0.556122 0.338902 0.859078
C4    C     C_R   0.258437 0.500581 0.503348 0.828324
C5    C     C_3   0.904634 0.423430 0.552797 -0.164070
H1    H     H_    0.875025 0.357678 0.525982 0.146360
C6    C     C_3   0.045871 0.424899 0.561512 -0.505221
H2    H     H_    0.070853 0.426618 0.629202 0.180425
H3    H     H_    0.067674 0.358124 0.544139 0.179424
H4    H     H_    0.105875 0.414633 0.401613 0.166594
C7    C     C_3   0.936207 0.475160 0.390350 0.020178
C8    C     C_3   0.956190 0.600137 0.506299 -0.168566
C9    C     C_3   0.880614 0.500337 0.482255 -0.061563
H5    H     H_    0.909460 0.607088 0.568817 0.167318
C10   C     C_3   0.123462 0.504131 0.500777 0.039514
C11   C     C_3   0.084667 0.484602 0.405805 -0.121475
C12   C     C_3   0.096093 0.598183 0.527557 -0.172679
H6    H     H_    0.160000 0.651140 0.485071 0.138516
C13   C     C_R   0.424932 0.416532 0.751967 -0.158962
C14   C     C_R   0.487968 0.587578 0.251154 -0.067000
C15   C     C_R   0.295686 0.300201 0.853256 0.049871
C16   C     C_R   0.340932 0.330815 0.769288 0.073150
C17   C     C_R   0.445059 0.477856 0.818480 -0.121998
C18   C     C_R   0.379942 0.451358 0.899698 -0.025868
C19   C     C_R   0.327411 0.357652 0.921253 0.033945
C20   C     C_R   0.378064 0.514491 0.963330 0.088638
C21   C     C_R   0.373734 0.483214 0.050570 0.063631
C22   C     C_R   0.338042 0.387882 0.072706 -0.287836
C23   C     C_R   0.311579 0.325762 0.009524 -0.003438
C24   C     C_R   0.378234 0.607849 0.942022 -0.229207
C25   C     C_R   0.402215 0.671929 0.002145 -0.239535
C26   C     C_R   0.428470 0.644519 0.085719 0.160918
C27   C     C_R   0.410928 0.548990 0.111262 0.071066
C28   C     C_R   0.473888 0.710700 0.143536 0.094246
C29   C     C_R   0.502493 0.681292 0.226241 -0.233975
C30   C     C_R   0.440758 0.522530 0.194437 -0.321922
H7    H     H_    0.434017 0.451222 0.215264 0.161149
H8    H     H_    0.536005 0.731759 0.271063 0.144352
H9    H     H_    0.405956 0.743370 0.981391 0.163259
H10   H     H_    0.327407 0.359645 0.138736 0.143121
H11   H     H_    0.360306 0.632748 0.878518 0.160021
N1    N     N_R   0.573860 0.731700 0.552730 -0.128513
N2    N     N_R   0.426060 0.268290 0.447230 -0.099056
C31   C     C_R   0.724965 0.850178 0.607367 -0.000353
C32   C     C_R   0.684220 0.759085 0.590743 0.031248
C33   C     C_R   0.502729 0.791454 0.523915 -0.090422
C34   C     C_R   0.541194 0.886345 0.533202 -0.050592
C35   C     C_R   0.650745 0.915681 0.581149 0.103058
C36   C     C_R   0.477051 0.952527 0.493674 0.079640
C37   C     C_R   0.510476 0.045356 0.512763 0.048046
C38   C     C_R   0.611083 0.070809 0.566793 -0.297929
C39   C     C_R   0.682345 0.008861 0.599111 0.095903
C40   C     C_R   0.386427 0.929726 0.431335 -0.296777
C41   C     C_R   0.338640 0.996722 0.382212 -0.010801
C42   C     C_R   0.373995 0.089501 0.400615 0.120087
C43   C     C_R   0.449746 0.112068 0.471722 -0.013246
C44   C     C_R   0.339368 0.161190 0.348787 -0.323788
C45   C     C_R   0.366447 0.250276 0.373523 0.015360
C46   C     C_R   0.466550 0.202604 0.496536 -0.076782
H12   H     H_    0.510400 0.222503 0.554929 0.128375
H13   H     H_    0.339604 0.305389 0.334027 0.124341
H14   H     H_    0.740509 0.709072 0.609703 0.161431
H15   H     H_    0.417503 0.762560 0.493567 0.136659
H16   H     H_    0.643666 0.140882 0.580323 0.129676
H17   H     H_    0.355427 0.859916 0.415964 0.135842
H18   H     H_    0.294355 0.150105 0.288530 0.165497
C47   C     C_R   0.898687 0.535836 0.312742 0.079378
C48   C     C_R   0.783611 0.503385 0.272547 -0.195090
C49   C     C_R   0.759257 0.539538 0.191306 -0.131965
C50   C     C_R   0.842934 0.613972 0.150543 -0.122507
C51   C     C_R   0.950465 0.652921 0.191527 -0.151445
C52   C     C_R   0.977033 0.616316 0.272313 -0.085983
H19   H     H_    0.715502 0.445179 0.301330 0.170352
H20   H     H_    0.676810 0.508187 0.158848 0.148781
H21   H     H_    0.824009 0.641907 0.087492 0.121114
H22   H     H_    0.014384 0.710861 0.159531 0.123749
H23   H     H_    0.056174 0.654539 0.303039 0.160789
N3    N     N_3   0.169506 0.541981 0.338853 -0.480677
H24   H     H_    0.234891 0.505372 0.315591 0.191283
H25   H     H_    0.221610 0.600863 0.362655 0.180823
C53   C     C_R   0.296638 0.227580 0.036930 0.130697
C54   C     C_R   0.400710 0.184819 0.027941 -0.163571
C55   C     C_R   0.383080 0.089209 0.036078 -0.160065
C56   C     C_R   0.261567 0.036333 0.051734 -0.085437
C57   C     C_R   0.158700 0.078904 0.064782 -0.129166
C58   C     C_R   0.176672 0.174495 0.060166 -0.204483
H26   H     H_    0.493917 0.225355 0.010235 0.124607
H27   H     H_    0.462591 0.056130 0.026512 0.130935
H28   H     H_    0.247179 0.962507 0.051988 0.132072
H29   H     H_    0.064169 0.038176 0.075141 0.125490
H30   H     H_    0.095719 0.206757 0.066531 0.120307
N4    N     N_3   0.205126 0.215294 0.864354 -0.486706
H31   H     H_    0.126284 0.223607 0.901051 0.194819
H32   H     H_    0.247125 0.162923 0.890541 0.213384
N5    N     N_3   0.299907 0.273670 0.701074 -0.423202
H33   H     H_    0.325332 0.210005 0.713886 0.190532
H34   H     H_    0.201431 0.263733 0.699087 0.194197
C59   C     C_R   0.551093 0.559931 0.813282 0.178092
C60   C     C_R   0.538538 0.644564 0.771878 -0.117778
C61   C     C_R   0.622220 0.725363 0.787646 -0.167505
C62   C     C_R   0.724774 0.722209 0.839264 -0.112015
C63   C     C_R   0.739956 0.638639 0.879228 -0.153560
C64   C     C_R   0.651432 0.558706 0.868536 -0.126761
H35   H     H_    0.457388 0.649446 0.734053 0.154054
H36   H     H_    0.605763 0.790806 0.761212 0.140686
H37   H     H_    0.790327 0.784801 0.850274 0.114849
H38   H     H_    0.817233 0.636344 0.921366 0.115852
H39   H     H_    0.657460 0.496278 0.906686 0.117966
C65   C     C_R   0.829391 0.408382 0.639559 0.131500
C66   C     C_R   0.731339 0.330474 0.655082 -0.121624
C67   C     C_R   0.676113 0.303963 0.737326 -0.148465
C68   C     C_R   0.719990 0.353809 0.806187 -0.134309
C69   C     C_R   0.816073 0.431659 0.791937 -0.139671
C70   C     C_R   0.866348 0.460690 0.708952 -0.139416
H40   H     H_    0.700040 0.288846 0.603454 0.101483
H41   H     H_    0.601336 0.243644 0.747839 0.129491
H42   H     H_    0.679602 0.332218 0.870398 0.121738
H43   H     H_    0.852513 0.469673 0.845304 0.134442
H44   H     H_    0.938021 0.521114 0.700678 0.166176
N6    N     N_3   0.494414 0.807250 0.117245 -0.492063
H45   H     H_    0.524632 0.846305 0.168440 0.169540
H46   H     H_    0.569316 0.821661 0.071133 0.175755
N7    N     N_3   0.786521 0.042851 0.650491 -0.495338
H47   H     H_    0.849014 0.094950 0.613723 0.184054
H48   H     H_    0.751992 0.071696 0.703072 0.185257
C71   C     C_R   0.249670 0.965542 0.314023 0.130710
C72   C     C_R   0.135552 0.997031 0.305550 -0.162282
C73   C     C_R   0.048876 0.961659 0.245964 -0.103594
C74   C     C_R   0.073456 0.893137 0.195561 -0.124758
C75   C     C_R   0.186677 0.861728 0.202794 -0.156941
C76   C     C_R   0.274580 0.898129 0.261020 -0.133314
H49   H     H_    0.110965 0.046528 0.347121 0.122255
H50   H     H_    0.961550 0.986428 0.239801 0.106136
H51   H     H_    0.006020 0.866419 0.149278 0.106814
H52   H     H_    0.207954 0.810417 0.162169 0.136411
H53   H     H_    0.361729 0.872946 0.265317 0.121458
N8    N     N_3   0.842304 0.872255 0.649111 -0.483730
H54   H     H_    0.826069 0.894797 0.709447 0.203314
H55   H     H_    0.905267 0.922592 0.610911 0.211074
C77   C     C_R   0.897611 0.374258 0.358269 0.072329
C78   C     C_R   0.964728 0.356904 0.283143 -0.132981
C79   C     C_R   0.940481 0.272146 0.247863 -0.148128
C80   C     C_R   0.845748 0.201787 0.284344 -0.111957
C81   C     C_R   0.773898 0.216815 0.355233 -0.132823
C82   C     C_R   0.797636 0.301592 0.391080 -0.190367
H56   H     H_    0.037629 0.410083 0.251165 0.151644
H57   H     H_    0.995143 0.261402 0.191704 0.122368
H58   H     H_    0.826890 0.135977 0.257044 0.112196
H59   H     H_    0.698662 0.162356 0.382528 0.143149
H60   H     H_    0.735542 0.305541 0.444165 0.162386
C83   C     C_R   0.942654 0.691942 0.453239 0.066901
C84   C     C_R   0.023211 0.776443 0.468417 -0.188019
C85   C     C_R   0.988371 0.860595 0.449152 -0.099531
C86   C     C_R   0.878971 0.864832 0.405857 -0.118132
C87   C     C_R   0.807373 0.785040 0.378692 -0.124649
C88   C     C_R   0.838341 0.700171 0.401925 -0.037058
H61   H     H_    0.110846 0.780018 0.500431 0.126344
H62   H     H_    0.046621 0.922827 0.468656 0.127050
H63   H     H_    0.851802 0.930205 0.391243 0.119024
H64   H     H_    0.725017 0.788534 0.341890 0.123525
H65   H     H_    0.776326 0.641853 0.380296 0.146319
C89   C     C_R   0.124330 0.623055 0.622581 0.113520
C90   C     C_R   0.072007 0.692961 0.659581 -0.203066
C91   C     C_R   0.075848 0.705219 0.747284 -0.117798
C92   C     C_R   0.128792 0.647044 0.801773 -0.141456
C93   C     C_R   0.184065 0.580093 0.767648 -0.207404
C94   C     C_R   0.189883 0.572265 0.679346 -0.106537
H66   H     H_    0.016754 0.734048 0.624498 0.148684
H67   H     H_    0.031366 0.756937 0.773560 0.132771
H68   H     H_    0.125676 0.653075 0.870415 0.131433
H69   H     H_    0.219822 0.531955 0.809868 0.152535
H70   H     H_    0.238433 0.520575 0.659298 0.123294

loop_
_geom_bond_atom_site_label_1
_geom_bond_atom_site_label_2
_geom_bond_distance
_ccdc_geom_bond_type
C89   C94   1.418255 A    
C35   C39   1.413755 A    
C36   C37   1.414987 A    
C72   H49   1.082583 S    
C41   C71   1.493170 S    
C87   C88   1.396645 A    
C25   C26   1.393542 A    
C14   C29   1.399363 A    
C19   C23   1.419683 A    
C57   C58   1.395609 A    
C7    C11   1.608175 S    
N2    C46   1.349919 A    
C83   C84   1.422155 A    
C69   H43   1.081844 S    
C69   C70   1.395202 A    
C47   C48   1.423129 A    
C33   C34   1.412490 A    
Zn1   O7    2.020599 S    
N5    H34   1.045889 S    
C55   C56   1.395655 A    
H4    C11   1.116640 S    
C56   H28   1.080108 S    
C39   N7    1.433064 S    
C20   C21   1.404367 A    
N8    H55   1.044676 S    
C21   C22   1.411423 A    
C84   C85   1.393841 A    
C13   C16   1.416628 A    
O2    C1    1.300286 A    
C73   H50   1.082429 S    
O4    C2    1.308211 A    
O7    C4    1.293344 A    
C34   C36   1.428323 A    
C43   C46   1.409488 A    
C28   N6    1.439403 S    
C52   H23   1.075675 S    
C13   C17   1.426110 A    
C68   H42   1.082450 S    
C59   C60   1.407930 A    
Zn1   O5    2.003785 S    
C18   C19   1.412128 A    
C30   H7    1.076427 S    
C23   C53   1.470626 S    
C80   H58   1.082563 S    
C1    C13   1.486819 S    
N2    C45   1.353643 A    
O5    C3    1.303969 A    
C61   C62   1.395126 A    
C47   C52   1.418539 A    
C12   C89   1.579553 S    
C53   C58   1.400809 A    
C91   C92   1.385783 A    
C48   H19   1.080827 S    
N8    H54   1.044345 S    
C5    C65   1.538023 S    
C42   C44   1.409629 A    
C78   C79   1.395123 A    
C93   C94   1.393082 A    
C62   H37   1.082132 S    
Zn2   N1    2.027795 S    
C18   C20   1.419332 A    
C32   H14   1.081534 S    
N1    C32   1.350690 A    
C16   N5    1.437713 S    
C64   H39   1.082151 S    
C5    C9    1.595881 S    
C72   C73   1.395770 A    
C37   C43   1.420912 A    
C88   H65   1.069774 S    
C90   C91   1.395740 A    
C58   H30   1.082597 S    
C49   H20   1.079328 S    
C86   H63   1.082437 S    
N4    H31   1.044544 S    
C17   C59   1.497340 S    
C26   C28   1.411742 A    
O3    Zn1   2.050767 S    
C25   H9    1.082940 S    
C63   C64   1.396524 A    
C54   H26   1.083512 S    
C51   C52   1.398572 A    
C93   H69   1.074492 S    
C44   C45   1.387482 A    
C15   N4    1.434652 S    
C3    C14   1.460346 S    
C20   C24   1.406619 A    
C75   C76   1.393510 A    
C57   H29   1.080869 S    
O3    C2    1.296598 A    
C53   C54   1.404847 A    
C8    C83   1.581906 S    
C66   H40   1.074763 S    
C50   C51   1.388169 A    
C10   C11   1.584880 S    
C65   C70   1.402396 A    
C40   C41   1.402730 A    
C37   C38   1.405148 A    
O1    C1    1.310664 A    
C59   C64   1.407084 A    
C21   C27   1.422104 A    
N6    H46   1.045654 S    
C50   H21   1.082266 S    
C74   H51   1.081629 S    
C92   C93   1.388434 A    
Zn2   O8    2.050767 S    
C6    H2    1.099731 S    
C67   C68   1.392839 A    
C56   C57   1.399965 A    
C78   H56   1.082091 S    
C79   C80   1.388195 A    
C65   C66   1.409833 A    
N4    H32   1.042301 S    
C81   C82   1.399413 A    
C60   H35   1.082446 S    
C76   H53   1.081551 S    
C11   N3    1.472882 S    
C24   C25   1.381024 A    
N3    H25   1.043922 S    
C77   C82   1.423795 A    
C7    C9    1.636024 S    
N7    H47   1.046047 S    
C8    H5    1.106605 S    
C49   C50   1.386114 A    
C26   C27   1.424509 A    
Zn1   N2    2.028165 S    
C89   C90   1.427349 A    
C66   C67   1.396504 A    
C94   H70   1.072426 S    
C31   C35   1.425664 A    
C29   H8    1.081898 S    
C87   H64   1.080770 S    
C5    C6    1.530934 S    
C31   C32   1.387905 A    
C86   C87   1.386324 A    
C33   H15   1.075252 S    
C62   C63   1.393531 A    
C82   H60   1.062916 S    
O1    Zn1   1.998958 S    
C14   C30   1.392995 A    
C15   C16   1.398093 A    
O2    Zn2   2.003785 S    
C28   C29   1.397017 A    
C51   H22   1.074330 S    
O8    C4    1.293210 A    
C71   C72   1.408554 A    
O6    C3    1.295489 A    
C75   H52   1.081897 S    
O4    Zn2   2.020598 S    
C74   C75   1.397093 A    
C92   H68   1.082423 S    
C22   H10   1.079479 S    
C38   H16   1.072614 S    
C10   C12   1.570647 S    
C24   H11   1.070364 S    
N5    H33   1.045938 S    
C36   C40   1.412234 A    
C77   C78   1.426756 A    
C63   H38   1.082192 S    
C8    C12   1.561511 S    
C6    C10   1.548420 S    
C41   C42   1.412817 A    
C55   H27   1.082484 S    
N6    H45   1.045212 S    
C80   C81   1.389515 A    
C85   H62   1.082088 S    
C67   H41   1.082535 S    
C60   C61   1.398024 A    
C48   C49   1.395230 A    
C7    C77   1.600051 S    
C34   C35   1.430838 A    
C22   C23   1.398891 A    
C40   H17   1.075018 S    
C90   H66   1.070499 S    
C45   H13   1.081879 S    
C2    C9    1.496571 S    
C91   H67   1.082888 S    
C54   C55   1.395782 A    
C6    H3    1.116510 S    
C71   C76   1.407086 A    
C17   C18   1.422947 A    
C70   H44   1.062665 S    
C79   H57   1.081621 S    
C15   C19   1.419711 A    
C4    C10   1.470188 S    
C38   C39   1.390900 A    
C27   C30   1.395725 A    
C46   H12   1.073958 S    
C85   C86   1.388212 A    
C73   C74   1.393935 A    
C83   C88   1.421175 A    
C84   H61   1.077146 S    
N1    C33   1.348084 A    
C81   H59   1.081730 S    
N3    H24   1.045399 S    
Zn2   O6    1.998958 S    
C42   C43   1.419568 A    
C7    C47   1.570540 S    
C12   H6    1.105475 S    
N7    H48   1.045935 S    
C8    C9    1.624741 S    
C44   H18   1.080438 S    
C68   C69   1.395283 A    
C61   H36   1.080604 S    
C5    H1    1.086999 S    
C31   N8    1.433273 S    
