data_mof_unit_34597.cif
_audit_creation_date              2012-12-11T15:29:37-0500
_audit_creation_method            fapswitch 2.2
_symmetry_space_group_name_H-M    P1
_symmetry_Int_Tables_number       1
_space_group_crystal_system       triclinic
_cell_length_a                    13.534993
_cell_length_b                    13.54739
_cell_length_c                    27.624618
_cell_angle_alpha                 90.594385
_cell_angle_beta                  90.061825
_cell_angle_gamma                 60.029966
_cell_volume                      4387.7654005

loop_
_atom_site_label
_atom_site_type_symbol
_atom_type_description
_atom_site_fract_x
_atom_site_fract_y
_atom_site_fract_z
_atom_type_partial_charge
C1    C     C_R   0.620491 0.100933 0.569670 0.549396
C2    C     C_1   0.630767 0.733060 0.615987 0.045940
C3    C     C_3   0.712058 0.559959 0.766092 0.254124
C4    C     C_3   0.683608 0.652269 0.804476 0.061697
C5    C     C_3   0.600319 0.637513 0.739294 -0.061654
C6    C     C_3   0.665329 0.683380 0.709782 0.038057
C7    C     C_3   0.571699 0.731722 0.778122 -0.125776
C8    C     C_3   0.636251 0.778194 0.747959 -0.127972
C9    C     C_1   0.691352 0.630986 0.856529 0.008986
C10   C     C_1   0.649670 0.705929 0.657802 0.046046
C11   C     C_3   0.070841 0.163320 0.734932 0.193735
C12   C     C_R   0.599427 0.779887 0.568514 0.552835
C13   C     C_3   0.152160 0.075423 0.771634 0.052205
C14   C     C_1   0.092821 0.202615 0.899854 0.033851
C15   C     C_1   0.227027 0.140605 0.616302 0.038127
C16   C     C_3   0.052440 0.263141 0.768694 -0.185804
C17   C     C_3   0.136121 0.174249 0.805245 -0.006415
C18   C     C_3   0.154869 0.264822 0.743307 -0.157259
C19   C     C_3   0.171007 0.164862 0.709849 0.055211
C20   C     C_3   0.235705 0.176782 0.780239 0.240903
C21   C     C_3   0.252230 0.078662 0.746885 0.261558
C22   C     C_1   0.116720 0.185456 0.857546 0.026754
C23   C     C_R   0.277620 0.121957 0.569172 0.552473
C24   C     C_1   0.196439 0.153498 0.657934 0.049315
C25   C     C_3   0.627572 0.271726 0.738718 -0.006452
C26   C     C_3   0.559190 0.246635 0.776273 0.233132
C27   C     C_1   0.691953 0.206105 0.901718 0.029248
C28   C     C_1   0.636691 0.131459 0.617413 0.056995
C29   C     C_3   0.737197 0.206493 0.770012 -0.158575
C30   C     C_3   0.666570 0.181748 0.807511 0.057403
C31   C     C_3   0.765489 0.094308 0.742661 -0.014362
C32   C     C_3   0.656988 0.160150 0.711574 0.017062
C33   C     C_3   0.696046 0.071041 0.780231 0.187528
C34   C     C_R   0.621435 0.099694 0.431611 0.537914
C35   C     C_3   0.588560 0.135828 0.749337 0.237866
C36   C     C_1   0.676098 0.193995 0.859732 0.063180
C37   C     C_1   0.647347 0.147630 0.659447 0.084136
C38   C     C_R   0.641133 0.715904 0.384297 -0.017876
C39   C     C_R   0.746023 0.693059 0.364761 -0.170266
C40   C     C_R   0.773941 0.657827 0.316585 -0.034454
C41   C     C_R   0.693075 0.647405 0.287577 0.065408
C42   C     C_R   0.590246 0.664154 0.307943 0.232408
C43   C     C_R   0.566170 0.696367 0.356478 -0.114979
C44   C     C_R   0.709439 0.705761 0.204104 -0.071904
C45   C     C_R   0.601556 0.777027 0.430459 0.551427
C46   C     C_R   0.709121 0.690090 0.154066 -0.126153
C47   C     C_R   0.704422 0.515461 0.167580 -0.044141
C48   C     C_R   0.708508 0.528933 0.216995 -0.054120
C49   C     C_R   0.708966 0.624971 0.235515 0.097745
C50   C     C_R   0.703764 0.596129 0.136027 0.067501
C51   C     C_R   0.229839 0.139818 0.382400 -0.004974
C52   C     C_R   0.200335 0.064105 0.360853 -0.132577
C53   C     C_R   0.172142 0.074298 0.311917 -0.124701
C54   C     C_R   0.177428 0.157385 0.283921 -0.002084
C55   C     C_R   0.210792 0.231618 0.305142 0.011880
C56   C     C_R   0.280200 0.119986 0.430692 0.536077
C57   C     C_R   0.230538 0.225593 0.354610 -0.099903
C58   C     C_R   0.057130 0.283108 0.219689 -0.122682
C59   C     C_R   0.033831 0.308559 0.170957 0.234484
C60   C     C_R   0.159543 0.107823 0.150759 -0.174224
C61   C     C_R   0.188616 0.084952 0.199454 -0.135323
C62   C     C_R   0.138817 0.173546 0.233740 -0.031509
C63   C     C_R   0.084877 0.219974 0.136321 0.065790
C64   C     C_R   0.634069 0.133785 0.383436 0.030254
C65   C     C_R   0.541579 0.169158 0.351874 -0.096370
C66   C     C_R   0.551371 0.192290 0.304169 -0.069083
C67   C     C_3   0.776659 0.604480 0.736286 0.032302
C68   C     C_R   0.652530 0.184345 0.287627 0.066495
C69   C     C_R   0.745734 0.149258 0.319039 -0.103679
C70   C     C_R   0.736903 0.122663 0.366957 -0.126839
C71   C     C_R   0.747700 0.111179 0.210048 -0.155037
C72   C     C_R   0.757318 0.118513 0.160731 -0.134489
C73   C     C_R   0.588380 0.308335 0.161168 -0.046328
C74   C     C_R   0.581233 0.302453 0.212160 0.007582
C75   C     C_R   0.662748 0.202700 0.236207 0.009926
C76   C     C_R   0.682311 0.218048 0.135946 -0.026641
C77   C     C_R   0.049084 0.235273 0.947960 0.540709
C78   C     C_3   0.748726 0.698068 0.775098 -0.164318
C79   C     C_R   0.712321 0.561162 0.946363 0.544504
C80   C     C_R   0.722681 0.224059 0.949245 0.542285
C81   C     C_R   0.045970 0.245028 0.086569 0.566513
C82   C     C_R   0.710041 0.569679 0.084928 0.540703
C83   C     C_R   0.719540 0.233474 0.087679 0.525826
C84   C     C_1   0.698757 0.605536 0.898522 0.017291
Cr1   Cr    Cr6+3 0.417550 0.169090 0.500530 1.055839
Cr2   Cr    Cr6+3 0.669180 0.913420 0.499920 1.056065
Cr3   Cr    Cr6+3 0.413260 0.917540 0.499520 1.049825
Cr4   Cr    Cr6+3 0.909770 0.175810 0.018240 1.055121
Cr5   Cr    Cr6+3 0.913300 0.427650 0.016090 1.072508
Cr6   Cr    Cr6+3 0.657770 0.431010 0.016900 1.061391
H1    H     H_    0.810750 0.720423 0.790579 0.133840
H2    H     H_    0.158884 0.340940 0.731760 0.135479
H3    H     H_    0.969875 0.338212 0.778941 0.156431
H4    H     H_    0.800598 0.232653 0.779232 0.185791
H5    H     H_    0.804875 0.706437 0.386701 0.130510
H6    H     H_    0.708301 0.781089 0.218390 0.119753
H7    H     H_    0.711190 0.751201 0.129736 0.109273
H8    H     H_    0.708162 0.466191 0.240924 0.157610
H9    H     H_    0.705015 0.440066 0.153754 0.145664
H10   H     H_    0.485054 0.713592 0.371439 0.134002
H11   H     H_    0.200615 0.996545 0.381579 0.131761
H12   H     H_    0.016250 0.350264 0.246724 0.152796
H13   H     H_    0.605688 0.868261 0.738957 0.169290
H14   H     H_    0.146336 0.017468 0.295819 0.123536
H15   H     H_    0.251113 0.999470 0.210229 0.142535
H16   H     H_    0.196658 0.039053 0.124308 0.129252
H17   H     H_    0.255254 0.283229 0.370721 0.182361
H18   H     H_    0.463128 0.173838 0.363633 0.127805
H19   H     H_    0.807437 0.033089 0.228041 0.122645
H20   H     H_    0.827899 0.047100 0.142370 0.153975
H21   H     H_    0.480766 0.214279 0.279823 0.120843
H22   H     H_    0.488309 0.781382 0.796849 0.135324
H23   H     H_    0.825262 0.140687 0.306171 0.114864
H24   H     H_    0.809447 0.093343 0.390879 0.123364
H25   H     H_    0.538884 0.614136 0.724160 0.140205
O1    O     O_R   0.301780 0.195490 0.553940 -0.496677
O2    O     O_R   0.658840 0.818280 0.449970 -0.501653
O3    O     O_R   0.503160 0.801780 0.445740 -0.517015
O4    O     O_R   0.319320 0.022190 0.450230 -0.500540
O5    O     O_3   0.499990 0.000010 0.499990 -0.265231
O6    O     O_R   0.819250 0.149410 0.965240 -0.492920
O7    O     O_R   0.006940 0.180310 0.968270 -0.485244
O8    O     O_R   0.028420 0.332670 0.963010 -0.512783
O9    O     O_R   0.810130 0.520390 0.966030 -0.500234
O10   O     O_R   0.636050 0.541380 0.962520 -0.496259
O11   O     O_R   0.666480 0.323610 0.968170 -0.493430
O12   O     O_R   0.522450 0.158840 0.550250 -0.494032
O13   O     O_R   0.817280 0.156800 0.072180 -0.511456
O14   O     O_R   0.005110 0.187160 0.067410 -0.511931
O15   O     O_R   0.026450 0.340060 0.069950 -0.450430
O16   O     O_R   0.808300 0.527240 0.065170 -0.468960
O17   O     O_R   0.634070 0.548770 0.069460 -0.491704
O18   O     O_R   0.664650 0.330470 0.067300 -0.508185
O19   O     O_3   0.826940 0.344820 0.017080 -0.268064
O20   O     O_R   0.694460 0.003360 0.553820 -0.488825
O21   O     O_R   0.657750 0.819520 0.549120 -0.488027
O22   O     O_R   0.501990 0.803120 0.552700 -0.497771
O23   O     O_R   0.318230 0.023430 0.549370 -0.488457
O24   O     O_R   0.302950 0.194150 0.446980 -0.522265
O25   O     O_R   0.523540 0.157600 0.451100 -0.499778
O26   O     O_R   0.695630 0.002030 0.446860 -0.514013
O27   O     O_3   0.322534 0.182564 0.805158 -0.665501
H26   H     H_    0.284941 0.257863 0.821770 0.345723
O28   O     O_3   0.451389 0.325493 0.794402 -0.672593
H27   H     H_    0.399551 0.347840 0.766196 0.335173
C85   C     C_2   0.585563 0.383762 0.714614 0.245769
H28   H     H_    0.506216 0.457001 0.726478 0.117184
O29   O     O_2   0.640017 0.392995 0.681559 -0.505256
O30   O     O_3   0.511511 0.099338 0.737662 -0.655682
H29   H     H_    0.510397 0.056560 0.766263 0.376946
O31   O     O_3   0.730732 0.966685 0.802439 -0.695947
H30   H     H_    0.755909 0.910513 0.775483 0.317361
C86   C     C_2   0.881704 0.005819 0.725675 0.301708
H31   H     H_    0.949650 0.963559 0.751763 0.134706
O32   O     O_2   0.900440 0.980452 0.682836 -0.465276
C87   C     C_2   0.892070 0.533764 0.713939 0.221350
H32   H     H_    0.966795 0.499299 0.736741 0.091186
O33   O     O_2   0.902749 0.515912 0.670360 -0.486871
C88   C     C_2   0.887192 0.634854 0.298801 0.223047
H33   H     H_    0.938279 0.658528 0.321156 0.129845
O34   O     O_2   0.926573 0.587204 0.260116 -0.528425
O35   O     O_3   0.511807 0.654837 0.278934 -0.661813
H34   H     H_    0.444367 0.669987 0.298649 0.343412
O36   O     O_3   0.960396 0.418754 0.156456 -0.676420
H35   H     H_    0.938301 0.470695 0.184862 0.358944
C89   C     C_2   0.232070 0.311097 0.275932 0.207191
H36   H     H_    0.241525 0.301157 0.236919 0.119313
O37   O     O_2   0.240783 0.387969 0.295174 -0.498271
C90   C     C_2   0.489191 0.399753 0.239967 0.291938
H37   H     H_    0.404418 0.449030 0.224856 0.164658
O38   O     O_2   0.507806 0.426883 0.279768 -0.469528
C91   C     C_2   0.499370 0.407722 0.134279 0.220135
H38   H     H_    0.467891 0.393983 0.100189 0.124394
O39   O     O_2   0.463775 0.505211 0.148794 -0.493645
O40   O     O_3   0.751263 0.445959 0.776860 -0.722016
H39   H     H_    0.780842 0.404249 0.745790 0.345217
C92   C     C_2   0.152341 0.968792 0.785294 0.251432
H40   H     H_    0.167419 0.905128 0.757735 0.130155
O41   O     O_2   0.135747 0.952901 0.827153 -0.499232
O42   O     O_3   0.983605 0.157032 0.710607 -0.681139
H41   H     H_    0.942402 0.228912 0.692285 0.352192
O43   O     O_3   0.356935 0.983500 0.734962 -0.687793
H42   H     H_    0.398456 0.960029 0.765978 0.328792

loop_
_geom_bond_atom_site_label_1
_geom_bond_atom_site_label_2
_ccdc_geom_bond_type
C44   C49   A    
C58   C62   A    
C66   C68   A    
C8    C78   S    
C34   O26   A    
C41   C42   A    
C23   O23   A    
C83   O13   A    
C72   C76   A    
C2    C12   S    
C7    C8    S    
C53   C54   A    
C70   H24   S    
C68   C75   S    
Cr3   O4    S    
C11   C19   S    
C16   H3    S    
C63   C81   S    
C60   C63   A    
C77   O8    A    
C5    C6    S    
O36   H35   S    
C19   C21   S    
C51   C56   S    
C29   H4    S    
Cr6   O19   S    
C13   C92   S    
C53   H14   S    
C45   O2    A    
C17   C20   S    
C47   H9    S    
C7    H22   S    
C18   C19   S    
C73   C74   A    
C14   C77   S    
O43   H42   S    
C38   C45   S    
C77   O7    A    
C40   C88   S    
C33   C35   S    
C23   O1    A    
C59   O36   S    
C47   C48   A    
C44   C46   A    
C16   C17   S    
C74   C90   S    
C1    C28   S    
O31   H30   S    
C88   O34   D    
C25   C85   S    
C51   C57   A    
C64   C70   A    
C66   H21   S    
C86   O32   D    
C61   H15   S    
Cr1   O24   S    
C65   H18   S    
C30   C33   S    
Cr6   O17   S    
C25   C32   S    
C15   C23   S    
C79   O10   A    
C86   H31   S    
C5    H25   S    
C89   O37   D    
C90   O38   D    
C61   C62   A    
C67   C78   S    
Cr4   O14   S    
Cr3   O22   S    
C4    C7    S    
C26   O28   S    
C76   C83   S    
C41   C49   S    
C31   C86   S    
C91   O39   D    
C47   C50   A    
C85   O29   D    
C80   O6    A    
Cr1   O1    S    
C45   O3    A    
C25   C29   S    
C21   O43   S    
C72   H20   S    
C52   H11   S    
C74   C75   A    
C85   H28   S    
C51   C52   A    
C32   C35   S    
C20   O27   S    
C43   H10   S    
Cr3   O3    S    
Cr4   O7    S    
C27   C80   S    
C33   O31   S    
C39   C40   A    
C5    C7    S    
C56   O24   A    
C68   C69   A    
C6    C8    S    
Cr5   O8    S    
C92   O41   D    
C25   C26   S    
Cr5   O15   S    
C67   C87   S    
Cr1   O5    S    
C4    C78   S    
C29   C30   S    
C44   H6    S    
C11   C16   S    
C26   C35   S    
C81   O14   A    
C88   H33   S    
C4    C9    S    
C69   H23   S    
C34   C64   S    
Cr6   O11   S    
C13   C21   S    
C90   H37   S    
C15   C24   T    
C32   C37   S    
C73   C91   S    
Cr1   O25   S    
C39   H5    S    
C58   H12   S    
C3    O40   S    
C40   C41   A    
C57   H17   S    
C46   H7    S    
C26   C30   S    
C55   C57   A    
C89   H36   S    
C78   H1    S    
C73   C76   A    
Cr1   O12   S    
C42   C43   A    
Cr3   O23   S    
C82   O17   A    
C3    C4    S    
C2    C10   T    
C60   H16   S    
C52   C53   A    
C50   C82   S    
O35   H34   S    
Cr2   O21   S    
Cr6   O18   S    
C54   C55   A    
C87   H32   S    
C31   C33   S    
Cr5   O19   S    
C79   C84   S    
O27   H26   S    
C31   C32   S    
C3    C67   S    
C1    O12   A    
Cr4   O6    S    
C3    C5    S    
C16   C18   S    
C6    C10   S    
C42   O35   S    
Cr5   O9    S    
C30   C36   S    
C27   C36   T    
C54   C62   S    
C79   O9    A    
C46   C50   A    
C59   C63   A    
C17   C22   S    
Cr5   O16   S    
C13   C17   S    
O28   H27   S    
C18   H2    S    
C64   C65   A    
C14   C22   T    
C87   O33   D    
C19   C24   S    
C58   C59   A    
Cr4   O19   S    
Cr3   O5    S    
Cr4   O13   S    
O40   H39   S    
C6    C67   S    
O30   H29   S    
C71   C75   A    
C11   C13   S    
C81   O15   A    
C38   C39   A    
C80   O11   A    
C28   C37   T    
C48   C49   A    
C71   H19   S    
C34   O25   A    
C56   O4    A    
Cr6   O10   S    
Cr2   O2    S    
C18   C20   S    
C48   H8    S    
C65   C66   A    
C69   C70   A    
C8    H13   S    
C83   O18   A    
C9    C84   T    
C91   H38   S    
Cr2   O20   S    
C38   C43   A    
C71   C72   A    
C20   C21   S    
C29   C31   S    
C92   H40   S    
C12   O21   A    
C12   O22   A    
C60   C61   A    
Cr2   O5    S    
C11   O42   S    
C35   O30   S    
C55   C89   S    
C82   O16   A    
C1    O20   A    
O42   H41   S    
Cr2   O26   S    
