data_mof_unit_31860.cif
_audit_creation_date              2013-03-05T15:41:56-0500
_audit_creation_method            fapswitch 2.2
_symmetry_space_group_name_H-M    P1
_symmetry_Int_Tables_number       1
_space_group_crystal_system       triclinic
_cell_length_a                    25.24858
_cell_length_b                    17.283729
_cell_length_c                    15.697171
_cell_angle_alpha                 90.032891
_cell_angle_beta                  49.41239
_cell_angle_gamma                 90.50155
_cell_volume                      5201.71729693

loop_
_atom_site_label
_atom_site_type_symbol
_atom_site_description
_atom_site_fract_x
_atom_site_fract_y
_atom_site_fract_z
_atom_type_partial_charge
C1    C     C_R   0.354028 0.145680 0.752537 -0.055386
C2    C     C_R   0.668486 0.901124 0.191819 -0.003045
C3    C     C_R   0.646318 0.146197 0.245656 -0.079439
C4    C     C_R   0.332065 0.900499 0.809323 -0.003095
C5    C     C_R   0.854132 0.645766 0.752325 -0.055374
C6    C     C_R   0.168495 0.401155 0.191801 -0.001913
C7    C     C_R   0.146173 0.646323 0.246048 -0.078330
C8    C     C_R   0.832047 0.400456 0.809269 -0.003080
H1    H     H_    0.311951 0.163997 0.756322 0.197020
H2    H     H_    0.719551 0.911965 0.163146 0.153966
H3    H     H_    0.689172 0.165736 0.239411 0.207520
H4    H     H_    0.280701 0.910641 0.839897 0.167118
H5    H     H_    0.812052 0.664108 0.756127 0.197261
H6    H     H_    0.219556 0.411918 0.163156 0.153972
H7    H     H_    0.188903 0.665934 0.240114 0.207864
H8    H     H_    0.780701 0.410570 0.839765 0.166876
N1    N     N_R   0.389620 0.081040 0.705440 -0.070940
N2    N     N_R   0.610380 0.918960 0.294560 -0.056159
N3    N     N_R   0.610380 0.081040 0.294560 -0.074886
N4    N     N_R   0.389620 0.918960 0.705440 -0.062061
N5    N     N_R   0.889620 0.581040 0.705440 -0.071119
N6    N     N_R   0.110380 0.418960 0.294560 -0.055728
N7    N     N_R   0.110380 0.581040 0.294560 -0.075267
N8    N     N_R   0.889620 0.418960 0.705440 -0.061397
C9    C     C_R   0.612058 0.119723 0.589304 0.534892
C10   C     C_R   0.412595 0.851685 0.409179 0.521294
C11   C     C_R   0.385485 0.101238 0.406050 0.460839
C12   C     C_R   0.593384 0.860022 0.595347 0.508499
C13   C     C_R   0.112686 0.618270 0.589333 0.534678
C14   C     C_R   0.912721 0.351707 0.409125 0.529443
C15   C     C_R   0.885516 0.601022 0.405949 0.459653
C16   C     C_R   0.093129 0.359725 0.595331 0.507997
N9    N     N_R   0.582320 0.079840 0.556630 -0.144946
N10   N     N_R   0.417680 0.920160 0.443370 -0.137969
N11   N     N_R   0.417680 0.079840 0.443370 -0.130607
N12   N     N_R   0.582320 0.920160 0.556630 -0.135671
N13   N     N_R   0.082320 0.579840 0.556630 -0.145221
N14   N     N_R   0.917680 0.420160 0.443370 -0.141863
N15   N     N_R   0.917680 0.579840 0.443370 -0.130715
N16   N     N_R   0.082320 0.420160 0.556630 -0.135860
C17   C     C_R   0.685799 0.117145 0.404814 0.524011
C18   C     C_R   0.336036 0.853769 0.593929 0.550052
C19   C     C_R   0.310352 0.101097 0.590140 0.576750
C20   C     C_R   0.666731 0.856585 0.408517 0.546060
C21   C     C_R   0.186283 0.616113 0.404904 0.520273
C22   C     C_R   0.835776 0.353959 0.593788 0.541332
C23   C     C_R   0.810259 0.600659 0.590054 0.579008
C24   C     C_R   0.166525 0.356407 0.408525 0.546812
N17   N     N_R   0.627920 0.078930 0.443400 -0.155183
N18   N     N_R   0.372080 0.921070 0.556600 -0.147706
N19   N     N_R   0.372080 0.078930 0.556600 -0.154420
N20   N     N_R   0.627920 0.921070 0.443400 -0.146703
N21   N     N_R   0.127920 0.578930 0.443400 -0.155759
N22   N     N_R   0.872080 0.421070 0.556600 -0.147262
N23   N     N_R   0.872080 0.578930 0.556600 -0.154641
N24   N     N_R   0.127920 0.421070 0.443400 -0.146888
C25   C     C_R   0.558988 0.142492 0.242845 -0.155566
C26   C     C_R   0.418518 0.903451 0.809893 -0.024607
C27   C     C_R   0.440409 0.143142 0.757261 -0.207019
C28   C     C_R   0.583800 0.905716 0.187951 0.004336
C29   C     C_R   0.058933 0.642572 0.243024 -0.155738
C30   C     C_R   0.918438 0.403561 0.809974 -0.022080
C31   C     C_R   0.940609 0.643296 0.756828 -0.206587
C32   C     C_R   0.083857 0.405865 0.187871 0.012597
H9    H     H_    0.523204 0.158113 0.230490 0.151900
H10   H     H_    0.444151 0.914630 0.842769 0.118775
H11   H     H_    0.474548 0.160463 0.772333 0.183562
H12   H     H_    0.562410 0.921294 0.149868 0.099161
H13   H     H_    0.023169 0.658199 0.230643 0.151406
H14   H     H_    0.943995 0.414856 0.842942 0.117073
H15   H     H_    0.974970 0.660751 0.771412 0.183298
H16   H     H_    0.062512 0.421539 0.149746 0.095864
N25   N     N_R   0.555090 0.077730 0.294590 -0.043524
N26   N     N_R   0.444910 0.922270 0.705410 -0.050217
N27   N     N_R   0.444910 0.077730 0.705410 -0.051946
N28   N     N_R   0.555090 0.922270 0.294590 -0.050965
N29   N     N_R   0.055090 0.577730 0.294590 -0.043955
N30   N     N_R   0.944910 0.422270 0.705410 -0.049832
N31   N     N_R   0.944910 0.577730 0.705410 -0.052150
N32   N     N_R   0.055090 0.422270 0.294590 -0.050447
C33   C     C_R   0.383979 0.185918 0.787636 0.155035
C34   C     C_R   0.653663 0.892102 0.123249 0.041115
C35   C     C_R   0.616071 0.185811 0.210945 0.139299
C36   C     C_R   0.348197 0.890901 0.876483 0.039017
C37   C     C_R   0.884180 0.686079 0.787203 0.155268
C38   C     C_R   0.153709 0.392244 0.123181 0.039252
C39   C     C_R   0.115935 0.685957 0.211343 0.139181
C40   C     C_R   0.848131 0.390958 0.876503 0.038668
C41   C     C_R   0.675860 0.146373 0.494792 -0.052500
C42   C     C_R   0.363159 0.807384 0.502123 -0.068455
C43   C     C_R   0.317414 0.117440 0.497572 -0.045158
C44   C     C_R   0.643483 0.816218 0.504687 -0.028473
C45   C     C_R   0.176904 0.644076 0.494956 -0.050809
C46   C     C_R   0.862818 0.307706 0.501804 -0.050631
C47   C     C_R   0.817403 0.616982 0.497367 -0.041508
C48   C     C_R   0.143067 0.315800 0.504630 -0.027855
Ni1   Ni    Ni4+2 0.382970 1.000000 0.629840 0.191963
Ni2   Ni    Ni4+2 0.617030 0.000000 0.370160 0.189942
Ni3   Ni    Ni4+2 0.882970 0.500000 0.629840 0.193051
Ni4   Ni    Ni4+2 0.117030 0.500000 0.370160 0.190439
Ni5   Ni    Ni4+2 0.514540 1.000000 0.629840 0.192172
Ni6   Ni    Ni4+2 0.485460 0.000000 0.370160 0.216384
Ni7   Ni    Ni4+2 0.014540 0.500000 0.629840 0.192522
Ni8   Ni    Ni4+2 0.985460 0.500000 0.370160 0.217134
C49   C     C_3   0.287930 0.213359 0.400342 0.301701
C50   C     C_3   0.661434 0.703594 0.606672 0.376976
C51   C     C_3   0.710032 0.242477 0.579010 0.360513
C52   C     C_3   0.340962 0.689974 0.412469 0.369010
C53   C     C_3   0.788095 0.713080 0.399810 0.303066
C54   C     C_3   0.160866 0.202863 0.606428 0.375462
C55   C     C_3   0.210993 0.741009 0.578369 0.362743
C56   C     C_3   0.840124 0.193128 0.409884 0.363600
C57   C     C_3   0.749944 0.779629 0.482290 0.027342
C58   C     C_3   0.200062 0.135411 0.523949 0.093902
C59   C     C_3   0.272150 0.789953 0.482419 0.023589
C60   C     C_3   0.778606 0.141783 0.504524 0.060066
C61   C     C_3   0.249135 0.279531 0.483295 0.025273
C62   C     C_3   0.699911 0.635813 0.524656 0.095776
C63   C     C_3   0.770440 0.292511 0.483670 0.015011
C64   C     C_3   0.278515 0.639909 0.507661 0.080706
C65   C     C_3   0.681557 0.755374 0.508693 -0.317382
C66   C     C_3   0.268236 0.161142 0.497567 -0.290977
C67   C     C_3   0.320524 0.752520 0.499227 -0.321430
C68   C     C_3   0.729189 0.181184 0.492037 -0.271171
C69   C     C_3   0.181166 0.254918 0.508587 -0.316419
C70   C     C_3   0.768489 0.661071 0.497157 -0.293123
C71   C     C_3   0.819696 0.254536 0.497914 -0.311664
C72   C     C_3   0.230293 0.678766 0.492352 -0.278170
C73   C     C_3   0.219687 0.186568 0.426065 0.435881
C74   C     C_3   0.729891 0.729249 0.579907 0.465886
C75   C     C_3   0.758660 0.202362 0.592553 0.468872
C76   C     C_3   0.292949 0.728010 0.395540 0.461778
C77   C     C_3   0.719428 0.686703 0.426648 0.434913
C78   C     C_3   0.228878 0.228890 0.580865 0.465950
C79   C     C_3   0.258610 0.701421 0.594512 0.460461
C80   C     C_3   0.790952 0.231722 0.395831 0.466039
C81   C     C_2   0.639681 0.262053 0.156989 -0.362502
C82   C     C_2   0.299566 0.875960 0.997535 -0.341378
C83   C     C_2   0.361089 0.262105 0.840976 -0.348878
C84   C     C_2   0.702866 0.875999 0.002602 -0.338525
C85   C     C_2   0.139592 0.762186 0.157359 -0.363921
C86   C     C_2   0.799466 0.376119 0.997581 -0.342021
C87   C     C_2   0.861263 0.762268 0.840531 -0.349132
C88   C     C_2   0.202933 0.376244 0.002504 -0.338216
C89   C     C_2   0.707707 0.281673 0.091525 0.517618
C90   C     C_2   0.231531 0.861738 0.052084 0.490550
C91   C     C_2   0.293457 0.281838 0.905584 0.496300
C92   C     C_2   0.770463 0.860979 0.949075 0.488103
C93   C     C_2   0.207652 0.781682 0.091768 0.518271
C94   C     C_2   0.731463 0.361781 0.052027 0.491037
C95   C     C_2   0.793562 0.781796 0.905520 0.495499
C96   C     C_2   0.270488 0.361058 0.949068 0.488903
H17   H     H_    0.323488 0.847429 0.026721 0.166652
H18   H     H_    0.601164 0.303261 0.175673 0.160452
H19   H     H_    0.678714 0.848680 0.972676 0.145363
H20   H     H_    0.399898 0.302799 0.824473 0.158372
H21   H     H_    0.823370 0.347676 0.026854 0.164846
H22   H     H_    0.101111 0.803453 0.176044 0.159641
H23   H     H_    0.178786 0.349068 0.972483 0.146561
H24   H     H_    0.900068 0.803101 0.823757 0.158537
O1    O     O_3   0.587692 0.126898 0.697269 -0.594856
C97   C     C_3   0.565381 0.054873 0.751543 -0.313504
H25   H     H_    0.609309 0.013880 0.704950 0.186789
H26   H     H_    0.520126 0.031697 0.762770 0.148259
H27   H     H_    0.548567 0.062002 0.836294 0.157327
O2    O     O_3   0.453909 0.825897 0.299983 -0.603861
C98   C     C_3   0.442322 0.871529 0.239626 -0.289266
H28   H     H_    0.453991 0.933050 0.240505 0.144657
H29   H     H_    0.388651 0.863974 0.271391 0.196355
H30   H     H_    0.478458 0.853005 0.150729 0.152323
O3    O     O_3   0.414352 0.089704 0.295986 -0.625560
C99   C     C_3   0.370319 0.042135 0.292314 -0.097193
H31   H     H_    0.351785 0.991005 0.347607 0.168284
H32   H     H_    0.399135 0.022886 0.204808 0.120544
H33   H     H_    0.324519 0.073250 0.318514 0.163858
O4    O     O_3   0.549332 0.836246 0.705765 -0.610266
C100  C     C_3   0.574344 0.863036 0.758853 -0.226851
H34   H     H_    0.542247 0.911247 0.815339 0.098494
H35   H     H_    0.630635 0.880107 0.700165 0.152518
H36   H     H_    0.565568 0.817162 0.816064 0.189963
O5    O     O_3   0.087854 0.625852 0.697529 -0.595398
C101  C     C_3   0.064362 0.554193 0.752826 -0.313188
H37   H     H_    0.107631 0.512461 0.707252 0.187584
H38   H     H_    0.019040 0.531756 0.763805 0.147775
H39   H     H_    0.047308 0.561559 0.837667 0.157564
O6    O     O_3   0.954472 0.325777 0.300038 -0.583290
C102  C     C_3   0.942482 0.370842 0.239759 -0.271805
H40   H     H_    0.954356 0.432429 0.239734 0.136718
H41   H     H_    0.888471 0.363596 0.272745 0.188663
H42   H     H_    0.978279 0.351878 0.151069 0.151693
O7    O     O_3   0.914531 0.589513 0.295806 -0.626103
C103  C     C_3   0.870672 0.541825 0.291876 -0.094832
H43   H     H_    0.824716 0.572739 0.318289 0.163920
H44   H     H_    0.852390 0.490591 0.346872 0.166381
H45   H     H_    0.899567 0.522758 0.204271 0.119819
O8    O     O_3   0.048675 0.335577 0.705590 -0.610213
C104  C     C_3   0.073442 0.361426 0.759414 -0.223497
H46   H     H_    0.041844 0.409980 0.815512 0.096810
H47   H     H_    0.129930 0.377574 0.701257 0.153853
H48   H     H_    0.063677 0.315332 0.817117 0.190091
O9    O     O_3   0.749009 0.115306 0.296772 -0.612660
C105  C     C_3   0.762641 0.040620 0.252491 -0.225183
H49   H     H_    0.730808 0.027209 0.228855 0.128571
H50   H     H_    0.754323 0.997196 0.312229 0.193147
H51   H     H_    0.818178 0.038014 0.174949 0.164695
O10   O     O_3   0.293559 0.826891 0.703271 -0.616587
C106  C     C_3   0.222788 0.844122 0.761218 -0.106860
H52   H     H_    0.189744 0.795882 0.819423 0.188536
H53   H     H_    0.209889 0.853641 0.706819 0.179780
H54   H     H_    0.205874 0.894026 0.816910 0.091712
O11   O     O_3   0.249850 0.109540 0.699779 -0.613302
C107  C     C_3   0.230304 0.038483 0.755611 -0.194047
H55   H     H_    0.268561 0.019285 0.763737 0.112055
H56   H     H_    0.222875 0.994956 0.712212 0.197407
H57   H     H_    0.179542 0.045406 0.841592 0.172100
O12   O     O_3   0.695279 0.820037 0.308909 -0.609395
C108  C     C_3   0.768376 0.828699 0.232373 -0.116238
H58   H     H_    0.792151 0.802482 0.263545 0.201448
H59   H     H_    0.785207 0.889795 0.210267 0.103544
H60   H     H_    0.789342 0.798305 0.153830 0.155672
O13   O     O_3   0.249214 0.614932 0.296440 -0.606538
C109  C     C_3   0.262802 0.540529 0.251355 -0.219828
H61   H     H_    0.230606 0.527441 0.228330 0.127198
H62   H     H_    0.254935 0.496723 0.310306 0.189932
H63   H     H_    0.318200 0.538212 0.173324 0.164062
O14   O     O_3   0.793438 0.326906 0.703023 -0.615683
C110  C     C_3   0.722641 0.344165 0.761249 -0.107260
H64   H     H_    0.689688 0.295731 0.819073 0.187175
H65   H     H_    0.709639 0.354065 0.707067 0.178897
H66   H     H_    0.705771 0.393929 0.817174 0.092924
O15   O     O_3   0.749890 0.609881 0.699690 -0.611021
C111  C     C_3   0.730024 0.539219 0.756619 -0.189673
H67   H     H_    0.768663 0.519579 0.763664 0.110079
H68   H     H_    0.721398 0.495638 0.714822 0.197671
H69   H     H_    0.679798 0.546979 0.843012 0.172035
O16   O     O_3   0.195363 0.320124 0.308624 -0.608962
C112  C     C_3   0.268482 0.328658 0.232606 -0.114912
H70   H     H_    0.291948 0.303551 0.264927 0.199740
H71   H     H_    0.285401 0.389619 0.209187 0.102345
H72   H     H_    0.289759 0.297245 0.154602 0.155930
N33   N     N_R   0.778167 0.857778 0.462534 0.266304
O17   O     O_R   0.802737 0.879634 0.510260 -0.294424
O18   O     O_R   0.791988 0.899494 0.381328 -0.452851
N34   N     N_R   0.173426 0.056270 0.549860 0.272659
O19   O     O_R   0.157834 0.023486 0.494021 -0.379027
O20   O     O_R   0.153467 0.023748 0.641430 -0.379881
N35   N     N_R   0.266502 0.871621 0.466072 0.233428
O21   O     O_R   0.255014 0.891358 0.399422 -0.378128
O22   O     O_R   0.261230 0.923495 0.530933 -0.469851
N36   N     N_R   0.779981 0.059343 0.520226 0.277051
O23   O     O_R   0.814738 0.033831 0.548971 -0.363575
O24   O     O_R   0.734820 0.014274 0.530227 -0.389590
N37   N     N_R   0.277085 0.357726 0.464426 0.267514
O25   O     O_R   0.303832 0.378125 0.509255 -0.289610
O26   O     O_R   0.289647 0.400353 0.384873 -0.449730
N38   N     N_R   0.672543 0.556970 0.551584 0.273758
O27   O     O_R   0.655383 0.524777 0.497584 -0.378779
O28   O     O_R   0.652806 0.524703 0.643154 -0.379774
N39   N     N_R   0.764665 0.374419 0.468748 0.233786
O29   O     O_R   0.753027 0.395217 0.402630 -0.376168
O30   O     O_R   0.761010 0.425786 0.532637 -0.472623
N40   N     N_R   0.279879 0.557540 0.523807 0.286260
O31   O     O_R   0.318837 0.531387 0.544113 -0.347993
O32   O     O_R   0.233054 0.512574 0.538579 -0.391571
O33   O     O_3   0.353708 0.216041 0.290417 -0.625594
C113  C     C_3   0.402031 0.262594 0.284922 -0.007257
H73   H     H_    0.395491 0.259650 0.362160 0.127738
H74   H     H_    0.399427 0.323228 0.265253 0.163546
H75   H     H_    0.455262 0.242378 0.214123 0.130632
O34   O     O_3   0.595390 0.695605 0.714984 -0.618059
C114  C     C_3   0.545253 0.666244 0.709491 0.031563
H76   H     H_    0.543239 0.602220 0.714566 0.150253
H77   H     H_    0.553796 0.685325 0.633609 0.127788
H78   H     H_    0.493162 0.687155 0.783625 0.135137
O35   O     O_3   0.642283 0.267310 0.671753 -0.614215
C115  C     C_3   0.613166 0.312365 0.636604 0.012092
H79   H     H_    0.629564 0.294724 0.554331 0.113653
H80   H     H_    0.626164 0.374250 0.633537 0.212962
H81   H     H_    0.555570 0.306179 0.699827 0.119772
O36   O     O_3   0.407925 0.660006 0.325794 -0.610519
C116  C     C_3   0.444300 0.645582 0.364244 0.015950
H82   H     H_    0.475092 0.592135 0.323842 0.136912
H83   H     H_    0.410423 0.637267 0.456581 0.141275
H84   H     H_    0.481542 0.693698 0.338121 0.148926
O37   O     O_3   0.853656 0.715259 0.289576 -0.624854
C117  C     C_3   0.902480 0.761584 0.283064 -0.011039
H85   H     H_    0.895970 0.759377 0.360315 0.126781
H86   H     H_    0.900526 0.822042 0.262063 0.161572
H87   H     H_    0.955481 0.740595 0.212639 0.131863
O38   O     O_3   0.094572 0.194365 0.714236 -0.618702
C118  C     C_3   0.045026 0.164967 0.707418 0.030430
H88   H     H_    0.043794 0.100894 0.710682 0.150153
H89   H     H_    0.053606 0.185035 0.631862 0.128982
H90   H     H_    0.992606 0.184870 0.781892 0.134322
O39   O     O_3   0.143265 0.766854 0.669724 -0.614205
C119  C     C_3   0.114909 0.810993 0.632513 0.014960
H91   H     H_    0.132368 0.792858 0.549717 0.112926
H92   H     H_    0.127425 0.873065 0.629443 0.214233
H93   H     H_    0.057306 0.804461 0.694522 0.118322
O40   O     O_3   0.908870 0.170131 0.318811 -0.611942
C120  C     C_3   0.940035 0.134039 0.356862 0.017267
H94   H     H_    0.931813 0.070554 0.361193 0.163745
H95   H     H_    0.921552 0.155865 0.438924 0.130441
H96   H     H_    0.997091 0.145091 0.294343 0.129047
O41   O     O_3   0.201782 0.170697 0.358950 -0.547877
C121  C     C_3   0.252418 0.126194 0.264593 -0.120952
H97   H     H_    0.250618 0.065440 0.288921 0.165020
H98   H     H_    0.305411 0.152044 0.214253 0.145626
H99   H     H_    0.239590 0.124639 0.209147 0.131801
O42   O     O_3   0.749147 0.753694 0.642943 -0.574875
C122  C     C_3   0.691803 0.762762 0.757722 0.007955
H100  H     H_    0.650688 0.717803 0.792499 0.168724
H101  H     H_    0.671636 0.822182 0.774041 0.078134
H102  H     H_    0.710755 0.756713 0.804240 0.166807
O43   O     O_3   0.749360 0.184144 0.689267 -0.571466
C123  C     C_3   0.686479 0.142758 0.767247 -0.096297
H103  H     H_    0.685262 0.087951 0.731872 0.172980
H104  H     H_    0.640584 0.178599 0.799666 0.176809
H105  H     H_    0.682279 0.127208 0.840012 0.122408
O44   O     O_3   0.305209 0.748046 0.296445 -0.569678
C124  C     C_3   0.367158 0.714584 0.201121 0.032761
H106  H     H_    0.413726 0.742212 0.181174 0.122607
H107  H     H_    0.370098 0.723848 0.128203 0.132760
H108  H     H_    0.368719 0.651231 0.211037 0.175343
O45   O     O_3   0.701144 0.670797 0.360064 -0.548277
C125  C     C_3   0.751160 0.625330 0.266514 -0.120163
H109  H     H_    0.749194 0.564897 0.292037 0.165924
H110  H     H_    0.804328 0.650890 0.215017 0.145256
H111  H     H_    0.737799 0.622951 0.211797 0.131598
O46   O     O_3   0.247121 0.253936 0.645094 -0.574897
C126  C     C_3   0.189518 0.259815 0.760306 0.010421
H112  H     H_    0.149509 0.213876 0.792644 0.169701
H113  H     H_    0.167787 0.318596 0.780006 0.074654
H114  H     H_    0.208606 0.252848 0.806497 0.169809
O47   O     O_3   0.248243 0.683845 0.692316 -0.573776
C127  C     C_3   0.185148 0.642698 0.769775 -0.109791
H115  H     H_    0.184505 0.587349 0.734784 0.172656
H116  H     H_    0.139537 0.678352 0.800203 0.181301
H117  H     H_    0.179871 0.628153 0.843827 0.124359
O48   O     O_3   0.801387 0.252596 0.298476 -0.573743
C128  C     C_3   0.862474 0.219361 0.201146 0.041913
H118  H     H_    0.866298 0.156595 0.211284 0.172738
H119  H     H_    0.909690 0.249272 0.175597 0.113767
H120  H     H_    0.861799 0.225959 0.131559 0.136516
O49   O     O_3   0.192333 0.907155 0.038284 -0.647713
C129  C     C_3   0.194118 0.985007 0.063340 -0.288201
H121  H     H_    0.180240 0.990701 0.146476 0.153082
H122  H     H_    0.154868 0.017248 0.067114 0.175578
H123  H     H_    0.245904 0.012092 0.996359 0.156726
O50   O     O_3   0.757599 0.225977 0.056535 -0.643566
C130  C     C_3   0.777877 0.191488 0.957775 -0.221646
H124  H     H_    0.794970 0.235172 0.891935 0.170919
H125  H     H_    0.734964 0.154985 0.976135 0.145581
H126  H     H_    0.822980 0.153588 0.923090 0.153059
O51   O     O_3   0.809833 0.904286 0.965483 -0.651188
C131  C     C_3   0.811877 0.982600 0.938046 -0.277696
H127  H     H_    0.829315 0.988975 0.852460 0.158082
H128  H     H_    0.850184 0.013823 0.938690 0.173217
H129  H     H_    0.760471 0.010459 0.001260 0.155718
O52   O     O_3   0.242970 0.226506 0.938156 -0.653050
C132  C     C_3   0.219405 0.191598 0.038975 -0.244753
H130  H     H_    0.202359 0.234887 0.104823 0.169064
H131  H     H_    0.260466 0.154284 0.023699 0.134498
H132  H     H_    0.173432 0.154661 0.072167 0.164882
O53   O     O_3   0.692250 0.407123 0.038182 -0.647505
C133  C     C_3   0.693976 0.485002 0.063214 -0.285601
H133  H     H_    0.680067 0.490746 0.146368 0.152386
H134  H     H_    0.654724 0.517184 0.066930 0.176860
H135  H     H_    0.745751 0.512117 0.996247 0.155925
O54   O     O_3   0.257468 0.725885 0.056790 -0.641649
C134  C     C_3   0.277677 0.691419 0.958061 -0.220227
H136  H     H_    0.294806 0.735108 0.892207 0.170428
H137  H     H_    0.234710 0.654998 0.976473 0.145457
H138  H     H_    0.322738 0.653442 0.923363 0.152917
O55   O     O_3   0.309889 0.404223 0.965542 -0.651364
C135  C     C_3   0.312043 0.482572 0.938133 -0.277883
H139  H     H_    0.329517 0.489020 0.852532 0.158339
H140  H     H_    0.350371 0.513678 0.938835 0.173271
H141  H     H_    0.260669 0.510497 0.001333 0.155532
O56   O     O_3   0.743137 0.726276 0.938406 -0.652035
C136  C     C_3   0.719835 0.691540 0.039165 -0.246950
H142  H     H_    0.673894 0.654451 0.072632 0.165145
H143  H     H_    0.702820 0.734928 0.104889 0.168126
H144  H     H_    0.761037 0.654403 0.023723 0.135320

loop_
_geom_bond_atom_site_label_1
_geom_bond_atom_site_label_2
_geom_bond_distance
_ccdc_geom_bond_type
N19   Ni1   1.917830 S    
C95   O56   1.390033 S    
C52   C64   1.542555 S    
C118  H88   1.107870 S    
C92   C95   1.474662 S    
C35   C81   1.462768 S    
C16   O8    1.376363 S    
C120  H94   1.108793 S    
C116  H84   1.108572 S    
N10   Ni6   1.885465 S    
C92   O51   1.390880 S    
N36   O24   1.297417 A    
C114  H76   1.107837 S    
N34   O19   1.299556 A    
C14   N14   1.337404 A    
C40   C86   1.464260 S    
C104  H47   1.115605 S    
C101  H37   1.105345 S    
C134  H138  1.108264 S    
C34   C84   1.466758 S    
C89   O50   1.391214 S    
C73   O41   1.416600 S    
N4    Ni1   1.914065 S    
C99   H32   1.109101 S    
C43   C66   1.459049 S    
C106  H54   1.100168 S    
C25   C35   1.389604 A    
C3    N3    1.325741 A    
C125  H109  1.108003 S    
C4    H4    1.066275 S    
C19   O11   1.378193 S    
C5    H5    1.075280 S    
C20   C44   1.396850 A    
C99   H33   1.089669 S    
C7    H7    1.072545 S    
C8    H8    1.066190 S    
C31   C37   1.392165 A    
C19   C43   1.373102 A    
C51   C68   1.538869 S    
C17   N17   1.330617 A    
C97   H26   1.107753 S    
C132  H132  1.107646 S    
C59   C67   1.553490 S    
C105  H49   1.105449 S    
C53   C77   1.557923 S    
O7    C103  1.407947 S    
C103  H45   1.109103 S    
N3    N25   1.396360 A    
O48   C128  1.411142 S    
O10   C106  1.415295 S    
O8    C104  1.409460 S    
C11   N11   1.328871 A    
C30   C40   1.367656 A    
C28   N28   1.354083 A    
C131  H129  1.111589 S    
C123  H103  1.108010 S    
C101  H39   1.108957 S    
N13   N21   1.349978 A    
C97   H27   1.109525 S    
O51   C131  1.410945 S    
C4    C36   1.365623 A    
N5    N31   1.397358 A    
C125  H111  1.109023 S    
C64   C72   1.544791 S    
C121  H97   1.107948 S    
C39   C85   1.462749 S    
N26   Ni5   1.884050 S    
C119  H91   1.112722 S    
C31   H15   1.072344 S    
C3    C35   1.378400 A    
C136  H142  1.107620 S    
O40   C120  1.409135 S    
C120  H96   1.109351 S    
C50   C74   1.550020 S    
C24   C48   1.396590 A    
C117  H87   1.107949 S    
C20   O12   1.379740 S    
C127  H115  1.108083 S    
N39   O30   1.297111 A    
C49   C73   1.557964 S    
O55   C135  1.410950 S    
C10   C42   1.373963 A    
C91   O52   1.389986 S    
C63   C80   1.533597 S    
C64   C79   1.535466 S    
C94   O53   1.391202 S    
C14   C46   1.371739 A    
O53   C133  1.410240 S    
C117  H86   1.107003 S    
N20   Ni2   1.917828 S    
O50   C130  1.411464 S    
C71   C75   1.547006 S    
C3    H3    1.072374 S    
O47   C127  1.408087 S    
C4    N4    1.334793 A    
C69   C73   1.548703 S    
C5    N5    1.324590 A    
C107  H55   1.106969 S    
C79   O47   1.412091 S    
C124  H106  1.104471 S    
N27   Ni5   1.904910 S    
C8    C40   1.365544 A    
O6    C102  1.404040 S    
C90   O49   1.391167 S    
N9    N17   1.349978 A    
O56   C136  1.411452 S    
C17   C41   1.361335 A    
C42   C67   1.451145 S    
C130  H124  1.113205 S    
C24   N24   1.350132 A    
N11   Ni6   1.906312 S    
C21   C45   1.361428 A    
O54   C134  1.411484 S    
C130  H126  1.108267 S    
N15   Ni8   1.906312 S    
C98   H29   1.104441 S    
C46   C71   1.450050 S    
C30   H14   1.074487 S    
C123  H105  1.109233 S    
C118  H89   1.112963 S    
N37   O25   1.299794 A    
N5    Ni3   1.910914 S    
C49   O33   1.416893 S    
O16   C112  1.408134 S    
N33   O17   1.299667 A    
C25   N25   1.348115 A    
C66   C78   1.547934 S    
C56   C71   1.543507 S    
C29   C39   1.389672 A    
C27   H11   1.072080 S    
C61   N37   1.457422 S    
C55   C79   1.545585 S    
C119  H93   1.109319 S    
C9    O1    1.382181 S    
C100  H35   1.115793 S    
N38   O28   1.299767 A    
C136  H144  1.111915 S    
C11   C43   1.375259 A    
C54   C58   1.538181 S    
C89   C94   1.470979 S    
N12   N20   1.349767 A    
C5    C37   1.375337 A    
C20   N20   1.349999 A    
N7    Ni4   1.914065 S    
C21   N21   1.332207 A    
C112  H70   1.092060 S    
N31   Ni7   1.904910 S    
C56   C80   1.551150 S    
C127  H117  1.109213 S    
O52   C132  1.411420 S    
C135  H140  1.109230 S    
C59   C76   1.535606 S    
C128  H119  1.102998 S    
N28   Ni6   1.904911 S    
N15   N23   1.349766 A    
C55   O39   1.414896 S    
C57   C74   1.531953 S    
O36   C116  1.412578 S    
C77   O45   1.416473 S    
C109  H63   1.109027 S    
C108  H58   1.091917 S    
C67   C79   1.547820 S    
N12   Ni5   1.906312 S    
C18   C42   1.382967 A    
C103  H44   1.103491 S    
O13   C109  1.401070 S    
C6    H6    1.067919 S    
C129  H122  1.108758 S    
C22   C46   1.384004 A    
C107  H57   1.109139 S    
C124  H108  1.110711 S    
C131  H128  1.109225 S    
C109  H62   1.108148 S    
C133  H135  1.111423 S    
C28   H12   1.069730 S    
C113  H74   1.107213 S    
C18   N18   1.346477 A    
C110  H65   1.106725 S    
C100  H34   1.101480 S    
C122  H101  1.103966 S    
N22   Ni3   1.913462 S    
C54   C78   1.549926 S    
C56   C60   1.543346 S    
C51   O35   1.414708 S    
C26   N26   1.347007 A    
C129  H123  1.111410 S    
C74   O42   1.419818 S    
C30   N30   1.347096 A    
N29   Ni8   1.884050 S    
C113  H75   1.108021 S    
C135  H141  1.111589 S    
N40   O31   1.299756 A    
C41   C68   1.444616 S    
C62   C70   1.545792 S    
C116  H83   1.112656 S    
C1    N1    1.324546 A    
C6    C38   1.358451 A    
C21   O13   1.379948 S    
C45   C72   1.446531 S    
C88   C96   1.351935 D    
N16   Ni7   1.906312 S    
C47   C70   1.458638 S    
C82   C90   1.350321 D    
C7    N7    1.325671 A    
C87   C95   1.348027 D    
C8    N8    1.334658 A    
N34   O20   1.299780 A    
C49   C66   1.548288 S    
C104  H46   1.101305 S    
C126  H114  1.108294 S    
C101  H38   1.106905 S    
C52   C76   1.551053 S    
N6    Ni4   1.910914 S    
C53   C70   1.548434 S    
C57   C65   1.544418 S    
C115  H79   1.112766 S    
O14   C110  1.415189 S    
C112  H72   1.109532 S    
N23   Ni3   1.917830 S    
C55   C72   1.539232 S    
C106  H53   1.106929 S    
C125  H110  1.108469 S    
C61   C69   1.544186 S    
C50   C62   1.537671 S    
C9    N9    1.339269 A    
C63   C71   1.550388 S    
C114  H78   1.109473 S    
C63   N39   1.459009 S    
C27   N27   1.354393 A    
C76   O44   1.416876 S    
C58   N34   1.455107 S    
O35   C115  1.410520 S    
C122  H100  1.108356 S    
C37   C87   1.466755 S    
O1    C97   1.399030 S    
C38   C88   1.466773 S    
O5    C101  1.399165 S    
C135  H139  1.113777 S    
C108  H60   1.109559 S    
C132  H131  1.111872 S    
C56   O40   1.413176 S    
C105  H50   1.108382 S    
N32   Ni8   1.904911 S    
N9    Ni5   1.885465 S    
C81   C89   1.347050 D    
C70   C74   1.548125 S    
C1    C33   1.375335 A    
C134  H136  1.113221 S    
C6    N6    1.333105 A    
C15   O7    1.385462 S    
C123  H104  1.109205 S    
O38   C118  1.413357 S    
C51   C63   1.523839 S    
C133  H133  1.113966 S    
C102  H42   1.108981 S    
C7    C39   1.378292 A    
N16   N24   1.349767 A    
C105  H51   1.109042 S    
C121  H98   1.108346 S    
C119  H92   1.107902 S    
O43   C123  1.408193 S    
C32   N32   1.354253 A    
C49   C61   1.523572 S    
C61   C78   1.532254 S    
C32   C38   1.368814 A    
C59   N35   1.459496 S    
N35   O22   1.297246 A    
N21   Ni4   1.913460 S    
C121  H99   1.108939 S    
C68   C80   1.545543 S    
C106  H52   1.105806 S    
C87   H24   1.086184 S    
C1    H1    1.075271 S    
C127  H116  1.109253 S    
O46   C126  1.405729 S    
C98   H28   1.103364 S    
N13   Ni7   1.885465 S    
C12   O4    1.376379 S    
N36   O23   1.300144 A    
C104  H48   1.105766 S    
C126  H112  1.108049 S    
O37   C117  1.410687 S    
C90   C93   1.470966 S    
O11   C107  1.395636 S    
N14   N22   1.349977 A    
C115  H81   1.109310 S    
C22   N22   1.346225 A    
N4    N26   1.396357 A    
C88   H23   1.087655 S    
C120  H95   1.113428 S    
C62   N38   1.455072 S    
C82   H17   1.087835 S    
N8    N30   1.396357 A    
N25   Ni6   1.884050 S    
C107  H56   1.108358 S    
C78   O46   1.419968 S    
C64   N40   1.450794 S    
C58   C73   1.546410 S    
C2    C34   1.358633 A    
C86   H21   1.087852 S    
C17   O9    1.379567 S    
O39   C119  1.410674 S    
C97   H25   1.106657 S    
C33   C83   1.466767 S    
O42   C122  1.405790 S    
N2    N28   1.397361 A    
C60   C68   1.546680 S    
C27   C33   1.392129 A    
C25   H9    1.076627 S    
C130  H125  1.112186 S    
C9    C41   1.373392 A    
C86   C94   1.350247 D    
C102  H40   1.103279 S    
C103  H43   1.090103 S    
C13   C45   1.372996 A    
C19   N19   1.339979 A    
C60   N36   1.450734 S    
C15   C47   1.374604 A    
C111  H67   1.107006 S    
C81   H18   1.086194 S    
C18   O10   1.381610 S    
O45   C125  1.404182 S    
C84   H19   1.087618 S    
C85   H22   1.086192 S    
C12   N12   1.324577 A    
O41   C121  1.404221 S    
C13   N13   1.339907 A    
C136  H143  1.113241 S    
O34   C114  1.413566 S    
C96   O55   1.390914 S    
C80   O48   1.417750 S    
C93   O54   1.391231 S    
O3    C99   1.408077 S    
C2    N2    1.333021 A    
N8    Ni3   1.914065 S    
O9    C105  1.401200 S    
C84   C92   1.351974 D    
C85   C93   1.347090 D    
C31   N31   1.354434 A    
C128  H118  1.110645 S    
C83   C91   1.348005 D    
C13   O5    1.382154 S    
C14   O6    1.379446 S    
C117  H85   1.113340 S    
C23   O15   1.378798 S    
N14   Ni8   1.885465 S    
N17   Ni2   1.913460 S    
C28   C34   1.369012 A    
C26   H10   1.074619 S    
C110  H64   1.105840 S    
C134  H137  1.112193 S    
C75   O43   1.412229 S    
O33   C113  1.410478 S    
C53   C57   1.523818 S    
C53   O37   1.416881 S    
C16   N16   1.325162 A    
C54   O38   1.413239 S    
C36   C82   1.464264 S    
C72   C76   1.544717 S    
C111  H68   1.108047 S    
N3    Ni2   1.914065 S    
C10   N10   1.338458 A    
C98   H30   1.109110 S    
N10   N18   1.349977 A    
C118  H90   1.109450 S    
O12   C108  1.407908 S    
C51   C75   1.545339 S    
C29   N29   1.348158 A    
N37   O26   1.297836 A    
N40   O32   1.297283 A    
C124  H107  1.109364 S    
C116  H82   1.109187 S    
C111  H69   1.109160 S    
N7    N29   1.396360 A    
N33   O18   1.297821 A    
C26   C36   1.367708 A    
C100  H36   1.105916 S    
N38   O27   1.299597 A    
C22   O14   1.381514 S    
C12   C44   1.368078 A    
C126  H113  1.103385 S    
C24   O16   1.379736 S    
C62   C77   1.546215 S    
O4    C100  1.409576 S    
C16   C48   1.368513 A    
C115  H80   1.107890 S    
C50   O34   1.413325 S    
C57   N33   1.457543 S    
C112  H71   1.102713 S    
O2    C98   1.403861 S    
N24   Ni4   1.917828 S    
N39   O29   1.300702 A    
C2    H2    1.068074 S    
C11   O3    1.385447 S    
C99   H31   1.103813 S    
C23   N23   1.340385 A    
C128  H120  1.109436 S    
C29   H13   1.076474 S    
C114  H77   1.113093 S    
C10   O2    1.380402 S    
N18   Ni1   1.913462 S    
N30   Ni7   1.884050 S    
N35   O21   1.300800 A    
C108  H59   1.103070 S    
N2    Ni2   1.910914 S    
C132  H130  1.113240 S    
O44   C124  1.410452 S    
C91   C96   1.474703 S    
N6    N32   1.397361 A    
C44   C65   1.459610 S    
N11   N19   1.349766 A    
C129  H121  1.113970 S    
C60   C75   1.536669 S    
N1    Ni1   1.910914 S    
C83   H20   1.086194 S    
C50   C65   1.549607 S    
C131  H127  1.113779 S    
C15   N15   1.328436 A    
C48   C69   1.460150 S    
C32   H16   1.069764 S    
C109  H61   1.105261 S    
C133  H134  1.108779 S    
C102  H41   1.105314 S    
C113  H73   1.113204 S    
C54   C69   1.549235 S    
C58   C66   1.546413 S    
C110  H66   1.100392 S    
C122  H102  1.108481 S    
O15   C111  1.396073 S    
C23   C47   1.373701 A    
C55   C59   1.523424 S    
C52   C67   1.543744 S    
C65   C77   1.548332 S    
O49   C129  1.410221 S    
C52   O36   1.413935 S    
N1    N27   1.397358 A    
