data_mof_unit_40508.cif
_audit_creation_date              2012-12-10T17:24:44-0500
_audit_creation_method            fapswitch 2.2
_symmetry_space_group_name_H-M    P1
_symmetry_Int_Tables_number       1
_space_group_crystal_system       triclinic
_cell_length_a                    23.52479
_cell_length_b                    10.863044
_cell_length_c                    9.572378
_cell_angle_alpha                 90.382485
_cell_angle_beta                  90.057101
_cell_angle_gamma                 92.59543
_cell_volume                      2443.66323674

loop_
_atom_site_label
_atom_site_type_symbol
_atom_type_description
_atom_site_fract_x
_atom_site_fract_y
_atom_site_fract_z
_atom_type_partial_charge
C1    C     C_R   0.504533 0.263080 0.500347 0.821239
C2    C     C_R   0.965198 0.285063 0.430333 0.595628
C3    C     C_R   0.024484 0.284238 0.430302 0.586899
C4    C     C_R   0.057493 0.391535 0.465037 -0.242593
C5    C     C_R   0.029982 0.500265 0.500279 -0.093893
C6    C     C_R   0.062486 0.608218 0.535390 -0.066610
C7    C     C_R   0.034954 0.716028 0.570348 -0.185236
C8    C     C_R   0.975766 0.717588 0.570805 0.676661
C9    C     C_R   0.117387 0.393767 0.465901 0.697184
C10   C     C_R   0.122022 0.605821 0.534348 0.619888
C11   C     C_R   0.238782 0.496901 0.372807 0.687485
C12   C     C_R   0.390956 0.499628 0.499960 0.862517
C13   C     C_R   0.298074 0.496836 0.372962 -0.248452
C14   C     C_R   0.328329 0.499650 0.499787 -0.145212
C15   C     C_R   0.298177 0.502633 0.626411 -0.191744
C16   C     C_R   0.238917 0.502830 0.626067 -0.163499
C17   C     C_R   0.209035 0.499827 0.499470 0.199917
C18   C     C_R   0.761027 0.498634 0.373854 -0.087302
C19   C     C_R   0.701753 0.498049 0.373552 -0.209775
C20   C     C_R   0.671651 0.502455 0.500189 -0.038255
C21   C     C_R   0.701965 0.508522 0.626922 -0.214300
C22   C     C_R   0.761254 0.509439 0.626858 -0.087501
C23   C     C_R   0.496891 0.737624 0.501557 0.776462
C24   C     C_R   0.790936 0.504102 0.500423 0.320416
C25   C     C_R   0.537129 0.122695 0.754999 -0.149953
C26   C     C_R   0.530568 0.064855 0.883754 -0.135557
C27   C     C_R   0.502482 0.949992 0.891074 -0.121650
C28   C     C_R   0.486279 0.887757 0.768556 -0.149465
C29   C     C_R   0.498544 0.939636 0.635537 0.095406
C30   C     C_R   0.515610 0.065489 0.630969 0.097621
C31   C     C_R   0.509652 0.129301 0.503097 -0.127567
C32   C     C_R   0.500781 0.062991 0.378590 -0.172924
C33   C     C_R   0.495937 0.935795 0.380102 -0.201450
C34   C     C_R   0.609037 0.500855 0.500046 0.765979
C35   C     C_R   0.494698 0.872319 0.507052 -0.105947
C36   C     C_R   0.575667 0.664293 0.145540 -0.127339
C37   C     C_R   0.612539 0.744540 0.073732 -0.210168
C38   C     C_R   0.612606 0.744241 0.929838 -0.192442
C39   C     C_R   0.575707 0.663890 0.856924 -0.125065
C40   C     C_R   0.537171 0.580736 0.925760 0.167743
C41   C     C_R   0.537152 0.580799 0.075510 0.096967
C42   C     C_R   0.464766 0.422772 0.073152 0.672344
C43   C     C_R   0.464829 0.422913 0.925106 -0.155655
C44   C     C_R   0.882762 0.608778 0.535102 0.591820
C45   C     C_R   0.877601 0.396757 0.466142 0.627564
C46   C     C_R   0.937297 0.393207 0.465185 -0.218921
C47   C     C_R   0.969894 0.501255 0.500477 -0.160943
C48   C     C_R   0.942575 0.610390 0.535962 -0.106997
Cu1   Cu    Cu3+1 0.500000 0.499990 0.640660 0.931818
Cu2   Cu    Cu3+1 0.500000 0.500010 0.359340 0.992369
H1    H     H_    0.784195 0.513561 0.725032 0.149257
H2    H     H_    0.497527 0.109360 0.279227 0.185638
H3    H     H_    0.545792 0.110808 0.978220 0.139983
H4    H     H_    0.494294 0.907721 0.991620 0.142341
H5    H     H_    0.641352 0.807046 0.873936 0.169543
H6    H     H_    0.579180 0.671882 0.746913 0.200618
N1    N     N_R   0.851875 0.503234 0.500567 -0.493204
N2    N     N_R   0.148081 0.499824 0.499833 -0.461919
N3    N     N_R   0.500540 0.501210 0.147910 -0.251041
N4    N     N_R   0.500560 0.501290 0.852040 -0.237203
O1    O     O_R   0.500000 0.319640 0.618810 -0.589934
O2    O     O_2   0.845271 0.294735 0.433934 -0.432868
O3    O     O_2   0.144939 0.291044 0.433968 -0.410282
O4    O     O_2   0.153726 0.708742 0.566712 -0.496248
O5    O     O_R   0.500000 0.319660 0.381240 -0.530632
O6    O     O_R   0.417880 0.499950 0.618810 -0.584901
O7    O     O_R   0.417880 0.499980 0.381240 -0.529583
O8    O     O_R   0.500000 0.680340 0.618760 -0.614175
O9    O     O_R   0.500000 0.680360 0.381190 -0.603521
O10   O     O_R   0.582120 0.500020 0.618760 -0.604653
O11   O     O_R   0.582120 0.500050 0.381190 -0.605281
O12   O     O_2   0.855449 0.711723 0.567462 -0.428688
F1    F     F_    0.935485 0.179062 0.395913 -0.530939
H7    H     H_    0.679581 0.493731 0.274300 0.164172
H8    H     H_    0.679956 0.512448 0.726069 0.162984
H9    H     H_    0.560193 0.210989 0.754019 0.162517
H10   H     H_    0.462379 0.801540 0.781344 0.174170
H11   H     H_    0.492175 0.887219 0.281063 0.165755
F2    F     F_    0.428577 0.343349 0.141238 -0.648675
F3    F     F_    0.049143 0.177546 0.395865 -0.538065
H12   H     H_    0.579519 0.672059 0.255639 0.200682
H13   H     H_    0.641348 0.807376 0.130499 0.167230
H14   H     H_    0.436072 0.359764 0.868864 0.180590
H15   H     H_    0.059155 0.799990 0.597572 0.230888
F4    F     F_    0.951495 0.824628 0.605476 -0.559709
F5    F     F_    0.210215 0.494929 0.249543 -0.625229
H16   H     H_    0.320191 0.494614 0.273864 0.207170
H17   H     H_    0.320298 0.504883 0.725730 0.186416
H18   H     H_    0.216109 0.504986 0.724195 0.189954
H19   H     H_    0.783804 0.494828 0.275779 0.149330

loop_
_geom_bond_atom_site_label_1
_geom_bond_atom_site_label_2
_ccdc_geom_bond_type
C40   N4    A    
Cu1   O8    S    
C43   H14   S    
C23   O9    A    
C19   C20   A    
C27   H4    S    
C7    C8    A    
C31   C32   A    
C45   C46   A    
C2    C46   A    
C5    C6    A    
C5    C47   A    
C45   N1    A    
C26   C27   A    
C29   C30   A    
Cu1   N4    S    
C18   C24   A    
Cu2   N3    S    
C28   C29   A    
C10   N2    A    
Cu2   O9    S    
C18   C19   A    
C38   C39   A    
C33   H11   S    
C11   F5    S    
C15   C16   A    
C45   O2    S    
C1    C31   S    
C8    F4    S    
C32   H2    S    
C11   C17   A    
C38   H5    S    
C47   C48   A    
C16   C17   A    
C1    O5    A    
Cu2   O7    S    
C34   O10   A    
C17   N2    S    
C20   C34   S    
C7    H15   S    
C42   F2    S    
C21   C22   A    
C36   C41   A    
C3    F3    S    
C12   O7    A    
Cu1   O1    S    
Cu1   O6    S    
C18   H19   S    
C41   N3    A    
C39   C40   A    
C24   N1    S    
C36   H12   S    
C25   C26   A    
C12   O6    A    
C23   O8    A    
Cu2   O11   S    
C8    C48   A    
C37   C38   A    
C39   H6    S    
C44   N1    A    
C13   H16   S    
C28   H10   S    
C2    F1    S    
C43   N4    A    
C40   C41   A    
C12   C14   S    
C23   C35   S    
Cu1   O10   S    
C22   C24   A    
C37   H13   S    
C42   C43   A    
C3    C4    A    
C26   H3    S    
C25   C30   A    
C21   H8    S    
C46   C47   A    
C36   C37   A    
C9    O3    S    
C19   H7    S    
C10   O4    S    
C4    C5    A    
C1    O1    A    
C42   N3    A    
C6    C10   A    
C6    C7    A    
C29   C35   A    
C25   H9    S    
C32   C33   A    
C2    C3    A    
C11   C13   A    
C30   C31   A    
C33   C35   A    
C44   O12   S    
Cu2   O5    S    
C16   H18   S    
C20   C21   A    
C9    N2    A    
Cu1   Cu2   S    
C27   C28   A    
C14   C15   A    
C15   H17   S    
C4    C9    A    
C13   C14   A    
C34   O11   A    
C44   C48   A    
C22   H1    S    
