data_mof_unit_22101.cif
_audit_creation_date              2012-12-10T18:13:28-0500
_audit_creation_method            fapswitch 2.2
_symmetry_space_group_name_H-M    P1
_symmetry_Int_Tables_number       1
_space_group_crystal_system       triclinic
_cell_length_a                    12.726643
_cell_length_b                    13.068906
_cell_length_c                    16.648111
_cell_angle_alpha                 88.880962
_cell_angle_beta                  97.884828
_cell_angle_gamma                 98.184848
_cell_volume                      2714.85216266

loop_
_atom_site_label
_atom_site_type_symbol
_atom_type_description
_atom_site_fract_x
_atom_site_fract_y
_atom_site_fract_z
_atom_type_partial_charge
C1    C     C_R   0.560613 0.691613 0.509564 0.832468
C2    C     C_R   0.598656 0.445403 0.233659 -0.192030
C3    C     C_R   0.540881 0.422546 0.868377 -0.143579
C4    C     C_R   0.557676 0.453961 0.790578 -0.219525
C5    C     C_R   0.371733 0.481498 0.760771 -0.179168
C6    C     C_R   0.354799 0.449387 0.838422 -0.191686
C7    C     C_R   0.438472 0.417884 0.892197 0.206448
C8    C     C_2   0.485384 0.345253 0.027859 -0.245374
C9    C     C_2   0.419511 0.393855 0.975617 -0.227977
C10   C     C_R   0.472856 0.482105 0.735835 -0.044654
C11   C     C_R   0.323595 0.070342 0.372404 -0.201615
C12   C     C_R   0.510944 0.491736 0.349359 0.829007
C13   C     C_R   0.406137 0.200832 0.470886 -0.055437
C14   C     C_R   0.688253 0.838663 0.580169 0.079239
C15   C     C_R   0.710001 0.945065 0.596194 -0.138205
C16   C     C_R   0.641879 0.011704 0.560498 -0.226610
C17   C     C_R   0.552150 0.975397 0.503725 0.077839
C18   C     C_R   0.540562 0.873288 0.475621 0.076938
C19   C     C_R   0.474264 0.038024 0.473041 0.095878
C20   C     C_R   0.397242 0.005172 0.405295 0.179507
C21   C     C_R   0.397040 0.909189 0.370365 -0.260738
C22   C     C_R   0.467868 0.843932 0.405003 -0.198353
C23   C     C_R   0.440159 0.308992 0.489598 0.880223
C24   C     C_R   0.470638 0.132535 0.508689 -0.254870
C25   C     C_R   0.329722 0.169386 0.404057 -0.193356
C26   C     C_R   0.600412 0.802453 0.519589 -0.163436
C27   C     C_R   0.882056 0.319716 0.589774 0.368982
C28   C     C_R   0.211918 0.633587 0.407340 0.013348
C29   C     C_R   0.110833 0.661904 0.386604 -0.256282
C30   C     C_R   0.024318 0.608257 0.419394 -0.167735
C31   C     C_R   0.038136 0.525051 0.473612 -0.028701
C32   C     C_R   0.142732 0.497513 0.492842 0.171009
C33   C     C_R   0.952014 0.468901 0.509556 -0.052520
C34   C     C_R   0.486180 0.500211 0.650866 0.863305
C35   C     C_R   0.967434 0.378480 0.556024 0.003955
C36   C     C_R   0.068774 0.352428 0.573596 -0.376247
C37   C     C_R   0.156199 0.412233 0.546738 0.432735
C38   C     C_R   0.850685 0.500142 0.503225 -0.075029
C39   C     C_R   0.786391 0.358104 0.583584 -0.011152
C40   C     C_R   0.504894 0.455779 0.266438 -0.024944
C41   C     C_R   0.404574 0.416525 0.224223 -0.211674
C42   C     C_R   0.397850 0.370915 0.148949 -0.163644
C43   C     C_R   0.491266 0.366160 0.114203 0.204956
C44   C     C_R   0.591744 0.400632 0.157708 -0.167918
H1    H     H_    0.331252 0.419455 0.249807 0.156273
H2    H     H_    0.276187 0.449152 0.856595 0.131326
H3    H     H_    0.279783 0.222928 0.373715 0.150747
H4    H     H_    0.341132 0.883860 0.317052 0.140011
H5    H     H_    0.265322 0.046729 0.320000 0.135189
H6    H     H_    0.521991 0.157950 0.563854 0.138965
H7    H     H_    0.663337 0.092235 0.576784 0.165027
H8    H     H_    0.777371 0.978166 0.638879 0.158532
H9    H     H_    0.465885 0.770515 0.375488 0.152470
H10   H     H_    0.719182 0.315781 0.608944 0.148663
H11   H     H_    0.636718 0.454779 0.773123 0.159752
H12   H     H_    0.082778 0.288932 0.614500 0.167566
H13   H     H_    0.829870 0.567250 0.469595 0.132117
H14   H     H_    0.279203 0.674697 0.381540 0.133664
H15   H     H_    0.947319 0.632271 0.399791 0.134144
H16   H     H_    0.099378 0.725110 0.344788 0.145985
H17   H     H_    0.304852 0.503473 0.719932 0.180560
H18   H     H_    0.356737 0.429891 0.997239 0.151448
H19   H     H_    0.664386 0.397916 0.131110 0.125366
H20   H     H_    0.609008 0.404460 0.909626 0.123874
H21   H     H_    0.676948 0.472688 0.266338 0.151161
H22   H     H_    0.549315 0.309733 0.007846 0.147741
H23   H     H_    0.319626 0.342801 0.116533 0.130288
N1    N     N_R   0.774070 0.445420 0.541180 -0.141986
N2    N     N_R   0.226730 0.554050 0.459240 -0.111824
O1    O     O_R   0.631480 0.627510 0.519670 -0.625355
O2    O     O_R   0.455770 0.662400 0.493360 -0.604950
O3    O     O_R   0.598240 0.480510 0.398910 -0.605244
O4    O     O_R   0.422540 0.515400 0.372600 -0.631855
O5    O     O_R   0.544230 0.337600 0.506640 -0.619459
O6    O     O_R   0.368520 0.372490 0.480330 -0.552478
O7    O     O_R   0.577460 0.484600 0.627400 -0.629636
O8    O     O_R   0.401760 0.519490 0.601090 -0.542495
Zn1   Zn    Zn3+2 0.617320 0.476700 0.517570 0.928003
Zn2   Zn    Zn3+2 0.382680 0.523300 0.482430 0.972506
C45   C     C_3   0.755767 0.763943 0.627753 -0.374275
C46   C     C_3   0.842569 0.810964 0.695595 -0.394560
C47   C     C_3   0.900732 0.727274 0.739665 -0.859419
H24   H     H_    0.843525 0.670486 0.768228 0.259473
H25   H     H_    0.939711 0.686312 0.696604 0.263556
H26   H     H_    0.963421 0.763178 0.787862 0.250774
H27   H     H_    0.902674 0.867283 0.669387 0.227955
H28   H     H_    0.805409 0.850907 0.740444 0.230128
H29   H     H_    0.700865 0.704527 0.656185 0.216728
H30   H     H_    0.796719 0.725669 0.584351 0.223176
O9    O     O_3   0.888807 0.226361 0.628884 -0.799671
H31   H     H_    0.933639 0.187298 0.600239 0.329233
O10   O     O_3   0.254525 0.388743 0.577570 -0.723754
H32   H     H_    0.250397 0.327217 0.613523 0.311181

loop_
_geom_bond_atom_site_label_1
_geom_bond_atom_site_label_2
_ccdc_geom_bond_type
C8    H22   S    
O1    Zn1   S    
C41   C42   A    
C35   C36   A    
C18   C26   A    
C8    C43   S    
C2    H21   S    
O2    Zn2   S    
C46   C47   S    
C3    H20   S    
C1    O2    A    
C11   H5    S    
C5    C6    A    
C36   C37   A    
O7    Zn1   S    
C3    C7    A    
C34   O8    A    
C30   C31   A    
C39   H10   S    
C11   C25   A    
C15   C16   A    
C13   C23   S    
C27   O9    S    
C39   N1    A    
C45   H30   S    
O3    Zn1   S    
C33   C35   A    
C28   N2    A    
C2    C44   A    
C8    C9    D    
C16   H7    S    
C14   C45   S    
C25   H3    S    
C46   H27   S    
C21   H4    S    
C12   O3    A    
C21   C22   A    
C24   H6    S    
C13   C25   A    
C22   H9    S    
O8    Zn2   S    
C44   H19   S    
N1    Zn1   S    
C11   C20   A    
C9    H18   S    
C27   C39   A    
C16   C17   A    
C27   C35   A    
C32   C37   A    
C13   C24   A    
C12   C40   S    
C43   C44   A    
C29   C30   A    
C36   H12   S    
C38   H13   S    
C31   C32   A    
C29   H16   S    
C30   H15   S    
C31   C33   A    
C17   C18   A    
O4    Zn2   S    
C5    H17   S    
C10   C34   S    
C15   H8    S    
C14   C26   A    
C46   H28   S    
C40   C41   A    
C38   N1    A    
C47   H25   S    
C4    H11   S    
C42   H23   S    
N2    Zn2   S    
C42   C43   A    
C23   O5    A    
C4    C10   A    
C3    C4    A    
C7    C9    S    
C28   C29   A    
C6    H2    S    
C37   O10   S    
C18   C22   A    
C32   N2    A    
C1    O1    A    
C23   O6    A    
C45   C46   S    
C6    C7    A    
C28   H14   S    
C47   H26   S    
C33   C38   A    
C19   C20   A    
C19   C24   A    
C5    C10   A    
C45   H29   S    
O9    H31   S    
C1    C26   S    
O10   H32   S    
C17   C19   A    
C2    C40   A    
C20   C21   A    
C47   H24   S    
O5    Zn1   S    
C41   H1    S    
C14   C15   A    
C12   O4    A    
O6    Zn2   S    
C34   O7    A    
