data_mof_unit_45521.cif
_audit_creation_date              2012-12-10T20:38:21-0500
_audit_creation_method            fapswitch 2.2
_symmetry_space_group_name_H-M    P1
_symmetry_Int_Tables_number       1
_space_group_crystal_system       triclinic
_cell_length_a                    9.88977
_cell_length_b                    10.693035
_cell_length_c                    16.744914
_cell_angle_alpha                 90.451349
_cell_angle_beta                  83.306995
_cell_angle_gamma                 88.864148
_cell_volume                      1758.29604461

loop_
_atom_site_label
_atom_site_type_symbol
_atom_type_description
_atom_site_fract_x
_atom_site_fract_y
_atom_site_fract_z
_atom_type_partial_charge
C1    C     C_R   0.498932 0.739831 0.500954 0.962208
C2    C     C_R   0.359194 0.595608 0.774073 -0.182163
C3    C     C_R   0.460136 0.678088 0.156200 -0.236959
C4    C     C_R   0.443935 0.639417 0.235630 -0.040354
C5    C     C_R   0.645692 0.502065 0.206660 0.163678
C6    C     C_R   0.659423 0.543956 0.127365 -0.165796
C7    C     C_R   0.566267 0.630203 0.102082 0.038158
C8    C     C_2   0.451291 0.618975 0.984571 -0.230148
C9    C     C_2   0.565055 0.651653 0.016091 -0.031278
C10   C     C_R   0.536193 0.548753 0.262011 -0.081759
C11   C     C_R   0.382886 0.940665 0.527391 0.121613
C12   C     C_R   0.478936 0.498212 0.653211 0.960162
C13   C     C_R   0.498415 0.871833 0.496622 0.012200
C14   C     C_R   0.611695 0.931932 0.456893 -0.191638
C15   C     C_R   0.613526 0.061324 0.456070 -0.197334
C16   C     C_R   0.501121 0.128742 0.493848 -0.072186
C17   C     C_R   0.383396 0.068140 0.523895 0.019100
C18   C     C_3   0.299550 0.086143 0.603387 -0.252444
C19   C     C_3   0.299203 0.943983 0.608946 -0.336164
C20   C     C_R   0.916066 0.565638 0.557192 0.231331
C21   C     C_R   0.941218 0.419992 0.451054 -0.000476
C22   C     C_R   0.085198 0.422336 0.450808 -0.068602
C23   C     C_R   0.501199 0.260424 0.498720 0.899098
C24   C     C_R   0.058186 0.565071 0.557313 0.221683
C25   C     C_3   0.058753 0.701689 0.573970 -0.552717
C26   C     C_3   0.904751 0.703052 0.573261 -0.134233
C27   C     C_R   0.520614 0.508638 0.346669 0.882364
C28   C     C_R   0.460698 0.511100 0.740098 -0.089490
C29   C     C_R   0.551101 0.453272 0.788414 -0.048384
C30   C     C_R   0.545686 0.491144 0.868345 -0.232484
C31   C     C_R   0.451318 0.583096 0.900451 0.233036
C32   C     C_R   0.353156 0.632007 0.854476 0.228181
H1    H     H_    0.739349 0.504917 0.083950 0.121818
H2    H     H_    0.699737 0.879358 0.428984 0.157860
H3    H     H_    0.702886 0.107941 0.428253 0.171938
H4    H     H_    0.355612 0.134841 0.648169 0.199856
H5    H     H_    0.196967 0.904980 0.607465 0.128080
H6    H     H_    0.151508 0.362407 0.410414 0.186922
H7    H     H_    0.092538 0.720326 0.633901 0.197514
H8    H     H_    0.112838 0.753822 0.523080 0.217966
H9    H     H_    0.870123 0.756744 0.522498 0.194547
H10   H     H_    0.388102 0.744953 0.135610 0.141229
H11   H     H_    0.288783 0.638084 0.736717 0.148738
H12   H     H_    0.359788 0.596241 0.023832 0.143262
H13   H     H_    0.615039 0.448476 0.906344 0.128006
N1    N     N_R   0.857140 0.500860 0.500530 -0.171383
N2    N     N_R   0.142780 0.500820 0.500530 -0.121981
O1    O     O_R   0.385310 0.683210 0.499990 -0.585917
O2    O     O_R   0.614650 0.683240 0.500000 -0.647021
O3    O     O_R   0.371780 0.500000 0.615800 -0.615457
O4    O     O_R   0.601120 0.500040 0.615800 -0.582890
O5    O     O_R   0.385350 0.316760 0.500000 -0.613161
O6    O     O_R   0.614690 0.316790 0.500010 -0.625224
O7    O     O_R   0.398880 0.499960 0.384200 -0.603293
O8    O     O_R   0.628220 0.500000 0.384200 -0.651886
Zn1   Zn    Zn3+2 0.346870 0.499980 0.499990 0.998431
Zn2   Zn    Zn3+2 0.653130 0.500020 0.500010 0.962013
C33   C     C_2   0.649856 0.351843 0.759328 0.427154
H14   H     H_    0.735396 0.330613 0.792456 0.073757
O9    O     O_2   0.634115 0.287377 0.700746 -0.557334
C34   C     C_2   0.162287 0.143975 0.594551 0.468084
H15   H     H_    0.099554 0.105876 0.551513 0.079764
O10   O     O_2   0.120774 0.234774 0.635480 -0.559740
C35   C     C_2   0.367690 0.897590 0.679439 0.423559
H16   H     H_    0.314291 0.908233 0.739524 0.084935
O11   O     O_2   0.481282 0.849229 0.670817 -0.587052
C36   C     C_2   0.885766 0.328326 0.397660 0.361947
H17   H     H_    0.779722 0.327694 0.390579 0.137078
O12   O     O_2   0.959793 0.250385 0.359763 -0.606468
C37   C     C_2   0.329544 0.699373 0.287641 0.420220
H18   H     H_    0.229984 0.707303 0.266631 0.050990
O13   O     O_2   0.347582 0.749091 0.351061 -0.576758
C38   C     C_3   0.824731 0.734926 0.654879 -0.689464
H19   H     H_    0.837209 0.835243 0.669293 0.251205
H20   H     H_    0.715094 0.717896 0.652449 0.286229
H21   H     H_    0.860322 0.677095 0.703548 0.236406
C39   C     C_3   0.746454 0.405265 0.229250 -0.864869
H22   H     H_    0.815827 0.449961 0.267776 0.250704
H23   H     H_    0.692317 0.326574 0.260796 0.227944
H24   H     H_    0.810246 0.365533 0.175697 0.240952
C40   C     C_2   0.692010 0.692974 0.967701 0.407902
H25   H     H_    0.785923 0.696786 0.995219 0.050770
O14   O     O_2   0.692250 0.727617 0.898365 -0.552685
C41   C     C_3   0.246515 0.726169 0.889217 -0.923847
H26   H     H_    0.296542 0.810229 0.910468 0.260545
H27   H     H_    0.178957 0.756242 0.844078 0.234732
H28   H     H_    0.182127 0.684500 0.940544 0.235173

loop_
_geom_bond_atom_site_label_1
_geom_bond_atom_site_label_2
_ccdc_geom_bond_type
C10   C27   S    
C3    H10   S    
C2    C28   A    
C38   H19   S    
C30   H13   S    
C41   H28   S    
O1    Zn1   S    
C4    C37   S    
C40   H25   S    
C27   O7    A    
C39   H22   S    
C11   C19   S    
C12   C28   S    
C28   C29   A    
C8    C31   S    
C41   H27   S    
C3    C7    A    
C25   H8    S    
C5    C6    A    
C27   O8    A    
C33   O9    D    
C15   C16   A    
C22   H6    S    
C26   C38   S    
O2    Zn2   S    
C2    C32   A    
C18   C19   S    
C34   O10   D    
C19   H5    S    
C20   C24   A    
C8    C9    D    
C37   H18   S    
O4    Zn2   S    
C19   C35   S    
C22   N2    A    
C21   C22   A    
C21   C36   S    
C38   H20   S    
C15   H3    S    
C40   O14   D    
C23   O6    A    
C39   H23   S    
C32   C41   S    
O7    Zn1   S    
C36   H17   S    
C24   C25   S    
O6    Zn2   S    
C16   C17   A    
C25   C26   S    
O3    Zn1   S    
C36   O12   D    
C35   O11   D    
C29   C30   A    
C31   C32   A    
C2    H11   S    
C17   C18   S    
C18   C34   S    
C41   H26   S    
C16   C23   S    
O8    Zn2   S    
N1    Zn2   S    
C38   H21   S    
C1    C13   S    
C5    C39   S    
C3    C4    A    
C12   O4    A    
C21   N1    A    
C39   H24   S    
C7    C9    S    
C11   C17   A    
C24   N2    A    
C8    H12   S    
C4    C10   A    
C14   H2    S    
C12   O3    A    
C1    O1    A    
C6    C7    A    
C6    H1    S    
C35   H16   S    
C33   H14   S    
C5    C10   A    
C25   H7    S    
C11   C13   A    
C18   H4    S    
C23   O5    A    
C30   C31   A    
C20   C26   S    
C34   H15   S    
C29   C33   S    
C14   C15   A    
C37   O13   D    
C13   C14   A    
C1    O2    A    
C20   N1    A    
O5    Zn1   S    
C26   H9    S    
C9    C40   S    
N2    Zn1   S    
