data_mof_unit_59262.cif
_audit_creation_date              2012-12-10T19:40:47-0500
_audit_creation_method            fapswitch 2.2
_symmetry_space_group_name_H-M    P1
_symmetry_Int_Tables_number       1
_space_group_crystal_system       triclinic
_cell_length_a                    18.368071
_cell_length_b                    18.308824
_cell_length_c                    18.425549
_cell_angle_alpha                 119.843424
_cell_angle_beta                  120.026402
_cell_angle_gamma                 89.926565
_cell_volume                      4392.94585757

loop_
_atom_site_label
_atom_site_type_symbol
_atom_type_description
_atom_site_fract_x
_atom_site_fract_y
_atom_site_fract_z
_atom_type_partial_charge
C1    C     C_R   0.360198 0.140280 0.500748 0.807073
C2    C     C_3   0.627154 0.688320 0.311232 -0.178141
C3    C     C_R   0.728979 0.512086 0.630288 -0.108877
C4    C     C_R   0.723210 0.597149 0.658778 -0.143790
C5    C     C_R   0.796827 0.672708 0.746688 -0.126472
C6    C     C_R   0.876786 0.663380 0.805442 -0.153812
C7    C     C_R   0.882846 0.578442 0.777166 -0.125236
C8    C     C_R   0.700811 0.397888 0.701191 0.195759
C9    C     C_R   0.742676 0.467732 0.804845 -0.183820
C10   C     C_R   0.693706 0.514448 0.838463 -0.140504
C11   C     C_R   0.602242 0.491358 0.769192 -0.109659
C12   C     C_R   0.559563 0.421300 0.666250 -0.135695
C13   C     C_R   0.214001 0.765015 0.427564 -0.009869
C14   C     C_R   0.608146 0.374161 0.632234 -0.094675
C15   C     C_R   0.641380 0.861455 0.501465 0.816533
C16   C     C_R   0.304914 0.807370 0.503512 -0.071804
C17   C     C_R   0.342129 0.794443 0.582589 -0.225281
C18   C     C_R   0.288184 0.740072 0.582541 -0.221771
C19   C     C_R   0.196356 0.697356 0.502958 -0.073531
C20   C     C_R   0.162556 0.711055 0.426244 0.001932
C21   C     C_3   0.078978 0.685351 0.326780 0.057395
C22   C     C_3   0.138962 0.748104 0.328003 0.014273
C23   C     C_2   0.308303 0.810403 0.112946 -0.262778
C24   C     C_R   0.221070 0.167795 0.412513 0.000856
C25   C     C_R   0.306123 0.198094 0.500564 -0.094052
C26   C     C_R   0.340115 0.287549 0.586853 0.084606
C27   C     C_R   0.639248 0.140282 0.499333 0.798682
C28   C     C_R   0.285110 0.340661 0.584480 -0.269972
C29   C     C_R   0.196145 0.304889 0.500015 -0.083142
C30   C     C_R   0.166294 0.219026 0.413793 0.028441
C31   C     C_3   0.084022 0.139285 0.344558 -0.125656
C32   C     C_3   0.144942 0.082272 0.340995 -0.183605
C33   C     C_R   0.710662 0.284852 0.947524 -0.003954
C34   C     C_R   0.702322 0.755745 0.421396 -0.027489
C35   C     C_R   0.696894 0.193190 0.891610 -0.150735
C36   C     C_R   0.743308 0.157453 0.948983 -0.024022
C37   C     C_R   0.801170 0.214514 0.056708 -0.306201
C38   C     C_R   0.810658 0.305279 0.110111 -0.073720
C39   C     C_R   0.360072 0.860761 0.500760 0.797157
C40   C     C_R   0.768079 0.339669 0.053208 0.078783
C41   C     C_3   0.715158 0.401644 0.063464 -0.131267
C42   C     C_3   0.650126 0.341505 0.945137 0.038197
C43   C     C_R   0.712668 0.288923 0.553790 0.032968
C44   C     C_R   0.685767 0.196038 0.490366 -0.091043
C45   C     C_R   0.704928 0.813673 0.508413 -0.118857
C46   C     C_R   0.697760 0.157021 0.411025 -0.265825
C47   C     C_R   0.748173 0.209572 0.405905 -0.029022
C48   C     C_R   0.790746 0.302596 0.485053 -0.130446
C49   C     C_R   0.765404 0.340386 0.552043 0.047087
C50   C     C_3   0.817307 0.410674 0.664539 -0.246255
C51   C     C_R   0.638525 0.138672 0.778400 0.791454
C52   C     C_3   0.758263 0.353592 0.667364 -0.244333
C53   C     C_R   0.140036 0.640440 0.500727 0.789956
C54   C     C_R   0.857466 0.359437 0.497132 0.791703
C55   C     C_R   0.861623 0.641633 0.501529 0.832308
C56   C     C_R   0.774822 0.830228 0.602776 0.098036
C57   C     C_R   0.139864 0.359911 0.500619 0.801463
C58   C     C_R   0.861818 0.361072 0.222092 0.829254
C59   C     C_R   0.138744 0.636827 0.777301 0.800689
C60   C     C_R   0.361817 0.861086 0.223221 0.875404
C61   C     C_2   0.282741 0.707324 0.947041 -0.053155
C62   C     C_2   0.192185 0.677452 0.887531 -0.097506
C63   C     C_2   0.333063 0.749445 0.058081 0.105606
C64   C     C_R   0.336179 0.700395 0.905989 0.151454
C65   C     C_R   0.361125 0.769432 0.901180 -0.133839
C66   C     C_R   0.410541 0.762281 0.861188 -0.140964
C67   C     C_R   0.829923 0.775578 0.602985 0.034593
C68   C     C_R   0.435604 0.686520 0.826395 -0.106690
C69   C     C_R   0.411476 0.617857 0.831742 -0.125205
C70   C     C_R   0.361913 0.624637 0.871448 -0.129465
C71   C     C_R   0.039940 0.586303 0.238417 0.186579
C72   C     C_R   0.077245 0.522050 0.249751 -0.135119
C73   C     C_R   0.038497 0.432196 0.167297 -0.155657
C74   C     C_R   0.963184 0.405134 0.072076 -0.101182
C75   C     C_R   0.926543 0.467932 0.059019 -0.151115
C76   C     C_R   0.964045 0.557652 0.141497 -0.142583
C77   C     C_R   0.151140 0.700970 0.241130 0.177581
C78   C     C_R   0.813805 0.705489 0.508575 -0.150055
C79   C     C_R   0.090112 0.691538 0.148889 -0.160413
C80   C     C_R   0.096684 0.645092 0.066344 -0.141275
C81   C     C_R   0.164452 0.607841 0.074656 -0.079565
C82   C     C_R   0.225740 0.616810 0.165638 -0.149580
C83   C     C_R   0.219040 0.662406 0.248208 -0.145334
C84   C     C_R   0.128135 0.023056 0.236491 0.156851
C85   C     C_R   0.129090 0.057849 0.183618 -0.166080
C86   C     C_R   0.112293 0.001335 0.086933 -0.147098
C87   C     C_R   0.094491 0.909811 0.041973 -0.147646
C88   C     C_R   0.093387 0.874644 0.093619 -0.147515
C89   C     C_R   0.755866 0.703486 0.421575 0.036545
C90   C     C_R   0.109916 0.930813 0.190147 -0.093196
C91   C     C_R   0.726113 0.060852 0.903885 0.168581
C92   C     C_R   0.643671 0.006862 0.864059 -0.092517
C93   C     C_R   0.630518 0.918161 0.832498 -0.133580
C94   C     C_R   0.700129 0.883359 0.843009 -0.108462
C95   C     C_R   0.783022 0.937248 0.885191 -0.140681
C96   C     C_R   0.796025 0.025568 0.915176 -0.179165
C97   C     C_R   0.553761 0.303065 0.905167 0.178381
C98   C     C_R   0.500865 0.358990 0.905136 -0.196113
C99   C     C_R   0.412768 0.328463 0.870511 -0.173247
C100  C     C_3   0.687161 0.629263 0.311161 0.229803
C101  C     C_R   0.376208 0.241925 0.836349 -0.107512
C102  C     C_R   0.428172 0.186371 0.838389 -0.158197
C103  C     C_R   0.516500 0.216721 0.873414 -0.185761
C104  C     C_R   0.754367 0.164741 0.317546 0.168762
C105  C     C_R   0.715364 0.184837 0.244791 -0.106557
C106  C     C_R   0.719975 0.141633 0.160454 -0.120727
C107  C     C_R   0.763682 0.078404 0.148383 -0.119964
C108  C     C_R   0.802371 0.057891 0.220296 -0.145510
C109  C     C_R   0.797408 0.100513 0.304419 -0.159791
C110  C     C_R   0.808848 0.501846 0.690267 0.228408
H1    H     H_    0.412429 0.826019 0.644164 0.161821
H2    H     H_    0.795995 0.324270 0.709186 0.140418
H3    H     H_    0.250642 0.828213 0.077122 0.139482
H4    H     H_    0.614434 0.711769 0.261941 0.162382
H5    H     H_    0.341796 0.828237 0.927704 0.111206
H6    H     H_    0.429334 0.815402 0.857056 0.117043
H7    H     H_    0.473794 0.681072 0.795416 0.114990
H8    H     H_    0.431104 0.559377 0.805056 0.101907
H9    H     H_    0.343134 0.570890 0.874775 0.100666
H10   H     H_    0.561137 0.652429 0.359287 0.186380
H11   H     H_    0.508797 0.695871 0.293558 0.199454
H12   H     H_    0.318358 0.731577 0.644356 0.171436
H13   H     H_    0.136531 0.540327 0.321465 0.106583
H14   H     H_    0.067330 0.383516 0.177159 0.120489
H15   H     H_    0.933487 0.335574 0.008244 0.124036
H16   H     H_    0.869178 0.447046 0.984733 0.116439
H17   H     H_    0.934195 0.604928 0.129185 0.110703
H18   H     H_    0.040343 0.777654 0.414068 0.184292
H19   H     H_    0.971242 0.730269 0.287229 0.179975
H20   H     H_    0.036427 0.719043 0.140231 0.127146
H21   H     H_    0.048760 0.637806 0.995853 0.113840
H22   H     H_    0.169276 0.571390 0.010514 0.121191
H23   H     H_    0.310369 0.408309 0.651031 0.161655
H24   H     H_    0.277971 0.587486 0.171852 0.125463
H25   H     H_    0.266267 0.665753 0.316395 0.114475
H26   H     H_    0.124291 0.868316 0.412539 0.178731
H27   H     H_    0.162242 0.868598 0.347459 0.216883
H28   H     H_    0.428513 0.284944 0.706734 0.209484
H29   H     H_    0.441467 0.388370 0.735040 0.164919
H30   H     H_    0.001599 0.170922 0.392212 0.231794
H31   H     H_    0.094699 0.161866 0.472403 0.191459
H32   H     H_    0.100961 0.712617 0.917625 0.181448
H33   H     H_    0.106519 0.610734 0.889592 0.176153
H34   H     H_    0.033994 0.129452 0.270523 0.163928
H35   H     H_    0.142499 0.128538 0.216871 0.122325
H36   H     H_    0.112959 0.028540 0.046779 0.126302
H37   H     H_    0.081374 0.866176 0.967065 0.122544
H38   H     H_    0.079368 0.803767 0.058747 0.130411
H39   H     H_    0.107695 0.902084 0.228199 0.115198
H40   H     H_    0.590102 0.033845 0.858785 0.101964
H41   H     H_    0.566884 0.876878 0.801680 0.110738
H42   H     H_    0.690150 0.815003 0.819708 0.120599
H43   H     H_    0.837442 0.910756 0.895274 0.128356
H44   H     H_    0.860970 0.066998 0.949106 0.122686
H45   H     H_    0.149939 0.047122 0.377436 0.162132
H46   H     H_    0.629359 0.429958 0.106292 0.201446
H47   H     H_    0.651041 0.336036 0.091857 0.186721
H48   H     H_    0.527908 0.426574 0.931665 0.141494
H49   H     H_    0.372816 0.371950 0.869948 0.127699
H50   H     H_    0.307912 0.218230 0.809344 0.119716
H51   H     H_    0.400240 0.119812 0.813727 0.125709
H52   H     H_    0.554705 0.172696 0.877492 0.114994
H53   H     H_    0.720105 0.413079 0.927624 0.179208
H54   H     H_    0.619561 0.340386 0.820787 0.242237
H55   H     H_    0.389259 0.657202 0.069554 0.167991
H56   H     H_    0.834461 0.186367 0.099248 0.176124
H57   H     H_    0.456885 0.743897 0.097903 0.190404
H58   H     H_    0.681393 0.233767 0.253436 0.102356
H59   H     H_    0.689633 0.157172 0.104480 0.125822
H60   H     H_    0.767453 0.045178 0.083269 0.140162
H61   H     H_    0.836187 0.008916 0.210828 0.141179
H62   H     H_    0.827600 0.084074 0.359640 0.126600
H63   H     H_    0.670902 0.454484 0.562174 0.114684
H64   H     H_    0.661543 0.604486 0.612785 0.128435
H65   H     H_    0.792280 0.738488 0.768551 0.130113
H66   H     H_    0.934108 0.721985 0.872835 0.121466
H67   H     H_    0.752740 0.470095 0.096692 0.184019
H68   H     H_    0.945106 0.572176 0.823205 0.092274
H69   H     H_    0.813827 0.487370 0.859144 0.121080
H70   H     H_    0.726769 0.568669 0.918266 0.128625
H71   H     H_    0.564449 0.527744 0.795275 0.115578
H72   H     H_    0.488727 0.403734 0.612534 0.145317
H73   H     H_    0.573372 0.320835 0.551878 0.125016
H74   H     H_    0.807013 0.961555 0.705774 0.161365
H75   H     H_    0.841513 0.906492 0.759959 0.201155
H76   H     H_    0.890373 0.740389 0.702229 0.230926
H77   H     H_    0.961075 0.800681 0.702631 0.173895
H78   H     H_    0.669391 0.085493 0.353880 0.177447
H79   H     H_    0.660044 0.582491 0.170665 0.159340
H80   H     H_    0.748224 0.675834 0.266441 0.168126
H81   H     H_    0.647457 0.559491 0.353450 0.171440
H82   H     H_    0.592313 0.508300 0.226246 0.191384
H83   H     H_    0.887607 0.412112 0.704723 0.131586
N1    N     N_3   0.545761 0.652712 0.296567 -0.469036
N2    N     N_3   0.788551 0.901865 0.696376 -0.411162
N3    N     N_3   0.902446 0.793709 0.698636 -0.488083
N4    N     N_3   0.716640 0.614534 0.245743 -0.412675
N5    N     N_3   0.655101 0.546056 0.295898 -0.428804
N6    N     N_3   0.011069 0.717788 0.341870 -0.420033
N7    N     N_3   0.116510 0.829370 0.342499 -0.490079
N8    N     N_3   0.427883 0.322428 0.678564 -0.423303
N9    N     N_3   0.045050 0.133950 0.395197 -0.463209
N10   N     N_3   0.144712 0.676793 0.930037 -0.468175
N11   N     N_3   0.679606 0.401313 0.119190 -0.420784
N12   N     N_3   0.654224 0.387125 0.899859 -0.473885
N13   N     N_3   0.409409 0.726369 0.107001 -0.435495
O1    O     O_3   0.500000 0.000000 0.500000 -0.482087
O2    O     O_R   0.055460 0.323770 0.439940 -0.656995
O3    O     O_R   0.885490 0.446080 0.270840 -0.611403
O4    O     O_R   0.323800 0.055370 0.439900 -0.656552
O5    O     O_R   0.175320 0.614550 0.729170 -0.630988
O6    O     O_R   0.885490 0.324650 0.270840 -0.650689
O7    O     O_R   0.053870 0.614540 0.729150 -0.654600
O8    O     O_R   0.883910 0.615420 0.560060 -0.652368
O9    O     O_R   0.176240 0.444580 0.560100 -0.642888
O10   O     O_R   0.055460 0.616070 0.439920 -0.626391
O11   O     O_R   0.884570 0.323750 0.439920 -0.637761
O12   O     O_R   0.616140 0.055410 0.439930 -0.647822
O13   O     O_R   0.616140 0.884540 0.439940 -0.645492
O14   O     O_R   0.615480 0.176200 0.560080 -0.647681
O15   O     O_R   0.444590 0.883880 0.560080 -0.647232
O16   O     O_R   0.614550 0.175310 0.729160 -0.645499
O17   O     O_R   0.324730 0.885400 0.270830 -0.638799
O18   O     O_R   0.614550 0.053870 0.729160 -0.634362
O19   O     O_R   0.446170 0.885420 0.270850 -0.626128
O20   O     O_R   0.323800 0.884510 0.439910 -0.654068
O21   O     O_R   0.444590 0.176180 0.560060 -0.626274
O22   O     O_R   0.615480 0.883900 0.560100 -0.618543
O23   O     O_3   0.000040 0.499960 0.500000 -0.484363
O24   O     O_R   0.176240 0.615450 0.560090 -0.645778
O25   O     O_R   0.883910 0.444550 0.560070 -0.636557
O26   O     O_R   0.884570 0.616050 0.439900 -0.613932
Zn1   Zn    Zn3+2 0.543850 0.957090 0.414170 0.959024
Zn2   Zn    Zn3+2 0.542910 0.129670 0.585830 0.956976
Zn3   Zn    Zn3+2 0.542910 0.956180 0.585840 0.971280
Zn4   Zn    Zn3+2 0.370330 0.957070 0.414150 0.952689
Zn5   Zn    Zn3+2 0.956190 0.542870 0.585830 0.950222
Zn6   Zn    Zn3+2 0.957140 0.543780 0.414160 0.999881
Zn7   Zn    Zn3+2 0.957140 0.370280 0.414170 0.954983
Zn8   Zn    Zn3+2 0.129710 0.542890 0.585850 0.960440

loop_
_geom_bond_atom_site_label_1
_geom_bond_atom_site_label_2
_ccdc_geom_bond_type
O23   Zn8   S    
C66   C68   A    
C87   C88   A    
C101  C102  A    
C99   H49   S    
H77   N3    S    
C65   H5    S    
C73   C74   A    
O13   Zn1   S    
O24   Zn8   S    
C95   C96   A    
C11   H71   S    
H81   N5    S    
C75   C76   A    
C55   O8    A    
C14   H73   S    
O1    Zn3   S    
C85   C86   A    
C48   C54   S    
H11   N1    S    
C57   O2    A    
H33   N10   S    
C93   C94   A    
C87   H37   S    
O4    Zn4   S    
C21   C71   S    
C33   C42   S    
C41   H67   S    
C28   C29   A    
C22   C77   S    
O18   Zn3   S    
C85   H35   S    
C18   C19   A    
O7    Zn5   S    
H54   N12   S    
C102  H51   S    
C5    C6    A    
C80   C81   A    
C50   H83   S    
C43   C52   S    
C74   H15   S    
C106  C107  A    
C52   H2    S    
C3    C110  A    
C94   H42   S    
C32   H45   S    
C17   H1    S    
C69   H8    S    
C50   C110  S    
O20   Zn4   S    
C108  C109  A    
C42   N12   S    
O11   Zn7   S    
C60   O19   A    
C41   C42   S    
C31   H34   S    
C61   C63   S    
C31   N9    S    
C91   C96   A    
C38   C58   S    
C27   C44   S    
C3    H63   S    
C12   H72   S    
C19   C20   A    
C101  H50   S    
C59   O5    A    
C16   C17   A    
C39   O20   A    
C63   N13   S    
C50   C52   S    
C107  C108  A    
C24   C25   A    
C64   C70   A    
O23   Zn7   S    
C9    C10   A    
C70   H9    S    
C83   H25   S    
C9    H69   S    
C109  H62   S    
C53   O24   A    
C72   C73   A    
C69   C70   A    
C100  N4    S    
C1    O21   A    
C23   C63   D    
C2    C100  S    
C27   O14   A    
C80   H21   S    
C4    H64   S    
C21   C22   S    
O15   Zn3   S    
C1    C25   S    
C5    H65   S    
C61   C62   D    
C67   C78   A    
C84   C90   A    
C37   C38   A    
H75   N2    S    
C90   H39   S    
C86   H36   S    
O2    Zn7   S    
C104  C105  A    
C44   C46   A    
O1    Zn4   S    
C97   C98   A    
C92   H40   S    
C24   C30   A    
C77   C79   A    
C78   C89   A    
C46   H78   S    
C23   C60   S    
C32   C84   S    
C96   H44   S    
C33   C40   A    
C74   C75   A    
C22   N7    S    
C89   C100  S    
C28   H23   S    
H57   N13   S    
C98   H48   S    
C26   N8    S    
O3    Zn6   S    
C45   C56   A    
H29   N8    S    
C42   C97   S    
C91   C92   A    
C34   C45   A    
C55   C78   S    
C86   C87   A    
C8    C9    A    
C81   H22   S    
C25   C26   A    
C79   H20   S    
C103  H52   S    
H53   N12   S    
H74   N2    S    
C81   C82   A    
C7    H68   S    
C2    N1    S    
C35   C36   A    
C82   H24   S    
C61   C64   S    
C43   C44   A    
C24   C32   S    
C29   C30   A    
H30   N9    S    
C68   H7    S    
C23   H3    S    
C56   N2    S    
C47   C48   A    
O22   Zn3   S    
H27   N7    S    
C51   O18   A    
O14   Zn2   S    
C73   H14   S    
O8    Zn5   S    
C17   C18   A    
C88   H38   S    
C94   C95   A    
H47   N11   S    
H19   N6    S    
C84   C85   A    
C41   N11   S    
C97   C103  A    
C66   H6    S    
C18   H12   S    
C36   C91   S    
C21   N6    S    
C40   C41   S    
C99   C101  A    
C29   C57   S    
C98   C99   A    
C53   O10   A    
H82   N5    S    
C10   C11   A    
O26   Zn6   S    
C72   H13   S    
C35   C51   S    
C106  H59   S    
C93   H41   S    
C15   C45   S    
O23   Zn5   S    
C3    C4    A    
C56   C67   A    
C60   O17   A    
C54   O25   A    
O1    Zn1   S    
C54   O11   A    
H55   N13   S    
C58   O3    A    
H79   N4    S    
O21   Zn2   S    
C8    C52   S    
C46   C47   A    
C36   C37   A    
C59   C62   S    
C8    C14   A    
C47   C104  S    
C13   C20   A    
C1    O4    A    
C55   O26   A    
C68   C69   A    
C31   C32   S    
C43   C49   A    
O12   Zn1   S    
C88   C90   A    
C4    C5    A    
C71   C76   A    
C82   C83   A    
C11   C12   A    
C59   O7    A    
C13   C16   A    
C6    C7    A    
C58   O6    A    
O16   Zn2   S    
C105  C106  A    
C26   C28   A    
C7    C110  A    
C57   O9    A    
C15   O22   A    
O25   Zn5   S    
C75   H16   S    
O10   Zn6   S    
C64   C65   A    
C34   C89   A    
H76   N3    S    
C12   C14   A    
H18   N6    S    
O19   Zn1   S    
C71   C72   A    
C10   H70   S    
H32   N10   S    
C38   C40   A    
C2    H4    S    
C30   C31   S    
C19   C53   S    
C104  C109  A    
C37   H56   S    
C6    H66   S    
C105  H58   S    
C48   C49   A    
C92   C93   A    
C33   C35   A    
H28   N8    S    
C13   C22   S    
C65   C66   A    
C102  C103  A    
C2    C34   S    
H10   N1    S    
C62   N10   S    
H26   N7    S    
O6    Zn7   S    
O17   Zn4   S    
C16   C39   S    
C79   C80   A    
C20   C21   S    
H80   N4    S    
C27   O12   A    
C49   C50   S    
C108  H61   S    
H31   N9    S    
C76   H17   S    
C77   C83   A    
O5    Zn8   S    
C39   O15   A    
O9    Zn8   S    
C51   O16   A    
C95   H43   S    
O23   Zn6   S    
C15   O13   A    
C67   N3    S    
O1    Zn2   S    
C100  N5    S    
C107  H60   S    
H46   N11   S    
