data_mof_unit_13306.cif
_audit_creation_date              2012-10-26T19:20:39-0400
_audit_creation_method            fapswitch 2.2
_symmetry_space_group_name_H-M    P1
_symmetry_Int_Tables_number       1
_space_group_crystal_system       triclinic
_cell_length_a                    10.775172
_cell_length_b                    11.068543
_cell_length_c                    10.004054
_cell_angle_alpha                 110.419691
_cell_angle_beta                  98.038144
_cell_angle_gamma                 94.162445
_cell_volume                      1097.66688683

loop_
_atom_site_label
_atom_site_type_symbol
_atom_type_description
_atom_site_fract_x
_atom_site_fract_y
_atom_site_fract_z
_atom_type_partial_charge
C1    C     C_R   0.489699 0.254923 0.441082 0.524664
C2    C     C_R   0.736456 0.499872 0.499315 0.522232
C3    C     C_R   0.163208 0.738474 0.630049 -0.094971
C4    C     C_R   0.836791 0.261525 0.369944 -0.094968
C5    C     C_R   0.114927 0.854992 0.690667 -0.125365
C6    C     C_R   0.885076 0.145004 0.309360 -0.125370
C7    C     C_R   0.985749 0.854980 0.688736 -0.120967
C8    C     C_R   0.014256 0.145016 0.311315 -0.120969
C9    C     C_R   0.904481 0.738444 0.626335 -0.107161
C10   C     C_R   0.095523 0.261554 0.373697 -0.107161
C11   C     C_R   0.951523 0.618799 0.563906 0.004109
C12   C     C_R   0.510302 0.745077 0.558918 0.524664
C13   C     C_R   0.048477 0.381200 0.436103 0.004110
C14   C     C_R   0.082485 0.618813 0.565815 0.011616
C15   C     C_R   0.917514 0.381186 0.434182 0.011619
C16   C     C_R   0.870405 0.499987 0.498185 -0.017189
C17   C     C_R   0.129595 0.500012 0.501814 -0.017189
C18   C     C_3   0.645454 0.909531 0.431692 -0.386677
C19   C     C_3   0.354563 0.090485 0.568337 -0.386672
C20   C     C_3   0.365767 0.401511 0.834864 -0.310542
C21   C     C_3   0.634218 0.598507 0.165136 -0.310550
C22   C     C_2   0.503458 0.118710 0.409972 -0.093843
C23   C     C_2   0.496541 0.881289 0.590030 -0.093831
C24   C     C_2   0.467435 0.055672 0.494289 0.008107
C25   C     C_2   0.532571 0.944333 0.505723 0.008105
C26   C     C_2   0.515647 0.508162 0.078788 0.127620
C27   C     C_2   0.484350 0.491838 0.921210 0.127613
C28   C     C_R   0.263544 0.500127 0.500685 0.522231
Cu1   Cu    Cu3+1 0.521920 0.521810 0.644910 0.912999
Cu2   Cu    Cu3+1 0.478080 0.478190 0.355090 0.913003
H1    H     H_    0.051755 0.054425 0.264502 0.115929
H2    H     H_    0.564314 0.079076 0.332203 0.077040
H3    H     H_    0.640040 0.607310 0.919629 0.205360
H4    H     H_    0.359970 0.392669 0.080367 0.205363
H5    H     H_    0.716887 0.997030 0.466522 0.124063
H6    H     H_    0.693995 0.834991 0.460744 0.116435
H7    H     H_    0.614689 0.875374 0.312953 0.126369
H8    H     H_    0.283127 0.002990 0.533526 0.124050
H9    H     H_    0.385343 0.124654 0.687075 0.126384
H10   H     H_    0.306018 0.165020 0.539280 0.116433
H11   H     H_    0.362406 0.310284 0.856837 0.058989
H12   H     H_    0.948253 0.945571 0.735576 0.115927
H13   H     H_    0.281088 0.449146 0.864006 0.113505
H14   H     H_    0.360014 0.366784 0.718513 0.201274
H15   H     H_    0.718904 0.550895 0.135981 0.113471
H16   H     H_    0.637550 0.689733 0.143165 0.059022
H17   H     H_    0.639985 0.633220 0.281488 0.201276
H18   H     H_    0.264046 0.743352 0.633779 0.129462
H19   H     H_    0.735948 0.256646 0.366200 0.129465
H20   H     H_    0.178017 0.945587 0.739120 0.104322
H21   H     H_    0.821985 0.054410 0.260910 0.104321
H22   H     H_    0.804732 0.743423 0.627163 0.118237
H23   H     H_    0.195272 0.256577 0.372875 0.118228
H24   H     H_    0.435664 0.920910 0.667784 0.077033
N1    N     N_2   0.445130 0.445420 0.137360 -0.344664
N2    N     N_2   0.554870 0.554580 0.862640 -0.344666
O1    O     O_R   0.511700 0.332340 0.577400 -0.495802
O2    O     O_R   0.488300 0.667660 0.422600 -0.495800
O3    O     O_R   0.474680 0.295500 0.332650 -0.496569
O4    O     O_R   0.525320 0.704500 0.667350 -0.496565
O5    O     O_R   0.338170 0.518410 0.622370 -0.517280
O6    O     O_R   0.661830 0.481590 0.377630 -0.517277
O7    O     O_R   0.301150 0.481570 0.377630 -0.491301
O8    O     O_R   0.698850 0.518430 0.622370 -0.491306

loop_
_geom_bond_atom_site_label_1
_geom_bond_atom_site_label_2
_ccdc_geom_bond_type
C21   C26   S    
C7    C9    A    
Cu1   Cu2   S    
C20   C27   S    
C1    O1    A    
C6    H21   S    
C2    C16   S    
Cu2   N1    S    
C14   C17   A    
Cu1   O4    S    
C13   C17   A    
C4    H19   S    
C3    C5    A    
C12   O2    A    
C28   O5    A    
C20   H13   S    
H3    N2    S    
C23   C25   D    
C20   H11   S    
Cu1   O8    S    
C1    C22   S    
C9    H22   S    
Cu2   O7    S    
Cu2   O3    S    
C9    C11   A    
C12   C23   S    
C26   C27   S    
C18   C25   S    
C22   H2    S    
C3    C14   A    
C19   H9    S    
C22   C24   D    
C4    C6    A    
Cu1   N2    S    
C26   N1    D    
Cu1   O1    S    
C19   C24   S    
C21   H15   S    
C13   C15   A    
C4    C15   A    
C11   C14   A    
Cu1   O5    S    
C5    H20   S    
C11   C16   A    
C19   H10   S    
Cu2   O6    S    
C15   C16   A    
C12   O4    A    
C28   O7    A    
Cu2   O2    S    
C3    H18   S    
H4    N1    S    
C19   H8    S    
C24   C25   S    
C23   H24   S    
C8    C10   A    
C21   H16   S    
C18   H5    S    
C7    H12   S    
C1    O3    A    
C5    C7    A    
C10   H23   S    
C27   N2    D    
C6    C8    A    
C20   H14   S    
C17   C28   S    
C18   H6    S    
C18   H7    S    
C8    H1    S    
C2    O6    A    
C2    O8    A    
C21   H17   S    
C10   C13   A    
