data_mof_unit_41342.cif
_audit_creation_date              2012-12-11T17:08:27-0500
_audit_creation_method            fapswitch 2.2
_symmetry_space_group_name_H-M    P1
_symmetry_Int_Tables_number       1
_space_group_crystal_system       triclinic
_cell_length_a                    6.999181
_cell_length_b                    14.468345
_cell_length_c                    16.115173
_cell_angle_alpha                 90.021461
_cell_angle_beta                  89.908447
_cell_angle_gamma                 90.181985
_cell_volume                      1631.91779433

loop_
_atom_site_label
_atom_site_type_symbol
_atom_type_description
_atom_site_fract_x
_atom_site_fract_y
_atom_site_fract_z
_atom_type_partial_charge
O1    O     O_R   0.505700 0.583890 0.413310 -0.557558
O2    O     O_R   0.175960 0.594920 0.586080 -0.534841
O3    O     O_R   0.005660 0.416110 0.586690 -0.548268
C1    C     C_R   0.344799 0.616737 0.614801 0.815531
O4    O     O_R   0.175980 0.594920 0.413930 -0.514747
O5    O     O_R   0.005680 0.416110 0.413310 -0.512792
C2    C     C_R   0.344742 0.616338 0.384948 0.824098
O6    O     O_R   0.505680 0.583890 0.586690 -0.511413
O7    O     O_3   0.339200 0.441330 0.500000 -0.363468
V1    V     V_3+5 0.064350 0.510880 0.500000 1.735390
O8    O     O_R   0.675960 0.405080 0.413920 -0.528259
C3    C     C_R   0.844686 0.382305 0.385966 0.834398
O9    O     O_R   0.675940 0.405080 0.586070 -0.531329
C4    C     C_R   0.844363 0.383109 0.614709 0.775137
V2    V     V_3+5 0.564340 0.489120 0.500000 1.717405
O10   O     O_3   0.839360 0.558670 0.500000 -0.359550
C5    C     C_R   0.011047 0.314349 0.737977 0.096297
C6    C     C_R   0.852665 0.316749 0.684770 -0.176497
C7    C     C_R   0.707352 0.250626 0.697472 -0.150274
H1    H     H_    0.588040 0.246619 0.655012 0.185136
C8    C     C_R   0.721777 0.184497 0.761318 0.666972
C9    C     C_R   0.878320 0.183896 0.815636 -0.173778
C10   C     C_R   0.026383 0.246416 0.799754 -0.091369
C11   C     C_3   0.223462 0.222243 0.771583 0.224526
C12   C     C_3   0.213571 0.302848 0.711888 0.120530
H2    H     H_    0.331980 0.228899 0.821482 0.151509
H3    H     H_    0.231783 0.284253 0.645374 0.155390
C13   C     C_R   0.719892 0.240870 0.193987 -0.213863
C14   C     C_R   0.880078 0.184247 0.184230 -0.267182
C15   C     C_R   0.014526 0.184225 0.248737 0.656526
C16   C     C_R   0.004283 0.248802 0.314021 0.633496
C17   C     C_R   0.855339 0.313779 0.317622 -0.271610
C18   C     C_R   0.709227 0.306525 0.258510 -0.189640
C19   C     C_3   0.508081 0.280018 0.277956 1.086443
C20   C     C_3   0.522728 0.206243 0.211917 0.787746
C21   C     C_R   0.496372 0.754158 0.685057 -0.107413
C22   C     C_R   0.353300 0.686102 0.682435 -0.122564
C23   C     C_R   0.216847 0.685764 0.746801 -0.135480
H4    H     H_    0.107217 0.632928 0.748199 0.222549
C24   C     C_R   0.230599 0.748198 0.813822 0.710461
C25   C     C_R   0.377352 0.815094 0.816705 -0.206208
C26   C     C_R   0.506616 0.817957 0.750313 -0.119436
C27   C     C_3   0.718878 0.811961 0.753687 1.050256
C28   C     C_3   0.708432 0.742617 0.683024 0.708666
C29   C     C_R   0.488067 0.755793 0.315251 -0.074651
C30   C     C_R   0.351919 0.684729 0.316541 -0.299236
C31   C     C_R   0.217214 0.682215 0.251393 0.596675
C32   C     C_R   0.230161 0.744535 0.183929 0.284748
C33   C     C_R   0.375595 0.813087 0.181668 -0.290893
C34   C     C_R   0.498464 0.818812 0.250000 0.012076
C35   C     C_3   0.711577 0.820111 0.252130 0.492824
C36   C     C_3   0.700144 0.751238 0.323147 0.499546
H5    H     H_    0.777852 0.792615 0.194766 0.047330
H6    H     H_    0.760235 0.682085 0.308720 0.051404
O11   O     O_R   0.229000 0.916070 0.913330 -0.512834
O12   O     O_R   0.558770 0.905070 0.086080 -0.550097
O13   O     O_R   0.729000 0.083900 0.086690 -0.537076
C37   C     C_R   0.389299 0.881615 0.113426 0.847861
O14   O     O_R   0.558720 0.905070 0.913930 -0.518537
O15   O     O_R   0.728960 0.083900 0.913310 -0.527927
C38   C     C_R   0.389707 0.882452 0.885878 0.834571
O16   O     O_R   0.229050 0.916070 0.086710 -0.515526
O17   O     O_3   0.395460 0.058650 0.000020 -0.374458
V3    V     V_3+5 0.670340 0.989120 0.000000 1.751804
O18   O     O_R   0.058670 0.094960 0.913900 -0.550259
C39   C     C_R   0.890235 0.115674 0.884281 0.784280
O19   O     O_R   0.058720 0.094960 0.086050 -0.511146
C40   C     C_R   0.890010 0.115899 0.115525 0.841631
V4    V     V_3+5 0.170330 0.010930 0.999970 1.768757
O20   O     O_3   0.895340 0.941350 0.999980 -0.353054
F1    F     F_    0.487417 0.246105 0.357883 -0.597355
F2    F     F_    0.400240 0.219254 0.145632 -0.642409
Cl1   Cl    Cl    0.523410 0.089945 0.251860 -0.399805
F3    F     F_    0.112550 0.737264 0.879885 -0.566760
F4    F     F_    0.781470 0.774451 0.827553 -0.604533
F5    F     F_    0.807031 0.894974 0.734096 -0.608195
F6    F     F_    0.764377 0.654470 0.705697 -0.661486
Cl2   Cl    Cl    0.813131 0.780614 0.587985 -0.406375
F7    F     F_    0.082834 0.614304 0.249611 -0.648050
F8    F     F_    0.595160 0.114065 0.764590 -0.618665
Cl3   Cl    Cl    0.078050 0.726477 0.098204 -0.485559
F9    F     F_    0.781699 0.905538 0.276288 -0.537740
F10   F     F_    0.761702 0.787967 0.397709 -0.529616
Cl4   Cl    Cl    0.220633 0.113825 0.716668 -0.459163
Cl5   Cl    Cl    0.352344 0.400250 0.744077 -0.627470
F11   F     F_    0.137030 0.112899 0.254832 -0.566556
F12   F     F_    0.126509 0.241096 0.378737 -0.563367
F13   F     F_    0.380774 0.349998 0.259258 -0.645626

loop_
_geom_bond_atom_site_label_1
_geom_bond_atom_site_label_2
_ccdc_geom_bond_type
C37   O16   A    
C24   C25   A    
C25   C26   A    
C4    C6    S    
C21   C26   A    
C7    H1    S    
C25   C38   S    
C1    O6    A    
C29   C30   A    
O14   V3    S    
C14   C15   A    
C13   C14   A    
C7    C8    A    
C11   H2    S    
C6    C7    A    
O5    C3    A    
C15   C16   A    
V2    O10   S    
C32   Cl3   S    
C19   C20   S    
C9    C39   S    
O8    V2    S    
C16   C17   A    
C13   C20   S    
C24   F3    S    
C10   C11   S    
O12   V3    S    
O1    V2    S    
V3    O20   S    
C15   F11   S    
O7    V1    S    
O15   C39   A    
O9    C4    A    
C3    C17   S    
C36   H6    S    
C18   C19   S    
C27   F4    S    
O14   C38   A    
C16   F12   S    
C35   C36   S    
C2    C30   S    
O17   V4    S    
C11   C12   S    
O4    C2    A    
C29   C36   S    
C34   C35   S    
C33   C37   S    
O19   C40   A    
O16   V4    S    
C35   H5    S    
C36   F10   S    
O2    C1    A    
C27   C28   S    
C22   C23   A    
C14   C40   S    
C31   C32   A    
C5    C10   A    
C12   Cl5   S    
C5    C6    A    
C19   F13   S    
C35   F9    S    
O11   V4    S    
O3    C4    A    
C32   C33   A    
C13   C18   A    
O18   C39   A    
O6    V2    S    
O9    V2    S    
C21   C28   S    
C26   C27   S    
O13   C40   A    
O2    V1    S    
O13   V3    S    
C27   F5    S    
C30   C31   A    
C20   Cl1   S    
O1    C2    A    
O5    V1    S    
O8    C3    A    
C20   F2    S    
C12   H3    S    
C28   F6    S    
O15   V3    S    
C5    C12   S    
C17   C18   A    
C28   Cl2   S    
C11   Cl4   S    
O4    V1    S    
O3    V1    S    
V1    O10   S    
C31   F7    S    
C23   C24   A    
C23   H4    S    
C29   C34   A    
O18   V4    S    
O11   C38   A    
C8    F8    S    
O12   C37   A    
O7    V2    S    
V4    O20   S    
O17   V3    S    
C1    C22   S    
C21   C22   A    
C33   C34   A    
C9    C10   A    
O19   V4    S    
C8    C9    A    
C19   F1    S    
