data_mof_unit_12597.cif
_audit_creation_date              2012-12-11T15:48:37-0500
_audit_creation_method            fapswitch 2.2
_symmetry_space_group_name_H-M    P1
_symmetry_Int_Tables_number       1
_space_group_crystal_system       triclinic
_cell_length_a                    11.029129
_cell_length_b                    10.931464
_cell_length_c                    18.830984
_cell_angle_alpha                 90.697498
_cell_angle_beta                  90.437664
_cell_angle_gamma                 60.529303
_cell_volume                      1976.43240027

loop_
_atom_site_label
_atom_site_type_symbol
_atom_type_description
_atom_site_fract_x
_atom_site_fract_y
_atom_site_fract_z
_atom_type_partial_charge
C1    C     C_R   0.243296 0.646037 0.611097 0.547391
C2    C     C_3   0.738923 0.516313 0.796790 -0.247499
C3    C     C_3   0.697078 0.669914 0.814370 0.039240
C4    C     C_3   0.670365 0.644021 0.678135 0.029535
C5    C     C_3   0.774075 0.697531 0.690208 -0.255422
C6    C     C_3   0.723162 0.501869 0.717004 -0.218133
C7    C     C_R   0.686859 0.135024 0.819975 0.068570
C8    C     C_R   0.766706 0.182607 0.786090 -0.014479
C9    C     C_R   0.758192 0.197421 0.712458 -0.014974
C10   C     C_R   0.589000 0.120024 0.705708 -0.182056
C11   C     C_R   0.595000 0.107352 0.778464 -0.118886
C12   C     C_R   0.652960 0.620616 0.601904 0.533211
C13   C     C_3   0.920440 0.114383 0.786120 -0.253989
C14   C     C_3   0.911148 0.123931 0.706151 -0.234406
C15   C     C_R   0.670148 0.166788 0.671772 0.012366
C16   C     C_R   0.171285 0.674913 0.834099 0.024599
C17   C     C_R   0.142099 0.588591 0.790931 -0.015006
C18   C     C_R   0.165199 0.580845 0.719183 -0.049558
C19   C     C_R   0.201767 0.782895 0.727608 -0.007979
C20   C     C_R   0.203075 0.769731 0.801566 -0.175614
C21   C     C_3   0.186745 0.435983 0.795373 -0.057346
C22   C     C_3   0.224257 0.424801 0.716696 -0.264086
C23   C     C_R   0.628472 0.227361 0.601900 0.544314
C24   C     C_R   0.195936 0.674432 0.684681 -0.008474
C25   C     C_R   0.653317 0.658117 0.165182 0.018418
C26   C     C_R   0.748468 0.537171 0.202027 0.030696
C27   C     C_R   0.743360 0.530918 0.274540 0.037215
C28   C     C_R   0.531566 0.751950 0.277342 -0.163532
C29   C     C_R   0.536029 0.759133 0.202670 -0.170681
C30   C     C_3   0.904982 0.457939 0.203425 -0.265952
C31   C     C_3   0.897536 0.453680 0.283299 -0.279222
C32   C     C_R   0.642842 0.641919 0.314391 0.018217
C33   C     C_R   0.636123 0.188996 0.168871 0.021697
C34   C     C_R   0.220637 0.648910 0.402002 0.553771
C35   C     C_R   0.518587 0.207741 0.206115 0.021814
C36   C     C_R   0.514373 0.219896 0.278791 0.031589
C37   C     C_R   0.730403 0.223613 0.278596 -0.153824
C38   C     C_R   0.733291 0.214855 0.204535 -0.155173
C39   C     C_3   0.448868 0.119864 0.207734 -0.269552
C40   C     C_3   0.444134 0.134433 0.287681 -0.279673
C41   C     C_R   0.626322 0.213482 0.316560 0.021201
C42   C     C_R   0.118532 0.690355 0.188555 0.023849
C43   C     C_R   0.071957 0.810323 0.231460 0.044458
C44   C     C_R   0.084690 0.801726 0.303737 0.015982
C45   C     C_R   0.638603 0.619443 0.390464 0.543461
C46   C     C_R   0.173334 0.551130 0.294269 -0.165014
C47   C     C_R   0.160521 0.560910 0.220559 -0.179406
C48   C     C_3   0.104552 0.927425 0.227739 -0.264824
C49   C     C_3   0.114538 0.921672 0.307732 -0.271157
C50   C     C_R   0.148169 0.670155 0.335549 0.017894
C51   C     C_R   0.704060 0.094181 0.894271 0.561895
C52   C     C_R   0.720814 0.685356 0.889905 0.537900
C53   C     C_R   0.117360 0.706468 0.905883 0.553088
C54   C     C_R   0.673414 0.110884 0.102536 0.549562
C55   C     C_R   0.695924 0.688454 0.096976 0.543138
C56   C     C_R   0.611172 0.238913 0.392292 0.547457
C57   C     C_R   0.089365 0.712014 0.113864 0.549129
C58   C     C_3   0.543867 0.764050 0.792386 -0.219886
C59   C     C_3   0.529706 0.749266 0.711976 -0.200809
C60   C     C_3   0.788967 0.713321 0.770718 -0.223627
Cr1   Cr    Cr6+3 0.392960 0.397920 0.502240 1.012465
Cr2   Cr    Cr6+3 0.398340 0.708480 0.501250 1.046846
Cr3   Cr    Cr6+3 0.708670 0.393570 0.496460 1.017340
Cr4   Cr    Cr6+3 0.937650 0.938540 0.007610 1.019485
Cr5   Cr    Cr6+3 0.625330 0.937370 0.994520 1.016018
Cr6   Cr    Cr6+3 0.937940 0.625230 0.001190 1.035955
H1    H     H_    0.507734 0.875823 0.805612 0.165729
H2    H     H_    0.826146 0.423071 0.695643 0.141617
H3    H     H_    0.897850 0.644701 0.785871 0.136198
H4    H     H_    0.877158 0.622378 0.666956 0.132023
H5    H     H_    0.515978 0.099043 0.676527 0.130689
H6    H     H_    0.528695 0.071775 0.801686 0.157914
H7    H     H_    0.968726 0.005748 0.806204 0.164291
H8    H     H_    0.958649 0.181728 0.811081 0.157735
H9    H     H_    0.951476 0.189993 0.683409 0.165569
H10   H     H_    0.945524 0.021259 0.679073 0.172925
H11   H     H_    0.476479 0.732646 0.821657 0.138813
H12   H     H_    0.217873 0.842526 0.835054 0.190602
H13   H     H_    0.096901 0.418662 0.804794 0.113990
H14   H     H_    0.337846 0.368766 0.705933 0.180156
H15   H     H_    0.161541 0.393077 0.682579 0.117228
H16   H     H_    0.445111 0.834726 0.305960 0.120962
H17   H     H_    0.454060 0.848224 0.175354 0.117752
H18   H     H_    0.951038 0.522224 0.185808 0.176629
H19   H     H_    0.948871 0.352574 0.177778 0.126282
H20   H     H_    0.938708 0.345817 0.304009 0.131987
H21   H     H_    0.458487 0.706591 0.702897 0.148180
H22   H     H_    0.936236 0.517874 0.311294 0.146530
H23   H     H_    0.811543 0.233275 0.306033 0.130248
H24   H     H_    0.818168 0.214518 0.176047 0.120507
H25   H     H_    0.519732 0.010938 0.189688 0.168873
H26   H     H_    0.344212 0.172694 0.182386 0.131555
H27   H     H_    0.336667 0.196895 0.308789 0.133705
H28   H     H_    0.510848 0.033775 0.315431 0.141184
H29   H     H_    0.217233 0.448108 0.317664 0.142197
H30   H     H_    0.188824 0.467382 0.188838 0.124054
H31   H     H_    0.016462 0.025764 0.207803 0.141240
H32   H     H_    0.487384 0.853546 0.686224 0.157467
H33   H     H_    0.205864 0.895257 0.201355 0.138594
H34   H     H_    0.220379 0.893324 0.326440 0.162135
H35   H     H_    0.029293 0.015662 0.334301 0.131617
H36   H     H_    0.763026 0.822882 0.783658 0.119000
H37   H     H_    0.736342 0.800609 0.663850 0.117396
H38   H     H_    0.848953 0.444057 0.812240 0.136766
H39   H     H_    0.672174 0.484461 0.826516 0.142548
H40   H     H_    0.647129 0.464457 0.707778 0.139795
O1    O     O_R   0.507380 0.255700 0.581440 -0.529487
O2    O     O_R   0.524480 0.695810 0.424040 -0.509359
O3    O     O_R   0.736390 0.504290 0.414790 -0.518828
O4    O     O_R   0.691300 0.277290 0.422170 -0.510317
O5    O     O_3   0.499990 0.499990 0.499980 -0.264859
O6    O     O_R   0.089400 0.825690 0.930570 -0.535873
O7    O     O_R   0.818460 0.054440 0.929850 -0.509197
O8    O     O_R   0.606060 0.077150 0.915510 -0.524851
O9    O     O_R   0.646550 0.806680 0.917570 -0.511599
O10   O     O_R   0.837170 0.593410 0.915250 -0.520000
O11   O     O_R   0.065200 0.635530 0.931570 -0.485716
O12   O     O_R   0.280320 0.527350 0.578930 -0.507753
O13   O     O_R   0.068260 0.828890 0.091840 -0.518847
O14   O     O_R   0.798870 0.057410 0.079340 -0.506558
O15   O     O_R   0.584930 0.080350 0.076780 -0.525713
O16   O     O_R   0.626960 0.809650 0.067060 -0.506189
O17   O     O_R   0.816040 0.596610 0.076510 -0.523642
O18   O     O_R   0.045610 0.638500 0.081060 -0.510530
O19   O     O_3   0.833640 0.833710 0.001100 -0.262603
O20   O     O_R   0.260510 0.739590 0.584590 -0.464403
O21   O     O_R   0.532300 0.695080 0.573820 -0.503572
O22   O     O_R   0.744840 0.503500 0.576370 -0.524187
O23   O     O_R   0.699120 0.276560 0.571960 -0.497647
O24   O     O_R   0.498940 0.256500 0.419860 -0.519416
O25   O     O_R   0.272500 0.528080 0.429150 -0.512395
O26   O     O_R   0.252060 0.740380 0.423010 -0.521299
C61   C     C_2   0.211278 0.910050 0.703091 0.532835
O27   O     O_2   0.179637 0.956798 0.643146 -0.511558
O28   O     O_R   0.245824 0.985470 0.752228 -0.752231
H41   H     H_    0.244903 0.070720 0.730935 0.329674
C62   C     C_2   0.302566 0.359249 0.847724 0.582354
O29   O     O_2   0.403660 0.377091 0.849117 -0.533962
O30   O     O_R   0.286911 0.276338 0.898727 -0.699059
H42   H     H_    0.359269 0.246019 0.937757 0.354574

loop_
_geom_bond_atom_site_label_1
_geom_bond_atom_site_label_2
_ccdc_geom_bond_type
C44   C49   S    
C5    H37   S    
C8    C13   S    
C54   O14   A    
Cr5   O8    S    
C35   C36   A    
C21   C62   S    
C40   H27   S    
C9    C14   S    
O28   H41   S    
C12   O21   A    
C7    C11   A    
C48   H31   S    
C62   O30   S    
C26   C27   A    
C51   O7    A    
Cr4   O13   S    
Cr6   O10   S    
C18   C24   A    
C28   C29   A    
C29   H17   S    
C10   C15   A    
C49   H35   S    
Cr2   O21   S    
C3    C52   S    
C53   O11   A    
Cr4   O6    S    
Cr2   O2    S    
C30   H18   S    
C23   O23   A    
C32   C45   S    
C56   O4    A    
C16   C53   S    
C58   H11   S    
C46   H29   S    
C19   C20   A    
C16   C17   A    
Cr6   O11   S    
C47   H30   S    
C31   H22   S    
Cr5   O15   S    
C4    C12   S    
C43   C48   S    
Cr3   O22   S    
C45   O2    A    
C57   O13   A    
C3    C60   S    
C15   C23   S    
Cr1   O12   S    
C55   O16   A    
C34   O26   A    
C31   H20   S    
C21   C22   S    
Cr3   O5    S    
Cr5   O9    S    
C36   C41   A    
C2    C6    S    
C60   H36   S    
C42   C57   S    
C39   H25   S    
C42   C47   A    
C52   O10   A    
C25   C29   A    
C55   O17   A    
C34   C50   S    
C51   O8    A    
Cr2   O5    S    
C27   C31   S    
C22   H15   S    
Cr2   O26   S    
C28   C32   A    
C1    O20   A    
C4    C6    S    
C39   C40   S    
Cr2   O20   S    
C11   H6    S    
C8    C9    A    
C25   C26   A    
C28   H16   S    
C17   C21   S    
Cr5   O19   S    
Cr3   O3    S    
C35   C39   S    
C43   C44   A    
C41   C56   S    
C37   C38   A    
C36   C40   S    
C16   C20   A    
C23   O1    A    
C21   H13   S    
C17   C18   A    
C6    H40   S    
Cr5   O16   S    
C30   H19   S    
Cr1   O24   S    
C53   O6    A    
C48   C49   S    
C54   O15   A    
C13   H7    S    
C2    H38   S    
C26   C30   S    
C61   O27   D    
Cr6   O18   S    
C42   C43   A    
Cr1   O5    S    
C39   H26   S    
C52   O9    A    
C44   C50   A    
C33   C54   S    
C48   H33   S    
C46   C50   A    
C46   C47   A    
Cr4   O7    S    
C5    C60   S    
C27   C32   A    
C18   C22   S    
C25   C55   S    
C40   H28   S    
C4    C5    S    
C5    H4    S    
C34   O25   A    
O30   H42   S    
C12   O22   A    
C37   H23   S    
C19   C61   S    
C62   O29   D    
C38   H24   S    
C2    H39   S    
C33   C38   A    
Cr4   O14   S    
Cr6   O19   S    
C20   H12   S    
C14   H9    S    
Cr3   O4    S    
C19   C24   A    
C58   C59   S    
C7    C51   S    
C10   H5    S    
C57   O18   A    
C30   C31   S    
C60   H3    S    
C4    C59   S    
C6    H2    S    
C33   C35   A    
C2    C3    S    
C45   O3    A    
C1    O12   A    
Cr3   O23   S    
C37   C41   A    
Cr1   O1    S    
C59   H21   S    
C7    C8    A    
C10   C11   A    
Cr1   O25   S    
C22   H14   S    
C3    C58   S    
C58   H1    S    
C13   H8    S    
C1    C24   S    
Cr4   O19   S    
C61   O28   S    
C59   H32   S    
Cr6   O17   S    
C13   C14   S    
C56   O24   A    
C9    C15   A    
C14   H10   S    
C49   H34   S    
