data_mof_unit_54186.cif
_audit_creation_date              2012-12-11T14:25:58-0500
_audit_creation_method            fapswitch 2.2
_symmetry_space_group_name_H-M    P1
_symmetry_Int_Tables_number       1
_space_group_crystal_system       triclinic
_cell_length_a                    6.926499
_cell_length_b                    14.715968
_cell_length_c                    16.269335
_cell_angle_alpha                 90.712898
_cell_angle_beta                  90.200554
_cell_angle_gamma                 90.16619
_cell_volume                      1658.18984481

loop_
_atom_site_label
_atom_site_type_symbol
_atom_type_description
_atom_site_fract_x
_atom_site_fract_y
_atom_site_fract_z
_atom_type_partial_charge
O1    O     O_R   0.494490 0.416160 0.413410 -0.544003
O2    O     O_R   0.823830 0.407240 0.585990 -0.534870
O3    O     O_R   0.994160 0.583840 0.586590 -0.547496
C1    C     C_R   0.656058 0.385833 0.614425 0.770994
O4    O     O_R   0.824200 0.405280 0.414020 -0.541345
O5    O     O_R   0.994530 0.581860 0.413390 -0.550033
C2    C     C_R   0.654364 0.382642 0.386082 0.759159
O6    O     O_R   0.494110 0.418140 0.586610 -0.544757
O7    O     O_3   0.660810 0.557940 0.500000 -0.375030
V1    V     V_3+5 0.935650 0.489250 0.500000 1.384097
O8    O     O_R   0.324250 0.592760 0.414010 -0.544620
C3    C     C_R   0.155828 0.615226 0.385878 0.648121
O9    O     O_R   0.323880 0.594720 0.585980 -0.531165
C4    C     C_R   0.155210 0.616869 0.615089 0.703572
V2    V     V_3+5 0.435660 0.510750 0.500000 1.395437
O10   O     O_3   0.160630 0.442060 0.500000 -0.369356
C5    C     C_3   0.947558 0.678100 0.732036 -0.399945
H1    H     H_    0.825422 0.690090 0.688916 0.138223
H2    H     H_    0.929524 0.608370 0.756107 0.145078
C6    C     C_3   0.933612 0.746920 0.804659 -0.331174
H3    H     H_    0.911144 0.709749 0.863018 0.138459
H4    H     H_    0.805305 0.791028 0.795346 0.139434
H5    H     H_    0.028584 0.797040 0.616741 0.066732
H6    H     H_    0.013013 0.897985 0.718612 0.098796
C7    C     C_3   0.160606 0.786207 0.654632 0.342785
C8    C     C_3   0.305632 0.669736 0.750533 -0.336430
C9    C     C_3   0.144604 0.686330 0.685851 0.043181
H7    H     H_    0.450474 0.673597 0.721634 0.145686
H8    H     H_    0.291132 0.599840 0.775170 0.128056
C10   C     C_3   0.119639 0.805672 0.811048 0.087881
C11   C     C_3   0.143095 0.855825 0.728628 -0.401188
C12   C     C_3   0.292937 0.739804 0.822526 -0.326492
H9    H     H_    0.276815 0.703057 0.881480 0.127533
H10   H     H_    0.430561 0.778635 0.826825 0.138076
H11   H     H_    0.262313 0.905248 0.735241 0.138351
C13   C     C_2   0.009743 0.686075 0.263202 -0.220568
C14   C     C_2   0.147906 0.688219 0.322367 0.261201
H12   H     H_    0.908402 0.629622 0.260820 0.086869
C15   C     C_2   0.980433 0.760347 0.202345 -0.102482
C16   C     C_2   0.129188 0.805109 0.168049 -0.277870
H13   H     H_    0.833906 0.774406 0.182392 0.115828
H14   H     H_    0.275144 0.784851 0.182904 0.143503
C17   C     C_2   0.791721 0.211088 0.784614 0.283069
C18   C     C_2   0.622161 0.179496 0.815799 -0.406134
H15   H     H_    0.485136 0.207029 0.796296 0.107508
C19   C     C_2   0.803977 0.284571 0.721625 0.258344
C20   C     C_2   0.647294 0.316767 0.679973 -0.420820
H16   H     H_    0.503968 0.291544 0.692895 0.115423
C21   C     C_2   0.780820 0.195832 0.223592 0.316098
C22   C     C_2   0.620181 0.178833 0.177129 -0.332604
H17   H     H_    0.489923 0.217920 0.187042 0.089815
C23   C     C_2   0.790477 0.270274 0.287219 -0.211076
C24   C     C_2   0.636665 0.312232 0.320638 -0.352261
H18   H     H_    0.933303 0.288413 0.309969 0.142175
H19   H     H_    0.491512 0.293444 0.301962 0.129829
O11   O     O_R   0.770850 0.076180 0.907410 -0.507685
O12   O     O_R   0.440600 0.088970 0.079950 -0.546914
O13   O     O_R   0.270430 0.912340 0.080550 -0.544285
C25   C     C_R   0.610103 0.109962 0.109499 0.763052
O14   O     O_R   0.441120 0.087010 0.907980 -0.552982
O15   O     O_R   0.270950 0.910370 0.907350 -0.546569
C26   C     C_R   0.610805 0.109313 0.880339 0.777083
O16   O     O_R   0.770320 0.078150 0.080620 -0.508464
O17   O     O_3   0.604200 0.936340 0.994000 -0.385633
V3    V     V_3+5 0.329300 0.004970 0.993950 1.407904
O18   O     O_R   0.941240 0.899420 0.907920 -0.548018
C27   C     C_R   0.109923 0.875018 0.881144 0.661798
O19   O     O_R   0.940720 0.901380 0.079890 -0.541099
C28   C     C_R   0.110293 0.877664 0.106280 0.719307
V4    V     V_3+5 0.829310 0.983370 0.993880 1.431970
O20   O     O_3   0.104280 0.052120 0.993920 -0.347822
O21   O     O_3   0.315778 0.797732 0.597866 -0.584518
C29   C     C_3   0.486138 0.839073 0.629123 0.093133
H20   H     H_    0.611241 0.805594 0.599150 0.119615
H21   H     H_    0.509858 0.827980 0.695577 0.109927
C30   C     C_3   0.490116 0.940361 0.606715 -0.306183
H22   H     H_    0.515478 0.947697 0.539985 0.189354
H23   H     H_    0.349353 0.973070 0.620163 0.192844
C31   C     C_3   0.648818 0.991493 0.652850 -0.874488
H24   H     H_    0.632661 0.982551 0.720186 0.222674
H25   H     H_    0.639832 0.065117 0.639176 0.239821
H26   H     H_    0.791921 0.966267 0.632605 0.226394
O22   O     O_3   0.247442 0.769384 0.335129 -0.561681
C32   C     C_3   0.450247 0.758336 0.333807 0.076199
H27   H     H_    0.508423 0.801447 0.284052 0.117764
H28   H     H_    0.501065 0.687971 0.320284 0.102408
C33   C     C_3   0.531632 0.793720 0.415281 -0.282657
H29   H     H_    0.470519 0.862136 0.427234 0.204730
H30   H     H_    0.486705 0.747587 0.465092 0.237036
C34   C     C_3   0.750863 0.800887 0.414760 -0.813336
H31   H     H_    0.813179 0.732026 0.410329 0.250687
H32   H     H_    0.802110 0.833255 0.472873 0.219821
H33   H     H_    0.800924 0.842577 0.362476 0.243481
N1    N     N_2   0.970744 0.175145 0.813589 -0.463224
H34   H     H_    0.071417 0.223570 0.830692 0.265492
C35   C     C_3   0.051246 0.104465 0.761722 -0.499117
H35   H     H_    0.186702 0.078814 0.789358 0.192004
H36   H     H_    0.083634 0.130782 0.699551 0.178622
H37   H     H_    0.948582 0.046990 0.756713 0.191482
N2    N     N_2   0.994679 0.316155 0.704332 -0.508668
H38   H     H_    0.044072 0.307243 0.645123 0.273987
C36   C     C_3   0.053436 0.398885 0.746367 -0.535229
H39   H     H_    0.207490 0.413321 0.732940 0.182889
H40   H     H_    0.036756 0.391643 0.813845 0.178479
H41   H     H_    0.964889 0.456700 0.725430 0.190755
N3    N     N_2   0.951458 0.143310 0.211457 -0.489768
H42   H     H_    0.077388 0.180195 0.218722 0.235813
C37   C     C_3   0.955632 0.059796 0.257463 -0.487413
H43   H     H_    0.088698 0.021379 0.242060 0.187374
H44   H     H_    0.828934 0.016446 0.241600 0.187621
H45   H     H_    0.955577 0.074985 0.324565 0.176637

loop_
_geom_bond_atom_site_label_1
_geom_bond_atom_site_label_2
_ccdc_geom_bond_type
C7    C11   S    
C33   H29   S    
C8    C12   S    
C29   H20   S    
C30   C31   S    
C1    O6    A    
C5    C6    S    
C15   H13   S    
C6    C10   S    
C18   H15   S    
C8    C9    S    
C22   C25   S    
C13   C14   D    
C32   H28   S    
O5    C3    A    
C10   C11   S    
C36   H40   S    
O12   C25   A    
N3    H42   S    
V2    O10   S    
C35   H37   S    
C17   N1    S    
C37   H43   S    
C36   H41   S    
O14   C26   A    
C3    C14   S    
O8    V2    S    
O22   C32   S    
O19   C28   A    
C35   H36   S    
C32   C33   S    
V4    O20   S    
O1    V2    S    
O17   V4    S    
C4    C9    S    
O7    V1    S    
C10   C27   S    
C16   H14   S    
O18   C27   A    
O9    C4    A    
C29   H21   S    
C36   H39   S    
C23   H18   S    
C22   H17   S    
C24   H19   S    
C16   C28   S    
C5    C9    S    
C30   H22   S    
O12   V3    S    
C15   C16   D    
O4    C2    A    
C18   C26   S    
V3    O20   S    
C12   H10   S    
O2    C1    A    
C17   C18   D    
O15   C27   A    
O13   V3    S    
C34   H32   S    
C20   H16   S    
O16   V4    S    
C21   C23   S    
C35   H35   S    
N2    C36   S    
C5    H1    S    
C7    O21   S    
C32   H27   S    
N1    C35   S    
O3    C4    A    
C6    H4    S    
O14   V3    S    
O6    V2    S    
O11   V4    S    
O9    V2    S    
C29   C30   S    
C11   H11   S    
C2    C24   S    
O2    V1    S    
C23   C24   D    
C34   H33   S    
C31   H25   S    
C19   N2    S    
C19   C20   D    
O1    C2    A    
C25   O16   A    
C13   C15   S    
C30   H23   S    
O21   C29   S    
O5    V1    S    
C31   H26   S    
O8    C3    A    
O13   C28   A    
C21   N3    S    
C7    C9    S    
C8    H7    S    
C37   H45   S    
O17   V3    S    
C33   H30   S    
O7    V2    S    
H6    C11   S    
O4    V1    S    
O3    V1    S    
V1    O10   S    
C12   H9    S    
C10   C12   S    
C34   H31   S    
O18   V4    S    
N3    C37   S    
C13   H12   S    
N2    H38   S    
C5    H2    S    
C37   H44   S    
O11   C26   A    
H5    C7    S    
N1    H34   S    
C17   C19   S    
C31   H24   S    
O15   V3    S    
C6    H3    S    
C8    H8    S    
O19   V4    S    
C21   C22   D    
C33   C34   S    
C14   O22   S    
C1    C20   S    
