data_mof_unit_5193.cif
_audit_creation_date              2012-10-26T18:26:35-0400
_audit_creation_method            fapswitch 2.2
_symmetry_space_group_name_H-M    P1
_symmetry_Int_Tables_number       1
_space_group_crystal_system       triclinic
_cell_length_a                    15.821516
_cell_length_b                    8.725278
_cell_length_c                    7.433147
_cell_angle_alpha                 102.071526
_cell_angle_beta                  94.161028
_cell_angle_gamma                 92.104399
_cell_volume                      999.371480954

loop_
_atom_site_label
_atom_site_type_symbol
_atom_type_description
_atom_site_fract_x
_atom_site_fract_y
_atom_site_fract_z
_atom_type_partial_charge
C1    C     C_R   0.495149 0.200763 0.455941 0.601702
C2    C     C_3   0.977178 0.638305 0.594893 -0.097102
C3    C     C_1   0.250319 0.499933 0.507190 0.038223
C4    C     C_1   0.749674 0.499737 0.492718 0.033518
C5    C     C_3   0.032619 0.522512 0.676099 -0.102537
C6    C     C_3   0.967366 0.476818 0.323648 -0.101438
C7    C     C_3   0.082832 0.499841 0.504354 0.046419
C8    C     C_3   0.917153 0.499493 0.495396 0.048147
C9    C     C_1   0.174667 0.499983 0.507548 -0.030277
C10   C     C_1   0.825320 0.499484 0.492269 -0.027593
C11   C     C_R   0.504899 0.799247 0.544031 0.593108
C12   C     C_R   0.339909 0.499599 0.502365 0.587622
C13   C     C_R   0.660090 0.500325 0.497618 0.577265
C14   C     C_2   0.478148 0.037023 0.441564 0.183649
C15   C     C_2   0.522139 0.962995 0.558235 0.183937
C16   C     C_3   0.971026 0.383701 0.576578 -0.096287
C17   C     C_3   0.028958 0.615628 0.423171 -0.096612
C18   C     C_3   0.022811 0.361024 0.404854 -0.098132
Cu1   Cu    Cu3+1 0.509330 0.517380 0.684380 1.116611
Cu2   Cu    Cu3+1 0.490670 0.482620 0.315620 1.108517
H1    H     H_    0.043027 0.247206 0.327120 0.121035
H2    H     H_    0.634416 0.209229 0.970950 0.367194
H3    H     H_    0.956973 0.752129 0.672629 0.126425
H4    H     H_    0.945762 0.288473 0.639342 0.128520
H5    H     H_    0.054222 0.710858 0.360407 0.125916
H6    H     H_    0.939227 0.458129 0.178992 0.118666
H7    H     H_    0.060756 0.541201 0.820756 0.118772
H8    H     H_    0.434944 0.377892 0.949000 0.259036
H9    H     H_    0.565047 0.622116 0.051008 0.253060
H10   H     H_    0.281251 0.042240 0.151336 0.363729
N1    N     N_2   0.476600 0.456420 0.038510 -0.224628
N2    N     N_2   0.523400 0.543580 0.961490 -0.229602
O1    O     O_R   0.506070 0.286130 0.619780 -0.485488
O2    O     O_2   0.333815 0.850742 0.385383 -0.309257
O3    O     O_3   0.327243 0.096971 0.242105 -0.532098
O4    O     O_2   0.666985 0.919989 0.754016 -0.285303
O5    O     O_2   0.666239 0.149559 0.613350 -0.316297
O6    O     O_3   0.581847 0.155254 0.902644 -0.484664
O7    O     O_R   0.493930 0.713870 0.380220 -0.487582
O8    O     O_R   0.490300 0.256770 0.308360 -0.449091
O9    O     O_R   0.509700 0.743230 0.691640 -0.448701
O10   O     O_R   0.386960 0.514660 0.655680 -0.515305
O11   O     O_R   0.613040 0.485340 0.344320 -0.534505
O12   O     O_R   0.371190 0.485310 0.344260 -0.463057
O13   O     O_R   0.628810 0.514690 0.655740 -0.472654
O14   O     O_2   0.414702 0.857604 0.117050 -0.246893
S1    S     S_3+6 0.386747 0.953432 0.293075 0.017727
S2    S     S_3+6 0.613536 0.047256 0.706641 0.016308

loop_
_geom_bond_atom_site_label_1
_geom_bond_atom_site_label_2
_ccdc_geom_bond_type
C11   O7    A    
Cu1   O13   S    
C11   O9    A    
C14   S1    S    
O2    S1    D    
C1    C14   S    
C18   H1    S    
O6    S2    S    
N1    N2    D    
Cu1   O10   S    
C7    C18   S    
O3    S1    S    
C2    H3    S    
C1    O1    A    
C6    C17   S    
C16   H4    S    
C5    H7    S    
C2    C17   S    
C13   O13   A    
Cu1   O9    S    
C6    H6    S    
C12   O10   A    
C15   S2    S    
C3    C9    T    
Cu1   N2    S    
H10   O3    S    
C8    C10   S    
Cu2   O12   S    
O4    S2    D    
H9    N2    S    
Cu1   O1    S    
Cu2   O8    S    
C6    C18   S    
C2    C5    S    
C4    C10   T    
H2    O6    S    
C7    C9    S    
C13   O11   A    
Cu2   O11   S    
C16   C18   S    
C8    C16   S    
C4    C13   S    
C5    C7    S    
Cu2   O7    S    
O14   S1    D    
C12   O12   A    
C5    C16   S    
C6    C8    S    
C3    C12   S    
C1    O8    A    
C7    C17   S    
C14   C15   D    
C11   C15   S    
H8    N1    S    
C2    C8    S    
Cu1   Cu2   S    
C17   H5    S    
O5    S2    D    
Cu2   N1    S    
