data_mof_unit_55796.cif
_audit_creation_date              2012-12-10T18:57:09-0500
_audit_creation_method            fapswitch 2.2
_symmetry_space_group_name_H-M    P1
_symmetry_Int_Tables_number       1
_space_group_crystal_system       triclinic
_cell_length_a                    8.724217
_cell_length_b                    10.818594
_cell_length_c                    9.570988
_cell_angle_alpha                 90.660363
_cell_angle_beta                  98.219896
_cell_angle_gamma                 92.45452
_cell_volume                      893.102898387

loop_
_atom_site_label
_atom_site_type_symbol
_atom_type_description
_atom_site_fract_x
_atom_site_fract_y
_atom_site_fract_z
_atom_type_partial_charge
C1    C     C_R   0.492902 0.262361 0.498249 0.825946
C2    C     C_R   0.427673 0.929161 0.374086 -0.322500
C3    C     C_R   0.478142 0.869375 0.500693 -0.129651
C4    C     C_R   0.501386 0.938971 0.625831 0.039474
C5    C     C_3   0.620442 0.937184 0.755274 -0.528119
C6    C     C_3   0.626128 0.078510 0.750682 0.341699
C7    C     C_R   0.631807 0.530164 0.089653 0.114270
C8    C     C_R   0.374605 0.452377 0.056786 0.539757
C9    C     C_R   0.378184 0.449848 0.907542 -0.191493
C10   C     C_R   0.632097 0.527604 0.944039 0.184352
C11   C     C_3   0.741940 0.635995 0.947235 -0.558382
C12   C     C_R   0.203803 0.498740 0.463774 0.868288
C13   C     C_3   0.743916 0.640740 0.107690 0.274087
C14   C     C_R   0.497293 0.737429 0.500607 0.822567
C15   C     C_R   0.796179 0.499671 0.536484 0.875588
C16   C     C_2   0.037665 0.496776 0.444691 -0.381679
C17   C     C_2   0.962383 0.499322 0.556786 -0.364084
C18   C     C_R   0.505127 0.065534 0.621914 -0.057648
C19   C     C_R   0.475093 0.128592 0.495654 -0.209943
C20   C     C_R   0.421158 0.059011 0.370685 0.413930
Cu1   Cu    Cu3+1 0.499990 0.499980 0.640670 0.949441
Cu2   Cu    Cu3+1 0.500010 0.500020 0.359330 1.015390
N1    N     N_R   0.500980 0.500930 0.148050 -0.210627
N2    N     N_R   0.500990 0.500890 0.852140 -0.188274
O1    O     O_R   0.500000 0.319640 0.618810 -0.579614
O2    O     O_R   0.500020 0.319680 0.381230 -0.519900
O3    O     O_R   0.274830 0.499980 0.591380 -0.593348
O4    O     O_R   0.274850 0.500020 0.353800 -0.553771
O5    O     O_R   0.499980 0.680320 0.618770 -0.580802
O6    O     O_R   0.500000 0.680360 0.381190 -0.549678
O7    O     O_R   0.725150 0.499980 0.646200 -0.575716
O8    O     O_R   0.725170 0.500020 0.408620 -0.586721
H1    H     H_    0.976744 0.493095 0.337914 0.163917
H2    H     H_    0.284076 0.405300 0.836516 0.148494
H3    H     H_    0.854711 0.611139 0.916062 0.152263
H4    H     H_    0.687435 0.714905 0.890321 0.222908
H5    H     H_    0.856701 0.617665 0.169045 0.052489
O9    O     O_3   0.681462 0.750127 0.153340 -0.532286
C21   C     C_3   0.799146 0.845838 0.163772 0.046062
H6    H     H_    0.845925 0.857362 0.062026 0.143630
H7    H     H_    0.896186 0.825757 0.248259 0.129876
C22   C     C_3   0.734968 0.968713 0.199623 -0.757049
H8    H     H_    0.713626 0.969016 0.310871 0.234234
H9    H     H_    0.820905 0.045214 0.187469 0.189143
H10   H     H_    0.625893 0.984630 0.128144 0.271717
H11   H     H_    0.022888 0.501932 0.664349 0.164877
O10   O     O_3   0.385871 0.117307 0.242783 -0.549592
C23   C     C_3   0.232891 0.083488 0.179283 0.114304
H12   H     H_    0.155194 0.156046 0.205021 0.178833
H13   H     H_    0.184367 0.994090 0.214708 0.092108
C24   C     C_3   0.228493 0.074284 0.019988 -0.800062
H14   H     H_    0.305612 0.001137 0.993304 0.231694
H15   H     H_    0.108281 0.050128 0.969115 0.205260
H16   H     H_    0.267751 0.163833 0.978497 0.270103
H17   H     H_    0.401799 0.876388 0.275994 0.200134
H18   H     H_    0.569067 0.902010 0.847713 0.181005
H19   H     H_    0.728735 0.892992 0.737277 0.189924
H20   H     H_    0.578288 0.120434 0.840964 0.119330
O11   O     O_3   0.774878 0.134169 0.737209 -0.566616
C25   C     C_3   0.830183 0.109862 0.607728 0.115443
H21   H     H_    0.784806 0.177780 0.528098 0.142981
H22   H     H_    0.798922 0.014859 0.565129 0.134059
C26   C     C_3   0.006141 0.126355 0.629697 -0.822356
H23   H     H_    0.057256 0.056715 0.704647 0.244157
H24   H     H_    0.050428 0.113755 0.527498 0.194325
H25   H     H_    0.042448 0.220616 0.672500 0.254663
O12   O     O_3   0.253607 0.391498 0.110644 -0.544442
C27   C     C_3   0.109004 0.440425 0.057006 0.037014
H26   H     H_    0.090503 0.523980 0.119674 0.146400
H27   H     H_    0.097357 0.467793 0.944683 0.107561
C28   C     C_3   0.980104 0.343472 0.068645 -0.792969
H28   H     H_    0.979162 0.317703 0.180385 0.229617
H29   H     H_    0.866555 0.379857 0.027047 0.208029
H30   H     H_    0.996316 0.260019 0.004923 0.265978

loop_
_geom_bond_atom_site_label_1
_geom_bond_atom_site_label_2
_ccdc_geom_bond_type
C7    C10   A    
O12   C27   S    
C26   H24   S    
C9    N2    A    
C15   O7    A    
C24   H14   S    
C16   H1    S    
C28   H30   S    
C11   C13   S    
C22   H8    S    
C6    H20   S    
C5    H18   S    
C13   H5    S    
C19   C20   A    
C5    H19   S    
C23   H12   S    
C24   H16   S    
C4    C18   A    
C23   H13   S    
C2    C3    A    
Cu1   O3    S    
C26   H25   S    
O11   C25   S    
C21   H7    S    
Cu2   O4    S    
Cu1   Cu2   S    
C1    O1    A    
Cu1   O7    S    
C13   O9    S    
O9    C21   S    
C3    C14   S    
Cu2   O8    S    
C23   C24   S    
C14   O6    A    
C27   C28   S    
C7    N1    A    
C5    C6    S    
C11   H3    S    
C11   H4    S    
C12   O4    A    
C9    H2    S    
C21   C22   S    
C2    H17   S    
C25   C26   S    
C1    O2    A    
C6    C18   S    
C1    C19   S    
C20   O10   S    
C16   C17   D    
C10   C11   S    
C12   O3    A    
C2    C20   A    
C26   H23   S    
O10   C23   S    
C12   C16   S    
C7    C13   S    
C8    N1    A    
C28   H28   S    
C17   H11   S    
C8    O12   S    
C25   H22   S    
C18   C19   A    
Cu2   O2    S    
Cu1   N2    S    
C21   H6    S    
C28   H29   S    
C27   H27   S    
Cu1   O1    S    
Cu2   N1    S    
C4    C5    S    
Cu2   O6    S    
C10   N2    A    
C15   C17   S    
Cu1   O5    S    
C6    O11   S    
C27   H26   S    
C25   H21   S    
C22   H9    S    
C3    C4    A    
C14   O5    A    
C8    C9    A    
C24   H15   S    
C22   H10   S    
C15   O8    A    
