data_mof_unit_33388.cif
_audit_creation_date              2012-12-11T15:22:36-0500
_audit_creation_method            fapswitch 2.2
_symmetry_space_group_name_H-M    P1
_symmetry_Int_Tables_number       1
_space_group_crystal_system       triclinic
_cell_length_a                    22.82565
_cell_length_b                    7.240586
_cell_length_c                    20.804314
_cell_angle_alpha                 90.118333
_cell_angle_beta                  93.257763
_cell_angle_gamma                 89.856545
_cell_volume                      3432.77790949

loop_
_atom_site_label
_atom_site_type_symbol
_atom_type_description
_atom_site_fract_x
_atom_site_fract_y
_atom_site_fract_z
_atom_type_partial_charge
O1    O     O_R   0.438030 0.494310 0.439340 -0.502229
O2    O     O_R   0.561970 0.994310 0.560660 -0.502144
O3    O     O_R   0.556900 0.822900 0.435960 -0.539376
O4    O     O_R   0.443100 0.322900 0.564040 -0.537724
C1    C     C_R   0.575743 0.655034 0.421081 0.705084
C2    C     C_R   0.424264 0.155600 0.578955 0.704421
O5    O     O_R   0.438170 0.823950 0.431660 -0.542350
O6    O     O_R   0.561830 0.323950 0.568340 -0.542053
O7    O     O_R   0.442390 0.995390 0.556340 -0.534968
O8    O     O_R   0.557610 0.495390 0.443660 -0.534278
C3    C     C_R   0.418783 0.655032 0.415191 0.738738
C4    C     C_R   0.581224 0.154982 0.584801 0.739597
O9    O     O_3   0.501520 0.661170 0.540910 -0.361812
O10   O     O_3   0.498480 0.161170 0.459090 -0.362429
V1    V     V_3+5 0.499720 0.935580 0.492410 1.521833
V2    V     V_3+5 0.500280 0.435580 0.507590 1.524833
C5    C     C_R   0.829792 0.935069 0.857127 -0.184130
C6    C     C_R   0.170181 0.434524 0.142994 -0.185811
C7    C     C_R   0.869064 0.083628 0.866046 -0.080586
C8    C     C_R   0.130872 0.583483 0.134028 -0.079332
C9    C     C_R   0.860242 0.243189 0.828078 -0.220882
C10   C     C_R   0.139653 0.743455 0.171960 -0.220722
C11   C     C_R   0.813117 0.254498 0.781751 0.108539
C12   C     C_R   0.186799 0.754839 0.218256 0.108688
C13   C     C_R   0.773195 0.106321 0.774137 0.088718
C14   C     C_R   0.226771 0.606269 0.225895 0.089181
C15   C     C_R   0.781662 0.946462 0.812065 0.043793
C16   C     C_R   0.218328 0.445957 0.188030 0.044058
C17   C     C_R   0.805423 0.411139 0.742628 -0.221171
C18   C     C_R   0.194474 0.911972 0.257310 -0.221616
C19   C     C_R   0.758412 0.421788 0.696683 -0.094833
C20   C     C_R   0.241516 0.922712 0.303211 -0.095245
C21   C     C_R   0.717729 0.277101 0.689511 0.136002
C22   C     C_R   0.282246 0.777603 0.310416 0.135797
C23   C     C_R   0.725153 0.117615 0.728181 -0.101978
C24   C     C_R   0.274843 0.617636 0.271811 -0.102005
C25   C     C_R   0.685053 0.969252 0.720551 -0.122524
C26   C     C_R   0.314989 0.468868 0.279469 -0.122429
C27   C     C_R   0.693548 0.810113 0.759554 0.439922
C28   C     C_R   0.306518 0.309260 0.240528 0.440319
C29   C     C_R   0.742144 0.799663 0.804130 -0.304543
C30   C     C_R   0.257897 0.298776 0.195991 -0.306413
C31   C     C_R   0.670143 0.289288 0.643927 -0.249339
C32   C     C_R   0.329848 0.789829 0.355982 -0.248462
C33   C     C_R   0.630019 0.143203 0.635367 -0.222448
C34   C     C_R   0.370006 0.643315 0.364591 -0.222180
C35   C     C_R   0.637554 0.983798 0.674101 0.590836
C36   C     C_R   0.362503 0.483469 0.325893 0.590163
H1    H     H_    0.835954 0.811745 0.886233 0.132723
H2    H     H_    0.164046 0.310869 0.113927 0.131688
H3    H     H_    0.890497 0.357970 0.833999 0.129815
H4    H     H_    0.109365 0.858553 0.166015 0.129450
H5    H     H_    0.835788 0.525779 0.747576 0.127009
H6    H     H_    0.164071 0.026932 0.252339 0.126791
H7    H     H_    0.753571 0.544392 0.667048 0.125625
H8    H     H_    0.246337 0.045699 0.332794 0.125739
H9    H     H_    0.664956 0.411707 0.614196 0.169259
H10   H     H_    0.335012 0.912605 0.385673 0.169331
H11   H     H_    0.749532 0.674425 0.831883 0.148650
H12   H     H_    0.250532 0.173226 0.168287 0.148473
C37   C     C_3   0.235867 0.301585 0.794172 -0.485210
C38   C     C_3   0.781869 0.811169 0.228915 -0.438644
C39   C     C_3   0.255985 0.958913 0.807246 0.517973
C40   C     C_3   0.735209 0.522329 0.179551 0.514572
C41   C     C_3   0.305798 0.969633 0.758967 -0.477350
C42   C     C_3   0.685464 0.529547 0.227993 -0.449773
H13   H     H_    0.328241 0.311054 0.781895 0.124469
H14   H     H_    0.692299 0.879461 0.241452 0.127362
H15   H     H_    0.252547 0.331562 0.844426 0.203650
H16   H     H_    0.772378 0.896215 0.185011 0.202169
H17   H     H_    0.236366 0.818419 0.804820 0.101968
H18   H     H_    0.742948 0.375841 0.166070 0.111051
H19   H     H_    0.348737 0.994257 0.785627 0.196162
H20   H     H_    0.646776 0.605460 0.206296 0.191636
H21   H     H_    0.310100 0.835060 0.734013 0.180214
H22   H     H_    0.670190 0.386767 0.237497 0.153084
C43   C     C_1   0.378833 0.146188 0.624884 -0.170039
C44   C     C_1   0.621344 0.644055 0.375372 -0.169061
C45   C     C_3   0.207271 0.106345 0.791180 0.080927
C46   C     C_3   0.793425 0.607007 0.209548 0.051658
C47   C     C_3   0.288249 0.308550 0.748623 0.342979
C48   C     C_3   0.728960 0.822167 0.273037 0.323970
C49   C     C_3   0.292866 0.125634 0.708993 0.080033
C50   C     C_3   0.707921 0.623536 0.291970 0.042063
C51   C     C_3   0.233134 0.076315 0.673408 -0.432134
C52   C     C_3   0.760016 0.499584 0.318459 -0.427856
C53   C     C_3   0.182131 0.074194 0.720781 0.215577
C54   C     C_3   0.811831 0.500867 0.272568 0.260332
C55   C     C_1   0.340421 0.136620 0.662878 0.032480
C56   C     C_1   0.659995 0.633588 0.337667 0.005645
C57   C     C_1   0.159787 0.093948 0.837472 0.055601
C58   C     C_1   0.840593 0.596454 0.162855 0.060755
C59   C     C_1   0.121275 0.083835 0.875353 -0.162109
C60   C     C_1   0.878863 0.585960 0.124688 -0.166649
H23   H     H_    0.151487 0.191258 0.708764 0.059134
H24   H     H_    0.848910 0.580059 0.296745 0.057779
H25   H     H_    0.222646 0.169762 0.632256 0.131434
H26   H     H_    0.776344 0.537389 0.367771 0.101101
H27   H     H_    0.202210 0.409150 0.782555 0.143144
H28   H     H_    0.821922 0.870580 0.253417 0.149267
H29   H     H_    0.237016 0.938917 0.650480 0.175827
H30   H     H_    0.743654 0.355899 0.323149 0.228012
O11   O     O_R   0.942420 0.735670 0.056390 -0.532144
O12   O     O_R   0.057580 0.235670 0.943610 -0.533338
O13   O     O_R   0.061840 0.404850 0.068350 -0.542459
O14   O     O_R   0.938160 0.904850 0.931650 -0.542211
C61   C     C_R   0.081493 0.573560 0.084377 0.697643
C62   C     C_R   0.918479 0.073618 0.915650 0.698713
O15   O     O_R   0.943100 0.406010 0.064050 -0.533774
O16   O     O_R   0.056900 0.906010 0.935950 -0.531356
O17   O     O_R   0.938020 0.234710 0.939330 -0.536492
O18   O     O_R   0.061980 0.734710 0.060670 -0.536538
C63   C     C_R   0.924326 0.574929 0.078829 0.709597
C64   C     C_R   0.075686 0.074365 0.921134 0.710238
O19   O     O_3   0.998500 0.567790 0.959120 -0.376482
O20   O     O_3   0.001500 0.067790 0.040880 -0.377679
V3    V     V_3+5 0.000280 0.293330 0.007580 1.416796
V4    V     V_3+5 0.999720 0.793330 0.992420 1.424059
F1    F     F_    0.279613 0.984444 0.869510 -0.681287
F2    F     F_    0.717371 0.616350 0.123791 -0.683758
O21   O     O_3   0.152175 0.902572 0.717044 -0.564710
C65   C     C_3   0.107371 0.905320 0.667336 0.098251
H31   H     H_    0.125127 0.942927 0.620355 0.114298
H32   H     H_    0.072341 0.005092 0.679086 0.118795
C66   C     C_3   0.080060 0.714348 0.660861 -0.742334
H33   H     H_    0.062512 0.672021 0.707306 0.226843
H34   H     H_    0.043609 0.716334 0.623178 0.175590
H35   H     H_    0.113419 0.612229 0.646965 0.204801
O22   O     O_3   0.827917 0.316359 0.257605 -0.548491
C67   C     C_3   0.880333 0.261385 0.292202 0.126834
H36   H     H_    0.878765 0.109842 0.299320 0.135789
H37   H     H_    0.885549 0.323289 0.341285 0.086135
C68   C     C_3   0.933702 0.304553 0.254038 -0.765705
H38   H     H_    0.939243 0.456138 0.249583 0.202439
H39   H     H_    0.973778 0.246479 0.279232 0.178924
H40   H     H_    0.928377 0.242253 0.205228 0.238005
O23   O     O_3   0.293735 0.472430 0.711808 -0.555766
C69   C     C_3   0.242382 0.529173 0.676087 0.113036
H41   H     H_    0.226237 0.656476 0.698305 0.171111
H42   H     H_    0.205450 0.431733 0.675287 0.099892
C70   C     C_3   0.257202 0.570474 0.607201 -0.750151
H43   H     H_    0.271932 0.442443 0.583434 0.220267
H44   H     H_    0.217810 0.625393 0.579764 0.175126
H45   H     H_    0.292844 0.674584 0.606854 0.226318
O24   O     O_3   0.735862 0.957481 0.322867 -0.546948
C71   C     C_3   0.771703 0.901205 0.376826 0.150883
H46   H     H_    0.814143 0.842567 0.362793 0.092825
H47   H     H_    0.747815 0.801606 0.406047 0.126113
C72   C     C_3   0.784604 0.066912 0.420345 -0.762606
H48   H     H_    0.810861 0.022570 0.464212 0.173434
H49   H     H_    0.809804 0.171804 0.395042 0.216077
H50   H     H_    0.742933 0.129795 0.434945 0.225778
F3    F     F_    0.597588 0.845247 0.667472 -0.658027
F4    F     F_    0.402510 0.344484 0.332540 -0.658614
O25   O     O_3   0.658620 0.655976 0.748692 -0.520703
C73   C     C_3   0.623283 0.629299 0.801337 0.171901
H51   H     H_    0.595682 0.753623 0.809238 0.127190
H52   H     H_    0.650426 0.597859 0.846124 0.099535
C74   C     C_3   0.582890 0.465827 0.786834 -0.640339
H53   H     H_    0.609285 0.338831 0.780100 0.209762
H54   H     H_    0.554159 0.444108 0.827450 0.167122
H55   H     H_    0.555033 0.492305 0.742259 0.245531
O26   O     O_3   0.341493 0.154820 0.251427 -0.520430
C75   C     C_3   0.376791 0.126852 0.198756 0.172647
H56   H     H_    0.404387 0.250627 0.190809 0.125840
H57   H     H_    0.349623 0.095240 0.153992 0.098651
C76   C     C_3   0.417187 0.962922 0.213260 -0.643968
H58   H     H_    0.390794 0.836436 0.220025 0.210554
H59   H     H_    0.445898 0.940212 0.172630 0.166485
H60   H     H_    0.445064 0.989532 0.257817 0.244222

loop_
_geom_bond_atom_site_label_1
_geom_bond_atom_site_label_2
_ccdc_geom_bond_type
O18   V4    S    
C39   C41   S    
O4    V2    S    
C61   O18   A    
C67   H37   S    
O26   C75   S    
O1    C3    A    
O2    C4    A    
O16   V4    S    
C2    O7    A    
C45   C53   S    
O24   C71   S    
O15   V3    S    
C75   H57   S    
C27   C29   A    
C39   C45   S    
C44   C56   T    
O5    C3    A    
C18   H6    S    
C43   C55   T    
C17   H5    S    
C11   C17   A    
C10   C12   A    
C38   C46   S    
C73   H51   S    
O11   C63   A    
C12   C14   A    
O22   C67   S    
C70   H44   S    
C52   C54   S    
C41   C49   S    
C37   H15   S    
C42   H20   S    
C41   H19   S    
O20   V3    S    
C38   H16   S    
C51   H29   S    
C5    C7    A    
C32   H10   S    
C53   H23   S    
C68   H40   S    
C19   C21   A    
C25   C35   A    
O16   C64   A    
C45   C57   S    
O15   C63   A    
C8    C61   S    
C7    C62   S    
C33   C35   A    
C38   C48   S    
O6    V2    S    
O14   V4    S    
C40   C46   S    
C72   H49   S    
O13   V3    S    
C37   H27   S    
C50   C56   S    
C54   O22   S    
C47   C49   S    
C60   C63   S    
C32   C34   A    
C76   H60   S    
C71   H47   S    
C51   C53   S    
C49   C55   S    
C34   C36   A    
C5    C15   A    
C6    C16   A    
C29   H11   S    
C28   O26   S    
C76   H59   S    
C70   H45   S    
C5    H1    S    
C76   H58   S    
C53   O21   S    
C4    C33   S    
C2    C43   S    
O5    V1    S    
C35   F3    S    
C27   O25   S    
C54   H24   S    
C40   C42   S    
C46   C58   S    
C47   O23   S    
C1    C44   S    
C18   C20   A    
C57   C59   T    
C71   C72   S    
O13   C61   A    
C15   C29   A    
C74   H53   S    
O6    C4    A    
O19   V4    S    
C42   H22   S    
C58   C60   T    
C74   H55   S    
C22   C32   A    
O1    V2    S    
C66   H34   S    
O2    V1    S    
C31   C33   A    
O21   C65   S    
C69   H42   S    
C13   C23   A    
C38   H28   S    
O4    C2    A    
C49   C51   S    
C39   H17   S    
H13   C47   S    
C48   C50   S    
C9    C11   A    
C66   H33   S    
O12   C64   A    
C72   H50   S    
O11   V4    S    
C30   H12   S    
C24   C26   A    
C52   H30   S    
C9    H3    S    
C48   O24   S    
O3    V1    S    
C6    H2    S    
C10   H4    S    
C71   H46   S    
C14   C24   A    
C36   F4    S    
C75   H56   S    
C23   C25   A    
C26   C36   A    
C75   C76   S    
C8    C10   A    
C28   C30   A    
O3    C1    A    
C69   C70   S    
C41   H21   S    
C46   C54   S    
C73   C74   S    
C13   C15   A    
O23   C69   S    
O12   V3    S    
C14   C16   A    
C40   F2    S    
C62   O17   A    
O17   V3    S    
H14   C48   S    
C65   C66   S    
C73   H52   S    
C74   H54   S    
O7    V1    S    
C1    O8    A    
C17   C19   A    
O8    V2    S    
C72   H48   S    
C26   C28   A    
C68   H38   S    
O14   C62   A    
C37   C45   S    
C66   H35   S    
C16   C30   A    
C21   C23   A    
C22   C24   A    
C67   H36   S    
C6    C8    A    
C59   C64   S    
C40   H18   S    
C52   H26   S    
C12   C18   A    
C51   H25   S    
C69   H41   S    
C31   H9    S    
C42   C50   S    
C67   C68   S    
C11   C13   A    
C25   C27   A    
C39   F1    S    
O9    V2    S    
O25   C73   S    
C68   H39   S    
O10   V1    S    
C50   C52   S    
C3    C34   S    
C37   C47   S    
C19   H7    S    
C65   H31   S    
C70   H43   S    
C21   C31   A    
C65   H32   S    
C20   H8    S    
C20   C22   A    
C7    C9    A    
