data_mof_unit_47678.cif
_audit_creation_date              2013-03-05T15:49:58-0500
_audit_creation_method            fapswitch 2.2
_symmetry_space_group_name_H-M    P1
_symmetry_Int_Tables_number       1
_space_group_crystal_system       triclinic
_cell_length_a                    6.942773
_cell_length_b                    19.897573
_cell_length_c                    23.863931
_cell_angle_alpha                 93.798283
_cell_angle_beta                  91.02139
_cell_angle_gamma                 88.774924
_cell_volume                      3288.22869845

loop_
_atom_site_label
_atom_site_type_symbol
_atom_site_description
_atom_site_fract_x
_atom_site_fract_y
_atom_site_fract_z
_atom_type_partial_charge
O1    O     O_R   0.620100 0.812200 0.810870 -0.599876
O2    O     O_R   0.379900 0.187800 0.189130 -0.599880
O3    O     O_R   0.296960 0.671650 0.794750 -0.572548
O4    O     O_R   0.703040 0.328350 0.205250 -0.572529
O5    O     O_R   0.120160 0.687800 0.689130 -0.605651
O6    O     O_R   0.879840 0.312200 0.310870 -0.605652
C1    C     C_R   0.468021 0.647227 0.804496 1.031236
C2    C     C_R   0.531979 0.352773 0.195504 1.031186
O7    O     O_R   0.290810 0.810670 0.817290 -0.581593
O8    O     O_R   0.709190 0.189330 0.182710 -0.581595
O9    O     O_R   0.113980 0.827820 0.711840 -0.592486
O10   O     O_R   0.886020 0.172180 0.288160 -0.592480
C3    C     C_R   0.459365 0.831778 0.834286 1.016620
C4    C     C_R   0.540635 0.168221 0.165714 1.016605
O11   O     O_R   0.626290 0.672180 0.788160 -0.594263
O12   O     O_R   0.373710 0.327820 0.211840 -0.594262
O13   O     O_3   0.451520 0.755460 0.715370 -0.291904
O14   O     O_3   0.548480 0.244540 0.284630 -0.291903
V1    V     V_3+5 0.179200 0.748980 0.756420 1.206616
V2    V     V_3+5 0.820800 0.251020 0.243580 1.206640
O15   O     O_R   0.783880 0.828350 0.705250 -0.593506
O16   O     O_R   0.216120 0.171650 0.294750 -0.593508
C5    C     C_R   0.950473 0.852360 0.694470 0.927113
C6    C     C_R   0.049527 0.147640 0.305530 0.927121
O17   O     O_R   0.790030 0.689320 0.682700 -0.606160
O18   O     O_R   0.209970 0.310680 0.317300 -0.606161
C7    C     C_R   0.959081 0.668202 0.665676 0.938327
C8    C     C_R   0.040919 0.331798 0.334324 0.938323
V3    V     V_3+5 0.678400 0.751010 0.743570 1.180750
V4    V     V_3+5 0.321600 0.248990 0.256430 1.180756
O19   O     O_3   0.955950 0.744540 0.784620 -0.254242
O20   O     O_3   0.044050 0.255460 0.215380 -0.254231
C9    C     C_R   0.181594 0.425823 0.396418 -0.254806
C10   C     C_R   0.818406 0.574177 0.603582 -0.254806
C11   C     C_R   0.030625 0.380839 0.383914 -0.137502
C12   C     C_R   0.969375 0.619161 0.616085 -0.137504
C13   C     C_R   0.867754 0.383760 0.418413 -0.261429
C14   C     C_R   0.132245 0.616240 0.581587 -0.261429
C15   C     C_R   0.855682 0.430462 0.465087 0.151255
C16   C     C_R   0.144318 0.569538 0.534913 0.151255
C17   C     C_R   0.006287 0.476065 0.476800 0.028036
C18   C     C_R   0.993714 0.523934 0.523200 0.028036
C19   C     C_R   0.169299 0.473950 0.442146 0.149894
C20   C     C_R   0.830701 0.526050 0.557854 0.149894
C21   C     C_R   0.695547 0.432424 0.500289 -0.219048
C22   C     C_R   0.304453 0.567576 0.499711 -0.219047
C23   C     C_R   0.683345 0.479697 0.546295 -0.207474
C24   C     C_R   0.316655 0.520303 0.453705 -0.207473
H1    H     H_    0.306910 0.424298 0.369852 0.132645
H2    H     H_    0.693089 0.575702 0.630148 0.132645
H3    H     H_    0.751137 0.349122 0.409283 0.139551
H4    H     H_    0.248863 0.650878 0.590717 0.139551
H5    H     H_    0.578857 0.397647 0.492030 0.142297
H6    H     H_    0.421143 0.602353 0.507970 0.142297
H7    H     H_    0.557713 0.480295 0.572635 0.142428
H8    H     H_    0.442287 0.519705 0.427365 0.142429
C25   C     C_R   0.951035 0.913805 0.662843 -0.117867
C26   C     C_R   0.048965 0.086195 0.337157 -0.117875
C27   C     C_R   0.889162 0.033703 0.661098 -0.153719
C28   C     C_R   0.110837 0.966297 0.338902 -0.153721
C29   C     C_R   0.900521 0.975519 0.690408 -0.129088
C30   C     C_R   0.099478 0.024481 0.309592 -0.129058
C31   C     C_R   0.989765 0.910661 0.604916 -0.243083
C32   C     C_R   0.010235 0.089339 0.395084 -0.243086
C33   C     C_R   0.976300 0.969442 0.573607 0.112512
C34   C     C_R   0.023700 0.030558 0.426393 0.112514
C35   C     C_R   0.925304 0.031252 0.603283 0.165491
C36   C     C_R   0.074695 0.968748 0.396717 0.165487
C37   C     C_R   0.009308 0.969228 0.514165 0.062756
C38   C     C_R   0.990692 0.030772 0.485835 0.062757
C39   C     C_R   0.940206 0.090424 0.517926 -0.197246
C40   C     C_R   0.059794 0.909576 0.482073 -0.197246
C41   C     C_R   0.908673 0.090458 0.575228 -0.225621
C42   C     C_R   0.091326 0.909542 0.424772 -0.225617
H9    H     H_    0.869688 0.137675 0.597908 0.137308
H10   H     H_    0.130311 0.862325 0.402092 0.137309
H11   H     H_    0.974064 0.138366 0.414352 0.101317
H12   H     H_    0.025936 0.861634 0.585648 0.101317
H13   H     H_    0.131179 0.021423 0.265182 0.149297
H14   H     H_    0.868819 0.978577 0.734817 0.149276
H15   H     H_    0.849664 0.080894 0.683700 0.137394
H16   H     H_    0.150334 0.919106 0.316300 0.137398
H17   H     H_    0.923242 0.138451 0.499961 0.131336
H18   H     H_    0.076757 0.861549 0.500038 0.131336
C43   C     C_R   0.485368 0.587197 0.837055 -0.248577
C44   C     C_R   0.514624 0.412801 0.162942 -0.248569
C45   C     C_R   0.584098 0.470256 0.837833 -0.137533
C46   C     C_R   0.415813 0.529732 0.162153 -0.137532
C47   C     C_R   0.535063 0.526101 0.808382 -0.219949
C48   C     C_R   0.464871 0.473894 0.191609 -0.219943
C49   C     C_R   0.476624 0.591997 0.896439 0.269672
C50   C     C_R   0.523396 0.407998 0.103559 0.269725
C51   C     C_R   0.503203 0.532437 0.926749 -0.043291
C52   C     C_R   0.496773 0.467551 0.073242 -0.043302
C53   C     C_R   0.573118 0.473308 0.896457 0.142447
C54   C     C_R   0.426817 0.526677 0.103530 0.142439
C55   C     C_R   0.468956 0.529116 0.985803 0.068037
C56   C     C_R   0.531012 0.470869 0.014186 0.068008
C57   C     C_R   0.632218 0.419381 0.983009 -0.085864
C58   C     C_R   0.367729 0.580602 0.016976 -0.085843
C59   C     C_R   0.641531 0.418586 0.925018 -0.194810
C60   C     C_R   0.358387 0.581395 0.074966 -0.194774
H19   H     H_    0.709763 0.375636 0.902443 0.149647
H20   H     H_    0.290127 0.624342 0.097538 0.149643
H21   H     H_    0.453275 0.477265 0.236950 0.123438
H22   H     H_    0.546633 0.522732 0.763040 0.123433
H23   H     H_    0.633583 0.424622 0.814665 0.127862
H24   H     H_    0.366289 0.575364 0.185317 0.127865
H25   H     H_    0.707877 0.379077 0.002498 0.183460
H26   H     H_    0.292078 0.620906 0.997482 0.183413
C61   C     C_R   0.681730 0.072066 0.105399 -0.157774
C62   C     C_R   0.318280 0.927944 0.894593 -0.157837
C63   C     C_R   0.530509 0.118943 0.116323 -0.172354
C64   C     C_R   0.469485 0.881051 0.883679 -0.172315
C65   C     C_R   0.367780 0.117826 0.080572 -0.111260
C66   C     C_R   0.632185 0.882143 0.919448 -0.111219
C67   C     C_R   0.356658 0.071471 0.033754 0.145639
C68   C     C_R   0.643303 0.928496 0.966267 0.145686
C69   C     C_R   0.506624 0.023460 0.023538 0.068804
C70   C     C_R   0.493350 0.976517 0.976475 0.068857
C71   C     C_R   0.668999 0.022269 0.060512 0.003158
C72   C     C_R   0.330989 0.977721 0.939494 0.003124
C73   C     C_R   0.197939 0.073122 0.996766 -0.285775
C74   C     C_R   0.802004 0.926836 0.003262 -0.285700
C75   C     C_R   0.185027 0.028048 0.949058 0.331824
C76   C     C_R   0.814941 0.971929 0.050959 0.331786
H27   H     H_    0.808128 0.074740 0.132507 0.168707
H28   H     H_    0.191913 0.925297 0.867464 0.168687
H29   H     H_    0.251274 0.154211 0.088515 0.146230
H30   H     H_    0.748673 0.845743 0.911515 0.146225
N1    N     N_R   0.522627 0.342046 0.075133 0.204403
O21   O     O_R   0.381628 0.325123 0.040757 -0.391689
O22   O     O_R   0.656451 0.297624 0.085635 -0.424536
N2    N     N_R   0.477488 0.657944 0.924874 0.204428
O23   O     O_R   0.343782 0.702404 0.914360 -0.424588
O24   O     O_R   0.618481 0.674829 0.959267 -0.391679
H31   H     H_    0.085398 0.111120 0.004203 0.184523
H32   H     H_    0.914516 0.888822 0.995836 0.184540
N3    N     N_R   0.027642 0.036386 0.909879 0.231928
O25   O     O_R   0.860367 0.057989 0.928027 -0.409204
O26   O     O_R   0.061004 0.036872 0.856420 -0.412297
N4    N     N_R   0.972307 0.963590 0.090144 0.231929
O27   O     O_R   0.139524 0.941902 0.072013 -0.409127
O28   O     O_R   0.938941 0.963186 0.143607 -0.412357

loop_
_geom_bond_atom_site_label_1
_geom_bond_atom_site_label_2
_geom_bond_distance
_ccdc_geom_bond_type
C26   C30   1.395127 A    
C34   C36   1.419290 A    
C46   C54   1.399648 A    
C58   H26   1.076152 S    
C54   C60   1.392986 A    
C61   C71   1.413067 A    
O13   V3    1.704710 S    
C17   C18   1.414587 A    
O4    C2    1.296600 A    
V1    O19   1.707049 S    
C2    C44   1.469167 S    
C31   C33   1.429518 A    
C55   C56   1.435224 A    
C43   C49   1.416341 A    
C15   C17   1.411158 A    
C1    C43   1.469161 S    
C75   N3    1.439440 S    
C16   C22   1.403709 A    
O9    V1    1.992808 S    
C42   H10   1.084371 S    
C74   H32   1.084271 S    
C11   C13   1.408485 A    
O3    C1    1.296597 A    
C67   C69   1.411297 A    
C65   H29   1.084704 S    
C13   H3    1.084290 S    
C73   C75   1.404688 A    
C14   H4    1.084291 S    
C52   C56   1.439431 A    
C29   H14   1.083737 S    
C36   C42   1.394739 A    
C57   H25   1.076129 S    
C28   C30   1.391823 A    
C32   H11   1.077180 S    
O7    C3    1.300728 A    
C52   C54   1.420506 A    
C27   C35   1.404212 A    
O5    C7    1.297463 A    
C28   H16   1.083971 S    
O7    V1    1.995369 S    
O6    C8    1.297463 A    
C8    C11   1.484868 S    
O8    V2    1.995370 S    
C33   C35   1.419288 A    
C45   C53   1.399652 A    
C47   H22   1.083971 S    
C25   C31   1.410052 A    
C38   C39   1.410496 A    
C35   C41   1.394738 A    
V4    O20   2.151329 S    
C19   C24   1.403558 A    
O14   V2    2.155003 S    
C3    C64   1.484046 S    
C20   C23   1.403558 A    
C15   C21   1.403707 A    
C21   C23   1.400133 A    
C23   H7    1.083585 S    
C21   H5    1.083622 S    
C2    O12   1.292339 A    
C26   C32   1.410051 A    
C17   C19   1.411837 A    
C22   H6    1.083622 S    
C18   C20   1.411839 A    
C62   C64   1.405745 A    
C70   C72   1.419946 A    
O11   V3    1.995641 S    
C39   H17   1.076345 S    
C69   C71   1.419902 A    
O17   V3    1.995154 S    
C22   C24   1.400133 A    
C10   H2    1.084336 S    
C27   C29   1.391821 A    
C9    C19   1.405889 A    
C30   H13   1.083739 S    
C50   N1    1.436831 S    
C10   C20   1.405891 A    
C40   C42   1.388645 A    
C44   C48   1.394741 A    
C39   C41   1.388648 A    
C43   C47   1.394753 A    
N2    O24   1.301392 A    
C1    O11   1.292342 A    
C65   C67   1.402998 A    
O15   V3    1.999800 S    
C76   N4    1.439448 S    
C32   C34   1.429517 A    
C37   C40   1.410497 A    
C60   H20   1.084347 S    
C62   C72   1.413045 A    
C49   C51   1.435660 A    
C69   C70   1.415385 A    
O10   V2    1.992809 S    
C5    C25   1.478853 S    
O1    V3    1.992143 S    
C66   H30   1.084768 S    
C61   C63   1.405677 A    
C68   C74   1.400760 A    
O3    V1    1.994663 S    
C40   H18   1.076345 S    
O14   V4    1.704710 S    
C6    C26   1.478854 S    
C57   C59   1.385582 A    
C46   C48   1.386829 A    
O18   V4    1.995154 S    
C45   C47   1.386837 A    
C61   H27   1.081034 S    
O16   C6    1.297188 A    
O1    C3    1.297750 A    
C41   H9    1.084372 S    
O12   V4    1.995641 S    
N1    O21   1.301346 A    
C51   C55   1.439411 A    
C55   C58   1.408425 A    
C74   C76   1.404700 A    
C58   C60   1.385571 A    
V2    O20   1.707050 S    
C24   H8    1.083585 S    
O10   C6    1.298168 A    
O16   V4    1.999798 S    
V3    O19   2.151331 S    
C27   H15   1.083973 S    
C48   H21   1.083965 S    
C16   C18   1.411158 A    
N1    O22   1.301258 A    
C64   C66   1.403305 A    
N3    O25   1.301146 A    
C25   C29   1.395129 A    
N2    O23   1.301260 A    
O5    V1    1.991839 S    
C7    C12   1.484868 S    
O17   C7    1.300930 A    
C4    C63   1.484060 S    
O6    V2    1.991837 S    
C73   H31   1.084222 S    
O18   C8    1.300931 A    
C59   H19   1.084345 S    
O2    V4    1.992142 S    
C72   C75   1.420001 A    
O15   C5    1.297187 A    
C67   C73   1.400739 A    
C71   C76   1.420032 A    
C13   C15   1.404996 A    
C44   C50   1.416317 A    
C12   C14   1.408485 A    
C14   C16   1.404994 A    
N3    O26   1.301351 A    
C9    C11   1.407967 A    
C50   C52   1.435676 A    
C34   C38   1.440670 A    
C49   N2    1.436848 S    
C33   C37   1.440670 A    
O9    C5    1.298169 A    
O13   V1    2.155003 S    
C66   C68   1.402999 A    
C10   C12   1.407967 A    
C37   C38   1.439853 A    
O2    C4    1.297749 A    
C68   C70   1.411339 A    
C62   H28   1.081126 S    
O4    V2    1.994661 S    
C46   H24   1.084032 S    
C45   H23   1.084036 S    
C28   C36   1.404208 A    
C51   C53   1.420488 A    
C56   C57   1.408434 A    
N4    O27   1.301143 A    
C9    H1    1.084338 S    
N4    O28   1.301334 A    
C53   C59   1.392979 A    
O8    C4    1.300732 A    
C63   C65   1.403224 A    
C31   H12   1.077180 S    
