data_mof_unit_37838.cif
_audit_creation_date              2012-12-10T19:16:51-0500
_audit_creation_method            fapswitch 2.2
_symmetry_space_group_name_H-M    P1
_symmetry_Int_Tables_number       1
_space_group_crystal_system       triclinic
_cell_length_a                    15.977356
_cell_length_b                    14.725419
_cell_length_c                    10.826573
_cell_angle_alpha                 90.218646
_cell_angle_beta                  90.365516
_cell_angle_gamma                 90.227295
_cell_volume                      2547.11247256

loop_
_atom_site_label
_atom_site_type_symbol
_atom_type_description
_atom_site_fract_x
_atom_site_fract_y
_atom_site_fract_z
_atom_type_partial_charge
C1    C     C_R   0.340792 0.499956 0.499570 0.798744
C2    C     C_3   0.581642 0.449869 0.933185 0.847247
C3    C     C_R   0.956782 0.583670 0.486221 -0.186902
C4    C     C_R   0.955813 0.419324 0.503439 -0.174051
C5    C     C_R   0.912722 0.501550 0.493682 0.153576
C6    C     C_R   0.043040 0.419215 0.506342 -0.191167
C7    C     C_R   0.044116 0.583528 0.488797 -0.175552
C8    C     C_R   0.087164 0.501300 0.499116 0.161179
C9    C     C_1   0.823276 0.501544 0.493890 -0.082202
C10   C     C_1   0.176633 0.500921 0.500549 -0.092797
C11   C     C_1   0.251701 0.500190 0.500529 -0.193333
C12   C     C_1   0.748235 0.500942 0.495458 -0.191039
C13   C     C_R   0.577266 0.951840 0.498869 0.327200
C14   C     C_R   0.577183 0.048214 0.502037 0.324562
C15   C     C_R   0.497875 0.500155 0.259623 0.890042
C16   C     C_R   0.500894 0.902756 0.497505 -0.251264
C17   C     C_R   0.501071 0.096978 0.499684 -0.271153
C18   C     C_R   0.424992 0.951223 0.496794 0.291851
C19   C     C_R   0.425150 0.047889 0.490921 0.317903
C20   C     C_1   0.500174 0.802657 0.497582 0.261622
C21   C     C_1   0.500633 0.197253 0.499935 0.255630
C22   C     C_R   0.659163 0.500235 0.497941 0.808972
C23   C     C_R   0.501111 0.500301 0.741064 0.865440
C24   C     C_3   0.509784 0.600477 0.070706 0.208566
C25   C     C_3   0.418016 0.451437 0.070229 0.221860
C26   C     C_3   0.502156 0.603179 0.928068 0.190472
C27   C     C_3   0.415712 0.459815 0.927093 0.111455
C28   C     C_3   0.573878 0.444267 0.077404 -0.623527
C29   C     C_3   0.497389 0.500873 0.122751 -0.206452
C30   C     C_3   0.501053 0.501265 0.879219 -0.203541
Cu1   Cu    Cu3+1 0.500000 0.589220 0.500040 0.981482
Cu2   Cu    Cu3+1 0.500000 0.410780 0.500040 0.959014
H1    H     H_    0.577085 0.614683 0.090365 0.176743
H2    H     H_    0.425256 0.378518 0.095574 0.119328
H3    H     H_    0.442350 0.634403 0.898888 0.077693
H4    H     H_    0.364890 0.509233 0.905173 0.100576
H5    H     H_    0.631978 0.471442 0.121896 0.192190
H6    H     H_    0.571535 0.374251 0.113890 0.177079
H7    H     H_    0.077995 0.647238 0.482783 0.134614
H8    H     H_    0.076009 0.355299 0.513766 0.142432
H9    H     H_    0.923722 0.647525 0.478609 0.137580
H10   H     H_    0.922022 0.355549 0.509376 0.138733
N1    N     N_1   0.499980 0.276710 0.500040 -0.178218
N2    N     N_1   0.499980 0.723290 0.500040 -0.172318
O1    O     O_R   0.380310 0.575320 0.500060 -0.580433
O2    O     O_R   0.380310 0.424680 0.500060 -0.597720
O3    O     O_R   0.499990 0.575340 0.317720 -0.540312
O4    O     O_R   0.499990 0.424660 0.317720 -0.601968
O5    O     O_R   0.619690 0.575360 0.500000 -0.572104
O6    O     O_R   0.619690 0.424640 0.500000 -0.571832
O7    O     O_R   0.500010 0.575340 0.682340 -0.566844
O8    O     O_R   0.500010 0.424660 0.682340 -0.551640
O9    O     O_3   0.350265 0.903352 0.491679 -0.611489
C31   C     C_3   0.308936 0.907982 0.606874 0.111700
H11   H     H_    0.247758 0.942088 0.592403 0.165513
H12   H     H_    0.343269 0.947413 0.679693 0.125106
C32   C     C_3   0.293210 0.811506 0.653651 -0.340346
H13   H     H_    0.253095 0.774109 0.586159 0.227268
H14   H     H_    0.353666 0.775051 0.661766 0.220870
C33   C     C_3   0.250620 0.811924 0.779437 -0.957092
H15   H     H_    0.290145 0.848101 0.848760 0.260287
H16   H     H_    0.241130 0.740962 0.810943 0.255454
H17   H     H_    0.188737 0.845728 0.772980 0.262116
O10   O     O_3   0.350515 0.095054 0.480749 -0.608108
C34   C     C_3   0.319531 0.089253 0.357865 0.098690
H18   H     H_    0.251241 0.102915 0.360781 0.157915
H19   H     H_    0.326435 0.020224 0.316570 0.162812
C35   C     C_3   0.360799 0.160625 0.274678 -0.373361
H20   H     H_    0.352685 0.229283 0.315799 0.228888
H21   H     H_    0.428795 0.146578 0.267136 0.214405
C36   C     C_3   0.323009 0.159382 0.144887 -0.967073
H22   H     H_    0.329134 0.090806 0.102856 0.265868
H23   H     H_    0.356796 0.208789 0.085912 0.256895
H24   H     H_    0.255849 0.178433 0.147961 0.257321
O11   O     O_3   0.469751 0.674806 0.131393 -0.618858
C37   C     C_3   0.381556 0.672485 0.133167 0.143284
H25   H     H_    0.360849 0.632470 0.214133 0.213786
H26   H     H_    0.353503 0.644997 0.046854 0.140595
C38   C     C_3   0.349554 0.769233 0.151727 -0.370001
H27   H     H_    0.376268 0.797797 0.238754 0.253953
H28   H     H_    0.370267 0.812654 0.073959 0.214592
C39   C     C_3   0.254236 0.771379 0.158922 -0.913882
H29   H     H_    0.226083 0.744824 0.071854 0.254916
H30   H     H_    0.233145 0.842433 0.172788 0.261176
H31   H     H_    0.232164 0.729726 0.237734 0.258774
O12   O     O_3   0.343418 0.487420 0.120817 -0.663638
C40   C     C_3   0.290051 0.418927 0.166921 0.021551
H32   H     H_    0.312660 0.397402 0.259535 0.165572
H33   H     H_    0.287702 0.358478 0.105214 0.158840
C41   C     C_3   0.201608 0.456947 0.177570 -0.329905
H34   H     H_    0.201348 0.513602 0.245435 0.224485
H35   H     H_    0.181226 0.484822 0.087102 0.216046
C42   C     C_3   0.139792 0.383499 0.216972 -0.904621
H36   H     H_    0.135664 0.329432 0.145314 0.248634
H37   H     H_    0.076798 0.413749 0.228841 0.266498
H38   H     H_    0.159993 0.352802 0.305771 0.258020
O13   O     O_3   0.569064 0.653517 0.873766 -0.569183
C43   C     C_3   0.569773 0.747228 0.905957 0.108188
H39   H     H_    0.630719 0.775105 0.874853 0.150694
H40   H     H_    0.569218 0.759184 0.007010 0.174738
C44   C     C_3   0.499972 0.801144 0.842182 -0.372356
H41   H     H_    0.499253 0.784610 0.742590 0.224242
H42   H     H_    0.438159 0.783039 0.880949 0.212081
C45   C     C_3   0.512894 0.903171 0.859586 -0.973089
H43   H     H_    0.511431 0.920844 0.959387 0.273921
H44   H     H_    0.462186 0.940630 0.811788 0.251416
H45   H     H_    0.573721 0.925119 0.820390 0.242979
O14   O     O_3   0.398316 0.373142 0.874158 -0.642457
C46   C     C_3   0.331110 0.373597 0.788141 0.130238
H46   H     H_    0.345705 0.322666 0.715517 0.191346
H47   H     H_    0.323270 0.439682 0.740145 0.106358
C47   C     C_3   0.249673 0.345597 0.851020 -0.391757
H48   H     H_    0.259610 0.281636 0.903198 0.228538
H49   H     H_    0.230743 0.399961 0.915861 0.223958
C48   C     C_3   0.178961 0.331211 0.757830 -0.915052
H50   H     H_    0.163854 0.396419 0.712334 0.266114
H51   H     H_    0.122188 0.306696 0.806262 0.256762
H52   H     H_    0.196828 0.280149 0.687055 0.261383
O15   O     O_3   0.652149 0.508950 0.915135 -0.616511
C49   C     C_3   0.710667 0.482921 0.824087 0.164537
H53   H     H_    0.738739 0.546157 0.786943 0.152350
H54   H     H_    0.681735 0.447698 0.743543 0.155600
C50   C     C_3   0.780693 0.426519 0.882781 -0.362605
H55   H     H_    0.806172 0.463132 0.964842 0.224489
H56   H     H_    0.755523 0.360195 0.914126 0.235696
C51   C     C_3   0.851624 0.409868 0.792015 -0.925996
H57   H     H_    0.827375 0.375502 0.707584 0.263863
H58   H     H_    0.899721 0.365902 0.835477 0.261025
H59   H     H_    0.881464 0.475268 0.766093 0.267579
O16   O     O_3   0.597159 0.363750 0.873521 -0.641969
C52   C     C_3   0.552360 0.285620 0.911247 0.094868
H60   H     H_    0.519167 0.257758 0.828839 0.197695
H61   H     H_    0.504919 0.296903 0.982214 0.163080
C53   C     C_3   0.613603 0.213821 0.957567 -0.417458
H62   H     H_    0.657667 0.196341 0.882612 0.226192
H63   H     H_    0.650218 0.241180 0.037075 0.229152
C54   C     C_3   0.567762 0.127746 0.997256 -0.912400
H64   H     H_    0.525453 0.142659 0.075694 0.264910
H65   H     H_    0.613904 0.075928 0.027008 0.267575
H66   H     H_    0.530440 0.099771 0.918923 0.256628
O17   O     O_3   0.652663 0.093922 0.493777 -0.567558
C55   C     C_3   0.679577 0.120686 0.613130 0.070992
H67   H     H_    0.664894 0.068940 0.685029 0.108055
H68   H     H_    0.648977 0.185672 0.639103 0.153278
C56   C     C_3   0.774356 0.135117 0.610547 -0.301788
H69   H     H_    0.805005 0.071567 0.578905 0.228494
H70   H     H_    0.789656 0.190025 0.544085 0.221998
C57   C     C_3   0.809046 0.160690 0.737554 -0.969788
H71   H     H_    0.780488 0.224893 0.769934 0.268440
H72   H     H_    0.877835 0.170642 0.731871 0.262701
H73   H     H_    0.795869 0.105985 0.805156 0.258805
O18   O     O_3   0.652265 0.907133 0.479855 -0.565504
C58   C     C_3   0.680613 0.867290 0.591022 0.053797
H74   H     H_    0.629108 0.836128 0.645128 0.135833
H75   H     H_    0.712107 0.919539 0.649412 0.137599
C59   C     C_3   0.743674 0.792947 0.559739 -0.300489
H76   H     H_    0.715263 0.744998 0.491716 0.242995
H77   H     H_    0.799997 0.824165 0.517324 0.213505
C60   C     C_3   0.769820 0.739874 0.674325 -0.935327
H78   H     H_    0.796607 0.786358 0.745418 0.252286
H79   H     H_    0.817780 0.688836 0.649151 0.253649
H80   H     H_    0.714976 0.703576 0.713044 0.279790

loop_
_geom_bond_atom_site_label_1
_geom_bond_atom_site_label_2
_ccdc_geom_bond_type
C40   H32   S    
C42   H36   S    
C1    C11   S    
C57   H73   S    
C15   O3    A    
C52   C53   S    
C53   C54   S    
C47   H49   S    
O13   C43   S    
C41   H34   S    
C50   H55   S    
O9    C31   S    
C54   H65   S    
C51   H57   S    
C33   H17   S    
C37   H26   S    
C28   C29   S    
C57   H72   S    
C3    C7    A    
C46   H47   S    
C56   H69   S    
C1    O2    A    
C50   H56   S    
C48   H50   S    
C12   C22   S    
O14   C46   S    
C47   C48   S    
C33   H16   S    
C18   C19   A    
C24   C29   S    
C45   H43   S    
C18   O9    S    
C20   N2    T    
C21   N1    T    
C23   O7    A    
Cu2   O8    S    
C60   H78   S    
C28   H5    S    
C35   H20   S    
C34   H19   S    
C60   H79   S    
C58   H75   S    
C49   C50   S    
C25   H2    S    
C22   O6    A    
C34   C35   S    
C14   O17   S    
C42   H37   S    
Cu1   O3    S    
C13   C14   A    
C27   C30   S    
Cu2   O4    S    
C55   C56   S    
C15   O4    A    
Cu1   O5    S    
C45   H44   S    
C47   H48   S    
C56   H70   S    
C44   H41   S    
C49   H54   S    
C15   C29   S    
C32   H13   S    
C25   C29   S    
C54   H66   S    
C31   H12   S    
Cu1   N2    S    
C23   C30   S    
C7    C8    A    
C57   H71   S    
C4    C6    A    
O15   C49   S    
C46   C47   S    
C36   H23   S    
O12   C40   S    
C17   C19   A    
C32   C33   S    
C53   H63   S    
C51   H59   S    
C48   H51   S    
C39   H29   S    
C17   C21   S    
C50   C51   S    
C33   H15   S    
C59   H76   S    
O11   C37   S    
C5    C9    S    
C36   H24   S    
C41   H35   S    
Cu1   Cu2   S    
C28   H6    S    
C19   O10   S    
C16   C20   S    
C48   H52   S    
C60   H80   S    
C37   H25   S    
C58   C59   S    
Cu2   O6    S    
C22   O5    A    
C16   C18   A    
C26   C30   S    
C42   H38   S    
C39   H30   S    
C40   H33   S    
C55   H68   S    
C40   C41   S    
C52   H60   S    
C43   C44   S    
C3    C5    A    
C56   C57   S    
C49   H53   S    
C41   C42   S    
C38   H28   S    
C44   H42   S    
C31   H11   S    
C3    H9    S    
C51   H58   S    
Cu2   O2    S    
C59   C60   S    
C24   C26   S    
C13   O18   S    
Cu1   O7    S    
C4    C5    A    
C52   H61   S    
C38   C39   S    
C6    C8    A    
C2    O15   S    
C24   O11   S    
C53   H62   S    
C27   H4    S    
C25   C27   S    
C39   H31   S    
C54   H64   S    
C43   H40   S    
C24   H1    S    
C2    C30   S    
O10   C34   S    
C59   H77   S    
O16   C52   S    
C36   H22   S    
C46   H46   S    
C1    O1    A    
C23   O8    A    
C4    H10   S    
C27   O14   S    
C35   C36   S    
C25   O12   S    
C2    O16   S    
Cu2   N1    S    
C6    H8    S    
C34   H18   S    
C9    C12   T    
C32   H14   S    
C10   C11   T    
C26   O13   S    
C38   H27   S    
C26   H3    S    
C37   C38   S    
O18   C58   S    
C8    C10   S    
C43   H39   S    
Cu1   O1    S    
C13   C16   A    
C35   H21   S    
C7    H7    S    
C55   H67   S    
C2    C28   S    
C44   C45   S    
C58   H74   S    
O17   C55   S    
C45   H45   S    
C31   C32   S    
C14   C17   A    
