data_mof_unit_35731.cif
_audit_creation_date              2012-12-10T18:49:55-0500
_audit_creation_method            fapswitch 2.2
_symmetry_space_group_name_H-M    P1
_symmetry_Int_Tables_number       1
_space_group_crystal_system       triclinic
_cell_length_a                    10.748698
_cell_length_b                    9.963625
_cell_length_c                    10.998623
_cell_angle_alpha                 89.561783
_cell_angle_beta                  94.369165
_cell_angle_gamma                 90.2563
_cell_volume                      1174.44206845

loop_
_atom_site_label
_atom_site_type_symbol
_atom_type_description
_atom_site_fract_x
_atom_site_fract_y
_atom_site_fract_z
_atom_type_partial_charge
C1    C     C_R   0.262160 0.499448 0.515852 0.865346
C2    C     C_3   0.629235 0.453189 0.941772 0.473210
C3    C     C_R   0.063358 0.375145 0.545581 0.161669
C4    C     C_R   0.064989 0.621603 0.545835 0.128624
C5    C     C_R   0.935660 0.378396 0.522564 -0.102072
C6    C     C_R   0.937753 0.620363 0.519386 -0.115235
C7    C     C_R   0.873447 0.499773 0.507552 -0.092552
C8    C     C_R   0.130993 0.498377 0.540981 0.015421
C9    C     C_R   0.590609 0.071611 0.565763 0.369370
C10   C     C_R   0.592391 0.929235 0.563630 0.351482
C11   C     C_R   0.410200 0.928681 0.431619 0.200606
C12   C     C_R   0.410318 0.071822 0.431203 0.176554
C13   C     C_R   0.495525 0.501283 0.257698 0.987579
C14   C     C_R   0.739900 0.500158 0.498758 1.000936
C15   C     C_R   0.499680 0.500116 0.742249 1.074813
C16   C     C_3   0.449356 0.651583 0.066228 0.384846
C17   C     C_3   0.397513 0.390056 0.063695 0.361845
C18   C     C_3   0.473238 0.655907 0.925104 0.347312
C19   C     C_3   0.384881 0.404123 0.918440 0.357877
C20   C     C_3   0.632320 0.474320 0.085094 0.544155
C21   C     C_3   0.492647 0.504818 0.120858 -0.358824
C22   C     C_3   0.496775 0.502233 0.878816 -0.381926
H1    H     H_    0.884534 0.284563 0.520208 0.223220
H2    H     H_    0.888689 0.714795 0.513345 0.228279
N1    N     N_R   0.499970 0.857200 0.499970 -0.142354
N2    N     N_R   0.499970 0.142800 0.499970 -0.162812
O1    O     O_R   0.316750 0.614620 0.499990 -0.652978
O2    O     O_R   0.316750 0.385380 0.499990 -0.672660
O3    O     O_R   0.499970 0.614670 0.314790 -0.574058
O4    O     O_R   0.499970 0.385330 0.314790 -0.561118
O5    O     O_R   0.683220 0.614710 0.500010 -0.570307
O6    O     O_R   0.683220 0.385290 0.500010 -0.571850
O7    O     O_R   0.500010 0.614660 0.685200 -0.579773
O8    O     O_R   0.500010 0.385340 0.685200 -0.594271
Zn1   Zn    Zn3+2 0.499980 0.653120 0.500000 1.048925
Zn2   Zn    Zn3+2 0.499980 0.346880 0.500000 1.038674
Cl1   Cl    Cl    0.526734 0.796103 0.144058 -0.500260
Cl2   Cl    Cl    0.458252 0.224323 0.106987 -0.525458
C23   C     C_3   0.314256 0.858380 0.349086 -0.741463
H3    H     H_    0.330954 0.752189 0.344646 0.285652
H4    H     H_    0.219278 0.877125 0.376442 0.206663
H5    H     H_    0.319458 0.894815 0.255011 0.251578
C24   C     C_3   0.310945 0.143291 0.352154 -0.719705
H6    H     H_    0.330637 0.248776 0.343684 0.292213
H7    H     H_    0.305446 0.107000 0.257482 0.259068
H8    H     H_    0.218690 0.127963 0.387626 0.203804
C25   C     C_3   0.310990 0.682703 0.088607 -0.679017
H9    H     H_    0.291286 0.791703 0.080075 0.274912
H10   H     H_    0.241971 0.641571 0.021319 0.293712
H11   H     H_    0.286214 0.646912 0.178660 0.183856
C26   C     C_3   0.267060 0.384281 0.119116 -0.739142
H12   H     H_    0.224379 0.282914 0.107972 0.269061
H13   H     H_    0.273583 0.408414 0.217095 0.185197
H14   H     H_    0.193677 0.450238 0.078487 0.272895
Cl3   Cl    Cl    0.346651 0.742476 0.836878 -0.588033
Cl4   Cl    Cl    0.235813 0.469088 0.855913 -0.602144
C27   C     C_3   0.582072 0.755957 0.901211 -0.513657
H15   H     H_    0.665485 0.746823 0.963957 0.286307
H16   H     H_    0.615492 0.746731 0.811333 0.278178
H17   H     H_    0.552706 0.862447 0.908303 0.282104
C28   C     C_3   0.369993 0.261458 0.858568 -0.561147
H18   H     H_    0.450312 0.193871 0.868419 0.283564
H19   H     H_    0.293044 0.206025 0.899259 0.244695
H20   H     H_    0.340876 0.265608 0.760569 0.222989
Cl5   Cl    Cl    0.741384 0.601495 0.141052 -0.475562
Cl6   Cl    Cl    0.710341 0.337848 0.170572 -0.368148
Cl7   Cl    Cl    0.760811 0.529722 0.874591 -0.464291
Cl8   Cl    Cl    0.663164 0.282609 0.907277 -0.371710
C29   C     C_3   0.114080 0.239617 0.587871 -0.784869
H21   H     H_    0.215507 0.230113 0.601180 0.250737
H22   H     H_    0.077557 0.215136 0.677249 0.282550
H23   H     H_    0.079059 0.160775 0.523145 0.220981
C30   C     C_3   0.118140 0.754572 0.591033 -0.688766
H24   H     H_    0.218395 0.755359 0.618587 0.299536
H25   H     H_    0.096656 0.834052 0.521866 0.199328
H26   H     H_    0.071475 0.783141 0.673736 0.284303
Cl9   Cl    Cl    0.709203 0.156567 0.652142 -0.449725
Cl10  Cl    Cl    0.722360 0.848420 0.636221 -0.548742

loop_
_geom_bond_atom_site_label_1
_geom_bond_atom_site_label_2
_ccdc_geom_bond_type
C19   Cl4   S    
C16   C21   S    
C29   H23   S    
C1    C8    S    
C30   H24   S    
C14   O5    A    
C4    C8    A    
C17   C26   S    
C10   Cl10  S    
C23   H4    S    
O6    Zn2   S    
C20   Cl6   S    
C3    C29   S    
C12   C24   S    
C2    Cl8   S    
C27   H16   S    
C11   N1    A    
C28   H19   S    
C29   H22   S    
O7    Zn1   S    
C7    C14   S    
C2    C22   S    
C1    O2    A    
C23   H5    S    
C9    C10   A    
C15   O8    A    
C16   Cl1   S    
C30   H25   S    
C29   H21   S    
C16   C25   S    
C9    N2    A    
C25   H11   S    
C15   C22   S    
C2    C20   S    
C26   H12   S    
C20   Cl5   S    
C19   C22   S    
C25   H10   S    
C3    C8    A    
C23   H3    S    
C5    C7    A    
C27   H17   S    
O1    Zn1   S    
C17   C21   S    
C12   N2    A    
C26   H13   S    
C28   H20   S    
C24   H6    S    
C13   O4    A    
C18   C27   S    
C25   H9    S    
C5    H1    S    
C6    H2    S    
C13   C21   S    
C9    Cl9   S    
C11   C23   S    
C24   H7    S    
C4    C30   S    
C18   Cl3   S    
N1    Zn1   S    
C10   N1    A    
C4    C6    A    
C2    Cl7   S    
C30   H26   S    
O5    Zn1   S    
C13   O3    A    
N2    Zn2   S    
C18   C22   S    
C14   O6    A    
C3    C5    A    
C11   C12   A    
C6    C7    A    
O3    Zn1   S    
O4    Zn2   S    
C26   H14   S    
C27   H15   S    
C19   C28   S    
C17   C19   S    
O8    Zn2   S    
C17   Cl2   S    
C28   H18   S    
C24   H8    S    
C20   C21   S    
O2    Zn2   S    
C16   C18   S    
C1    O1    A    
C15   O7    A    
