data_mof_unit_15851.cif
_audit_creation_date              2012-12-10T20:35:49-0500
_audit_creation_method            fapswitch 2.2
_symmetry_space_group_name_H-M    P1
_symmetry_Int_Tables_number       1
_space_group_crystal_system       triclinic
_cell_length_a                    15.742081
_cell_length_b                    10.692214
_cell_length_c                    9.887541
_cell_angle_alpha                 89.66434
_cell_angle_beta                  91.580556
_cell_angle_gamma                 90.543184
_cell_volume                      1663.51411981

loop_
_atom_site_label
_atom_site_type_symbol
_atom_type_description
_atom_site_fract_x
_atom_site_fract_y
_atom_site_fract_z
_atom_type_partial_charge
C1    C     C_R   0.502813 0.259945 0.500369 0.883849
C2    C     C_3   0.953312 0.469678 0.653440 0.610706
C3    C     C_3   0.917173 0.491652 0.505316 -0.061557
C4    C     C_3   0.950638 0.618892 0.450927 -0.447883
C5    C     C_3   0.047785 0.614801 0.437295 0.231898
C6    C     C_1   0.825558 0.496228 0.506905 0.184339
C7    C     C_1   0.174166 0.488771 0.493090 0.180330
C8    C     C_1   0.249455 0.493045 0.494618 -0.061407
C9    C     C_R   0.519266 0.062968 0.623238 0.098212
C10   C     C_R   0.517023 0.128633 0.501232 -0.105211
C11   C     C_R   0.531342 0.065728 0.379849 -0.183950
C12   C     C_R   0.338322 0.498590 0.498381 0.882961
C13   C     C_R   0.531362 0.936318 0.379516 -0.166959
C14   C     C_R   0.517069 0.871424 0.500569 -0.173462
C15   C     C_R   0.519332 0.935138 0.623073 0.162880
C16   C     C_3   0.460321 0.926649 0.738884 0.244191
C17   C     C_3   0.460767 0.068224 0.739319 -0.553057
C18   C     C_R   0.427534 0.472449 0.067896 0.135260
C19   C     C_R   0.567898 0.543436 0.075861 -0.141822
C20   C     C_R   0.567934 0.545084 0.932657 0.463523
C21   C     C_R   0.427296 0.473456 0.925785 0.102085
C22   C     C_3   0.374372 0.357753 0.916296 0.253755
C23   C     C_R   0.502935 0.739978 0.499818 0.878529
C24   C     C_3   0.376020 0.354882 0.071314 0.130744
C25   C     C_R   0.661608 0.500432 0.501649 0.900286
C26   C     C_3   0.052783 0.466669 0.645326 0.123108
C27   C     C_3   0.045038 0.376095 0.404072 0.651002
C28   C     C_3   0.945087 0.385557 0.406672 0.075857
C29   C     C_1   0.750351 0.498848 0.505522 -0.077099
C30   C     C_3   0.082559 0.487047 0.494523 -0.135602
H1    H     H_    0.919141 0.642426 0.352087 0.267389
H2    H     H_    0.536330 0.115241 0.284442 0.183463
H3    H     H_    0.536355 0.888187 0.283980 0.207809
H4    H     H_    0.397492 0.884170 0.711218 0.107745
H5    H     H_    0.398043 0.108249 0.710137 0.164007
H6    H     H_    0.492681 0.109822 0.830304 0.237917
H7    H     H_    0.622824 0.577570 0.133029 0.199485
H8    H     H_    0.069102 0.369299 0.670342 0.197192
H9    H     H_    0.409296 0.280989 0.868158 0.038133
H10   H     H_    0.411738 0.274696 0.115874 0.078463
H11   H     H_    0.918560 0.294682 0.441433 0.194928
H12   H     H_    0.075991 0.694908 0.492330 0.114572
H13   H     H_    0.933987 0.695934 0.520266 0.202967
N1    N     N_R   0.499430 0.499140 0.142800 -0.159914
N2    N     N_R   0.499430 0.499180 0.857150 -0.177888
O1    O     O_R   0.500010 0.316790 0.614690 -0.625824
O2    O     O_R   0.500000 0.316760 0.385350 -0.625999
O3    O     O_R   0.377150 0.500020 0.614720 -0.595086
O4    O     O_R   0.377140 0.499990 0.385380 -0.557716
O5    O     O_R   0.500000 0.683240 0.614650 -0.569959
O6    O     O_R   0.499990 0.683210 0.385310 -0.612315
O7    O     O_R   0.622860 0.500010 0.614620 -0.550366
O8    O     O_R   0.622850 0.499980 0.385280 -0.627306
Zn1   Zn    Zn3+2 0.500010 0.500020 0.653130 1.043347
Zn2   Zn    Zn3+2 0.499990 0.499980 0.346870 1.005961
Cl1   Cl    Cl    0.912931 0.318814 0.713276 -0.638822
O9    O     O_3   0.099143 0.528734 0.752107 -0.575873
C31   C     C_3   0.105661 0.659784 0.741258 -0.134456
H14   H     H_    0.045777 0.705082 0.707474 0.170979
H15   H     H_    0.159615 0.686360 0.676883 0.137026
H16   H     H_    0.121182 0.697180 0.843458 0.211677
O10   O     O_3   0.925635 0.570074 0.735693 -0.639006
C32   C     C_3   0.927774 0.542520 0.875943 0.038179
H17   H     H_    0.934597 0.631548 0.932398 0.179714
H18   H     H_    0.981653 0.481845 0.908369 0.204674
H19   H     H_    0.866749 0.498255 0.904831 0.220009
Cl2   Cl    Cl    0.510310 0.861731 0.887112 -0.556909
Cl3   Cl    Cl    0.656970 0.613811 0.858546 -0.513557
O11   O     O_3   0.293547 0.385045 0.858246 -0.510907
C33   C     C_3   0.253112 0.273109 0.816307 -0.123102
H20   H     H_    0.259292 0.197112 0.893491 0.142372
H21   H     H_    0.278449 0.242627 0.718236 0.136417
H22   H     H_    0.184395 0.291020 0.800741 0.212756
Cl4   Cl    Cl    0.275723 0.380647 0.146029 -0.500002
O12   O     O_3   0.075533 0.390455 0.269883 -0.503502
C34   C     C_3   0.069066 0.280733 0.190309 0.073196
H23   H     H_    0.011844 0.222823 0.211308 0.164675
H24   H     H_    0.126887 0.223234 0.205923 0.188054
H25   H     H_    0.065427 0.308573 0.082041 0.178438
Cl5   Cl    Cl    0.078970 0.225492 0.474972 -0.699489
Cl6   Cl    Cl    0.895876 0.408664 0.240841 -0.599955
Cl7   Cl    Cl    0.077228 0.651045 0.266859 -0.489099

loop_
_geom_bond_atom_site_label_1
_geom_bond_atom_site_label_2
_ccdc_geom_bond_type
C5    H12   S    
C32   H18   S    
C18   C21   A    
C19   C20   A    
C34   H25   S    
C12   O3    A    
C3    C6    S    
C12   O4    A    
C7    C8    T    
O3    Zn1   S    
O5    Zn1   S    
C18   C24   S    
C3    C28   S    
C34   H24   S    
C1    O1    A    
C31   H15   S    
C15   C16   S    
C28   H11   S    
C19   H7    S    
C16   H4    S    
C16   C17   S    
C33   H20   S    
C17   H6    S    
C9    C10   A    
C22   O11   S    
C20   N2    A    
C31   H16   S    
C32   H19   S    
C7    C30   S    
C21   C22   S    
C27   C30   S    
C27   O12   S    
O7    Zn1   S    
C21   N2    A    
O8    Zn2   S    
C25   C29   S    
C34   H23   S    
C27   Cl5   S    
C26   H8    S    
C23   O5    A    
C31   H14   S    
O4    Zn2   S    
C14   C23   S    
O12   C34   S    
C13   H3    S    
O10   C32   S    
C18   N1    A    
C23   O6    A    
C8    C12   S    
O1    Zn1   S    
C33   H22   S    
C2    C26   S    
C16   Cl2   S    
C9    C17   S    
N2    Zn1   S    
C26   C30   S    
C22   C24   S    
C3    C4    S    
C19   N1    A    
O2    Zn2   S    
C5    C30   S    
C28   Cl6   S    
C20   Cl3   S    
C1    O2    A    
C1    C10   S    
C25   O8    A    
C4    C5    S    
C11   H2    S    
C4    H13   S    
C2    C3    S    
C9    C15   A    
C25   O7    A    
C2    Cl1   S    
C5    Cl7   S    
C11   C13   A    
N1    Zn2   S    
C24   Cl4   S    
O9    C31   S    
C22   H9    S    
C24   H10   S    
O6    Zn2   S    
O11   C33   S    
C26   O9    S    
C4    H1    S    
C10   C11   A    
C32   H17   S    
C6    C29   T    
C27   C28   S    
C14   C15   A    
C33   H21   S    
C17   H5    S    
C13   C14   A    
C2    O10   S    
