data_mof_unit_13261.cif
_audit_creation_date              2012-10-26T20:21:17-0400
_audit_creation_method            fapswitch 2.2
_symmetry_space_group_name_H-M    P1
_symmetry_Int_Tables_number       1
_space_group_crystal_system       triclinic
_cell_length_a                    9.531317
_cell_length_b                    10.827774
_cell_length_c                    15.46523
_cell_angle_alpha                 89.755816
_cell_angle_beta                  74.395277
_cell_angle_gamma                 90.772499
_cell_volume                      1537.03597828

loop_
_atom_site_label
_atom_site_type_symbol
_atom_type_description
_atom_site_fract_x
_atom_site_fract_y
_atom_site_fract_z
_atom_type_partial_charge
C1    C     C_R   0.997402 0.262254 0.503315 0.596385
C2    C     C_R   0.118900 0.069954 0.451079 -0.149018
C3    C     C_R   0.004366 0.871593 0.495569 -0.032600
C4    C     C_R   0.995472 0.128257 0.503831 -0.025645
C5    C     C_R   0.542265 0.452128 0.570962 0.072291
C6    C     C_R   0.457753 0.547710 0.428973 0.069348
C7    C     C_R   0.393803 0.451823 0.570832 0.047023
C8    C     C_R   0.606216 0.548049 0.429117 0.031989
C9    C     C_R   0.918327 0.498409 0.672086 0.573342
C10   C     C_R   0.081757 0.502257 0.327921 0.566939
C11   C     C_R   0.873328 0.484766 0.769926 0.039326
C12   C     C_R   0.002584 0.737684 0.496580 0.586268
C13   C     C_R   0.127441 0.517337 0.230176 0.045757
C14   C     C_R   0.908065 0.394413 0.905206 -0.049764
C15   C     C_R   0.094255 0.609503 0.095075 -0.034512
C16   C     C_R   0.962422 0.426110 0.815079 -0.066671
C17   C     C_R   0.038718 0.576195 0.184863 -0.075151
C18   C     C_R   0.732868 0.518309 0.816604 -0.115392
C19   C     C_R   0.268607 0.485071 0.183908 -0.081589
C20   C     C_R   0.675984 0.491455 0.908697 0.009646
C21   C     C_R   0.327049 0.514201 0.092327 0.015432
C22   C     C_R   0.763786 0.422885 0.952672 0.048981
C23   C     C_R   0.558486 0.405618 0.084245 -0.107285
C24   C     C_R   0.239677 0.583317 0.048407 0.053097
C25   C     C_R   0.531704 0.525293 0.956246 -0.015991
C26   C     C_R   0.472037 0.481599 0.045182 -0.007978
C27   C     C_R   0.446053 0.602535 0.917517 -0.099261
C28   C     C_R   0.703193 0.379915 0.041180 0.216180
C29   C     C_R   0.301448 0.628796 0.960729 0.253508
C30   C     C_R   0.874820 0.057652 0.553726 0.251748
C31   C     C_R   0.124724 0.942112 0.445337 0.202665
C32   C     C_R   0.880799 0.929853 0.548064 -0.133822
Cu1   Cu    Cu3+1 0.140660 0.500020 0.500000 1.048705
Cu2   Cu    Cu3+1 0.859340 0.499980 0.500000 1.034104
H1    H     H_    0.332804 0.442821 0.223059 0.115551
H2    H     H_    0.210431 0.125109 0.412687 0.181805
H3    H     H_    0.571712 0.413394 0.628022 0.147820
H4    H     H_    0.428284 0.586507 0.371914 0.177665
H5    H     H_    0.312749 0.412619 0.627515 0.122080
H6    H     H_    0.687275 0.587199 0.372413 0.121353
H7    H     H_    0.706140 0.332459 0.237662 0.332462
H8    H     H_    0.090667 0.899030 0.937142 0.393399
H9    H     H_    0.675012 0.263679 0.728748 0.358052
H10   H     H_    0.412683 0.898417 0.466664 0.361391
H11   H     H_    0.667675 0.559373 0.777526 0.118958
H12   H     H_    0.928792 0.602067 0.219904 0.129142
H13   H     H_    0.071557 0.398709 0.779609 0.135412
H14   H     H_    0.979539 0.344007 0.935623 0.196899
H15   H     H_    0.022578 0.658723 0.064051 0.199880
H16   H     H_    0.515039 0.361401 0.148234 0.153171
H17   H     H_    0.490431 0.647280 0.853755 0.162702
H18   H     H_    0.789435 0.874595 0.586520 0.184887
N1    N     N_R   0.352080 0.500030 0.499980 -0.234159
N2    N     N_R   0.647920 0.499970 0.500020 -0.233562
O1    O     O_R   0.118740 0.319660 0.500000 -0.519945
O2    O     O_2   0.941266 0.345664 0.100679 -0.316328
O3    O     O_3   0.701774 0.254787 0.204762 -0.465803
O4    O     O_2   0.298934 0.766505 0.814113 -0.248757
O5    O     O_2   0.072382 0.660129 0.893461 -0.313638
O6    O     O_3   0.153076 0.853327 0.967805 -0.476835
O7    O     O_2   0.623832 0.174322 0.571556 -0.279483
O8    O     O_2   0.632081 0.026523 0.690129 -0.248512
O9    O     O_3   0.767137 0.236631 0.686683 -0.532914
O10   O     O_2   0.240133 0.770862 0.321986 -0.261414
O11   O     O_2   0.365712 0.971124 0.306761 -0.227593
O12   O     O_R   0.881260 0.680340 0.500000 -0.515914
O13   O     O_3   0.390000 0.824746 0.434843 -0.506456
O14   O     O_R   0.881170 0.319630 0.500010 -0.425402
O15   O     O_R   0.118830 0.680370 0.499990 -0.424455
O16   O     O_R   0.055570 0.500030 0.629830 -0.507969
O17   O     O_R   0.944430 0.499970 0.370170 -0.519611
O18   O     O_R   0.818000 0.500000 0.629840 -0.511059
O19   O     O_R   0.182000 0.500000 0.370160 -0.506491
O20   O     O_2   0.832428 0.164085 0.049686 -0.198269
S1    S     S_3+6 0.799883 0.284357 0.098628 0.024296
S2    S     S_3+6 0.205167 0.727162 0.904902 0.011714
S3    S     S_3+6 0.717827 0.123113 0.626669 0.031031
S4    S     S_3+6 0.282289 0.876492 0.372944 0.046843

loop_
_geom_bond_atom_site_label_1
_geom_bond_atom_site_label_2
_ccdc_geom_bond_type
Cu1   O1    S    
C21   C26   A    
C11   C18   A    
C5    H3    S    
C27   C29   A    
O8    S3    D    
C9    O18   A    
C12   O15   A    
Cu2   O12   S    
H9    O9    S    
C29   S2    S    
C19   C21   A    
C10   O19   A    
C20   C25   A    
C1    O14   A    
C23   C26   A    
C24   C29   A    
C32   H18   S    
C3    C12   S    
C30   S3    S    
O7    S3    D    
C6    H4    S    
Cu1   O15   S    
C10   O17   A    
O2    S1    D    
C22   C28   A    
O13   S4    S    
C16   H13   S    
C27   H17   S    
Cu1   N1    S    
O20   S1    D    
C13   C19   A    
O4    S2    D    
C5    N2    A    
C17   H12   S    
C8    N2    A    
C5    C7    A    
C23   H16   S    
C6    C8    A    
C25   C26   A    
C12   O12   A    
O6    S2    S    
Cu2   O14   S    
C2    C4    A    
C11   C16   A    
Cu1   Cu2   S    
C23   C28   A    
C9    O16   A    
C3    C31   A    
C9    C11   S    
Cu1   O16   S    
Cu1   O19   S    
C15   C24   A    
C20   C22   A    
Cu2   N2    S    
C14   C16   A    
C7    N1    A    
C6    N1    A    
H8    O6    S    
C18   H11   S    
Cu2   O18   S    
C31   S4    S    
O9    S3    S    
C2    H2    S    
C15   C17   A    
O11   S4    D    
O10   S4    D    
C10   C13   S    
C14   H14   S    
C25   C27   A    
C13   C17   A    
C1    C4    S    
O3    S1    S    
C1    O1    A    
H7    O3    S    
C19   H1    S    
C30   C32   A    
C14   C22   A    
Cu2   O17   S    
C18   C20   A    
C15   H15   S    
C3    C32   A    
C21   C24   A    
C7    H5    S    
C2    C31   A    
H10   O13   S    
C8    H6    S    
C28   S1    S    
O5    S2    D    
C4    C30   A    
