data_mof_unit_65316.cif
_audit_creation_date              2012-12-10T17:06:39-0500
_audit_creation_method            fapswitch 2.2
_symmetry_space_group_name_H-M    P1
_symmetry_Int_Tables_number       1
_space_group_crystal_system       triclinic
_cell_length_a                    14.155157
_cell_length_b                    10.755604
_cell_length_c                    10.044492
_cell_angle_alpha                 90.139908
_cell_angle_beta                  90.192095
_cell_angle_gamma                 90.11439
_cell_volume                      1529.230191

loop_
_atom_site_label
_atom_site_type_symbol
_atom_type_description
_atom_site_fract_x
_atom_site_fract_y
_atom_site_fract_z
_atom_type_partial_charge
C1    C     C_R   0.497948 0.262720 0.499709 0.926259
C2    C     C_R   0.502014 0.737314 0.500054 0.923998
C3    C     C_R   0.670778 0.499970 0.500167 0.887544
C4    C     C_1   0.227750 0.499825 0.499371 -0.206876
C5    C     C_1   0.142507 0.499788 0.499353 -0.010268
C6    C     C_1   0.042628 0.499799 0.499639 0.007416
C7    C     C_1   0.957387 0.499841 0.499992 0.007321
C8    C     C_1   0.857508 0.499904 0.500369 -0.010289
C9    C     C_3   0.374901 0.354747 0.113109 -0.673505
C10   C     C_1   0.772262 0.499947 0.500483 -0.203378
C11   C     C_2   0.498302 0.932848 0.387769 -0.155323
C12   C     C_2   0.510795 0.868865 0.500199 -0.333729
C13   C     C_2   0.503833 0.066716 0.387731 -0.162538
C14   C     C_2   0.489201 0.131231 0.499386 -0.331283
C15   C     C_2   0.544032 0.582905 0.925038 -0.161124
C16   C     C_2   0.555071 0.569719 0.073572 -0.068824
C17   C     C_R   0.329225 0.499914 0.499802 0.886987
H1    H     H_    0.484772 0.886905 0.293104 0.172483
H2    H     H_    0.312712 0.353364 0.180022 0.237433
H3    H     H_    0.429870 0.291199 0.152687 0.240109
H4    H     H_    0.530175 0.911780 0.594158 0.149358
H5    H     H_    0.468263 0.088750 0.592489 0.150490
H6    H     H_    0.484259 0.418075 0.896221 0.200197
H7    H     H_    0.613236 0.619055 0.120536 0.129789
H8    H     H_    0.519167 0.112198 0.293743 0.166717
H9    H     H_    0.577157 0.661842 0.876947 0.162632
H10   H     H_    0.378681 0.541705 0.036105 0.216140
H11   H     H_    0.352729 0.320246 0.013540 0.188510
N1    N     N_2   0.500930 0.501330 0.852150 -0.191695
N2    N     N_2   0.500950 0.501360 0.147810 -0.012871
N3    N     N_2   0.409992 0.480555 0.101861 -0.218100
O1    O     O_R   0.499990 0.319060 0.613040 -0.616979
O2    O     O_R   0.500010 0.319100 0.386900 -0.610180
O3    O     O_R   0.373700 0.499980 0.613090 -0.591912
O4    O     O_R   0.373730 0.500020 0.386960 -0.573491
O5    O     O_R   0.499990 0.680900 0.613100 -0.613675
O6    O     O_R   0.500010 0.680940 0.386960 -0.609786
O7    O     O_R   0.626270 0.499980 0.613040 -0.589092
O8    O     O_R   0.626300 0.500020 0.386910 -0.600354
Zn1   Zn    Zn3+2 0.499980 0.499970 0.650990 0.937168
Zn2   Zn    Zn3+2 0.500020 0.500030 0.349010 0.954719

loop_
_geom_bond_atom_site_label_1
_geom_bond_atom_site_label_2
_ccdc_geom_bond_type
C11   C12   D    
N2    Zn2   S    
C6    C7    T    
C16   H7    S    
C9    H3    S    
O2    Zn2   S    
C14   H5    S    
C3    O8    A    
C7    C8    S    
C11   H1    S    
C3    C10   S    
C13   C14   D    
O7    Zn1   S    
C11   C13   S    
C2    O6    A    
C13   H8    S    
C5    C6    S    
O3    Zn1   S    
C4    C17   S    
H6    N1    S    
N1    Zn1   S    
C8    C10   T    
C15   N1    D    
O1    Zn1   S    
O6    Zn2   S    
N2    N3    S    
O4    Zn2   S    
C17   O3    A    
C9    N3    S    
C16   N2    D    
C1    O2    A    
C15   C16   S    
O5    Zn1   S    
C9    H11   S    
O8    Zn2   S    
C2    C12   S    
C2    O5    A    
C15   H9    S    
C1    C14   S    
C17   O4    A    
H10   N3    S    
C12   H4    S    
C9    H2    S    
C1    O1    A    
C3    O7    A    
C4    C5    T    
