data_mof_unit_34216.cif
_audit_creation_date              2012-10-26T18:47:32-0400
_audit_creation_method            fapswitch 2.2
_symmetry_space_group_name_H-M    P1
_symmetry_Int_Tables_number       1
_space_group_crystal_system       triclinic
_cell_length_a                    10.797321
_cell_length_b                    12.999575
_cell_length_c                    11.736821
_cell_angle_alpha                 100.155836
_cell_angle_beta                  94.685735
_cell_angle_gamma                 91.141668
_cell_volume                      1615.16603386

loop_
_atom_site_label
_atom_site_type_symbol
_atom_type_description
_atom_site_fract_x
_atom_site_fract_y
_atom_site_fract_z
_atom_type_partial_charge
C1    C     C_R   0.494917 0.299188 0.478568 0.533927
C2    C     C_R   0.376864 0.964319 0.598413 0.130488
C3    C     C_R   0.557474 0.130396 0.377246 -0.171803
C4    C     C_R   0.404848 0.860982 0.600356 -0.189747
C5    C     C_R   0.435884 0.132412 0.543186 0.122387
C6    C     C_R   0.555451 0.865117 0.458072 0.128193
C7    C     C_R   0.444921 0.022655 0.531134 0.028766
C8    C     C_R   0.525987 0.969776 0.451349 0.014146
C9    C     C_R   0.368480 0.416363 0.018937 -0.158628
C10   C     C_R   0.627411 0.588410 0.981919 -0.155746
C11   C     C_R   0.383878 0.418298 0.139779 0.167026
C12   C     C_R   0.502618 0.700298 0.521382 0.572454
C13   C     C_R   0.617123 0.580912 0.859943 0.159479
C14   C     C_R   0.555993 0.538011 0.158106 0.034460
C15   C     C_R   0.439050 0.467673 0.842877 0.022509
C16   C     C_R   0.262416 0.502397 0.499754 0.535090
C17   C     C_R   0.737550 0.497443 0.500134 0.548963
C18   C     C_R   0.544842 0.533603 0.035625 -0.012789
C19   C     C_R   0.449706 0.472630 0.965403 -0.014938
C20   C     C_R   0.239355 0.752771 0.298987 -0.097267
C21   C     C_R   0.764320 0.232009 0.681623 -0.107427
C22   C     C_R   0.186433 0.699099 0.377362 -0.063249
C23   C     C_R   0.871405 0.495305 0.500002 -0.004805
C24   C     C_R   0.812197 0.294434 0.608884 -0.055593
C25   C     C_R   0.109329 0.609754 0.336443 0.048939
C26   C     C_R   0.890574 0.381802 0.655985 0.047586
C27   C     C_R   0.083603 0.576327 0.216177 -0.098099
C28   C     C_R   0.921650 0.404710 0.776615 -0.105057
C29   C     C_R   0.137634 0.629596 0.138059 -0.110390
C30   C     C_R   0.872071 0.342968 0.849186 -0.110341
C31   C     C_R   0.215786 0.717556 0.179447 -0.100346
C32   C     C_R   0.793447 0.256698 0.801720 -0.111344
C33   C     C_R   0.926821 0.546058 0.420415 -0.157961
C34   C     C_R   0.128465 0.503980 0.499328 -0.001445
C35   C     C_R   0.073031 0.452851 0.578523 -0.156028
C36   C     C_3   0.716447 0.640455 0.812510 -0.329342
C37   C     C_3   0.293449 0.347319 0.183011 -0.331628
C38   C     C_3   0.778296 0.843775 0.450027 -0.298102
C39   C     C_3   0.437516 0.203385 0.749293 -0.271671
C40   C     C_3   0.547190 0.928151 0.172655 -0.324439
C41   C     C_3   0.160314 0.005888 0.582699 -0.292281
C42   C     C_R   0.944550 0.446274 0.578689 -0.037227
C43   C     C_R   0.055180 0.551346 0.419200 -0.035376
C44   C     C_R   0.492854 0.812270 0.531613 -0.014226
C45   C     C_R   0.494095 0.185519 0.465921 -0.038941
C46   C     C_R   0.573990 0.023644 0.368452 0.126124
Cu1   Cu    Cu3+1 0.509250 0.507730 0.615930 0.919130
Cu2   Cu    Cu3+1 0.490750 0.492270 0.384070 0.934335
H1    H     H_    0.257555 0.758720 0.118909 0.097361
H2    H     H_    0.789176 0.274220 0.515927 0.092433
H3    H     H_    0.023420 0.508141 0.183065 0.091151
H4    H     H_    0.983039 0.471012 0.814440 0.089637
H5    H     H_    0.119024 0.602589 0.045456 0.098692
H6    H     H_    0.895053 0.361769 0.942174 0.099260
H7    H     H_    0.869887 0.584336 0.360919 0.123184
H8    H     H_    0.130093 0.413891 0.637288 0.116714
H9    H     H_    0.351826 0.816281 0.650650 0.118638
H10   H     H_    0.597844 0.171230 0.315440 0.130879
H11   H     H_    0.765066 0.700585 0.881616 0.061952
H12   H     H_    0.755493 0.208699 0.857918 0.096774
H13   H     H_    0.788958 0.587065 0.779479 0.148823
H14   H     H_    0.679179 0.684139 0.746182 0.171383
H15   H     H_    0.197829 0.375418 0.170310 0.102580
H16   H     H_    0.296295 0.267144 0.131515 0.078032
H17   H     H_    0.310461 0.338720 0.273505 0.193559
H18   H     H_    0.641333 0.793736 0.310505 0.277043
H19   H     H_    0.787909 0.835244 0.542855 0.137977
H20   H     H_    0.845904 0.792568 0.403282 0.131388
H21   H     H_    0.800418 0.926141 0.443300 0.156252
H22   H     H_    0.324294 0.252944 0.616698 0.249379
H23   H     H_    0.364426 0.421166 0.789616 0.111331
H24   H     H_    0.515331 0.261649 0.756426 0.165385
H25   H     H_    0.372572 0.231357 0.815603 0.126051
H26   H     H_    0.475627 0.128908 0.768211 0.152147
H27   H     H_    0.705289 0.014025 0.248635 0.241422
H28   H     H_    0.599031 0.882350 0.104097 0.135073
H29   H     H_    0.499740 0.992097 0.136796 0.138563
H30   H     H_    0.476437 0.875064 0.197870 0.151041
H31   H     H_    0.259297 0.975149 0.730919 0.235942
H32   H     H_    0.086867 0.044746 0.633984 0.138738
H33   H     H_    0.127979 0.924355 0.544925 0.118723
H34   H     H_    0.628396 0.586989 0.211841 0.114525
H35   H     H_    0.175328 0.049539 0.511398 0.162952
H36   H     H_    0.293972 0.368592 0.966386 0.080683
H37   H     H_    0.701923 0.635631 0.035097 0.083387
H38   H     H_    0.298710 0.821563 0.330856 0.106899
H39   H     H_    0.704628 0.164447 0.644926 0.107158
H40   H     H_    0.205429 0.726775 0.469766 0.089501
N1    N     N_R   0.523180 0.519350 0.790130 -0.213388
N2    N     N_R   0.476820 0.480650 0.209870 -0.213730
N3    N     N_2   0.653502 0.812877 0.399636 -0.491258
N4    N     N_2   0.371398 0.188704 0.634729 -0.472792
N5    N     N_2   0.632939 0.971136 0.271704 -0.520051
N6    N     N_2   0.273692 0.005786 0.657534 -0.477390
O1    O     O_R   0.506570 0.354460 0.582000 -0.494867
O2    O     O_R   0.493430 0.645540 0.418000 -0.477131
O3    O     O_R   0.490940 0.341410 0.386200 -0.524455
O4    O     O_R   0.509060 0.658590 0.613800 -0.522831
O5    O     O_R   0.327460 0.506540 0.597900 -0.519328
O6    O     O_R   0.672540 0.493460 0.402100 -0.509719
O7    O     O_R   0.311830 0.493480 0.402100 -0.502674
O8    O     O_R   0.688170 0.506520 0.597900 -0.500764

loop_
_geom_bond_atom_site_label_1
_geom_bond_atom_site_label_2
_ccdc_geom_bond_type
C33   H7    S    
C21   H39   S    
C10   H37   S    
C27   C29   A    
C14   C18   A    
C2    C7    A    
C40   N5    S    
C36   H11   S    
C25   C43   S    
C41   H32   S    
C7    C8    A    
C15   C19   A    
Cu2   O3    S    
C30   H6    S    
C14   H34   S    
H27   N5    S    
C17   C23   S    
C23   C42   A    
C24   C26   A    
C18   C19   A    
C6    N3    S    
C41   H35   S    
Cu1   O5    S    
C34   C35   A    
C39   H26   S    
C11   C37   S    
C35   C42   A    
C14   N2    A    
C16   C34   S    
C9    C19   A    
C41   N6    S    
C23   C33   A    
C22   C25   A    
C20   H38   S    
C4    H9    S    
C39   H24   S    
C22   H40   S    
C12   O4    A    
C38   H21   S    
Cu1   O8    S    
Cu2   N2    S    
Cu1   N1    S    
C31   H1    S    
C36   H14   S    
C37   H15   S    
C27   H3    S    
C24   H2    S    
Cu2   O6    S    
C21   C32   A    
C33   C43   A    
C2    N6    S    
H31   N6    S    
C1    O3    A    
C5    C7    A    
C6    C8    A    
C4    C44   A    
C5    C45   A    
C38   N3    S    
C3    C45   A    
C40   H28   S    
C37   H17   S    
C2    C4    A    
C17   O8    A    
C15   N1    A    
C9    C11   A    
Cu1   Cu2   S    
C1    O1    A    
C41   H33   S    
Cu1   O4    S    
C13   C36   S    
C38   H20   S    
C40   H30   S    
C32   H12   S    
C36   H13   S    
C39   N4    S    
C37   H16   S    
C26   C42   S    
Cu2   O2    S    
C13   N1    A    
C35   H8    S    
H22   N4    S    
C34   C43   A    
C20   C22   A    
C10   C13   A    
C16   O5    A    
H18   N3    S    
C25   C27   A    
C15   H23   S    
C3    C46   A    
C26   C28   A    
C28   C30   A    
C12   C44   S    
C30   C32   A    
C28   H4    S    
C11   N2    A    
C1    C45   S    
C46   N5    S    
C29   H5    S    
C10   C18   A    
Cu2   O7    S    
C39   H25   S    
C17   O6    A    
C8    C46   A    
C5    N4    S    
C9    H36   S    
C3    H10   S    
C16   O7    A    
C38   H19   S    
C29   C31   A    
C21   C24   A    
Cu1   O1    S    
C40   H29   S    
C12   O2    A    
C6    C44   A    
C20   C31   A    
