data_mof_unit_35539.cif
_audit_creation_date              2012-12-11T16:08:27-0500
_audit_creation_method            fapswitch 2.2
_symmetry_space_group_name_H-M    P1
_symmetry_Int_Tables_number       1
_space_group_crystal_system       triclinic
_cell_length_a                    7.227008
_cell_length_b                    21.38778
_cell_length_c                    23.455639
_cell_angle_alpha                 90.000038
_cell_angle_beta                  90.00081
_cell_angle_gamma                 89.999695
_cell_volume                      3625.53007834

loop_
_atom_site_label
_atom_site_type_symbol
_atom_type_description
_atom_site_fract_x
_atom_site_fract_y
_atom_site_fract_z
_atom_type_partial_charge
O1    O     O_R   0.365470 0.806380 0.442440 -0.530445
O2    O     O_R   0.134530 0.193620 0.942440 -0.530453
O3    O     O_R   0.865470 0.693620 0.557560 -0.530448
O4    O     O_R   0.634530 0.306380 0.057560 -0.530446
O5    O     O_R   0.035730 0.813790 0.557160 -0.528396
O6    O     O_R   0.464270 0.186210 0.057160 -0.528415
O7    O     O_R   0.535730 0.686210 0.442840 -0.528432
O8    O     O_R   0.964270 0.313790 0.942840 -0.528396
C1    C     C_R   0.204229 0.828733 0.575886 0.711756
C2    C     C_R   0.295772 0.171267 0.075886 0.711724
C3    C     C_R   0.704229 0.671267 0.424114 0.711741
C4    C     C_R   0.795770 0.328733 0.924115 0.711749
O9    O     O_R   0.035760 0.813790 0.442850 -0.537088
O10   O     O_R   0.464240 0.186210 0.942850 -0.537095
O11   O     O_R   0.535760 0.686210 0.557150 -0.537092
O12   O     O_R   0.964240 0.313790 0.057150 -0.537084
O13   O     O_R   0.865450 0.693620 0.442430 -0.536039
O14   O     O_R   0.634550 0.306380 0.942430 -0.536016
O15   O     O_R   0.365450 0.806380 0.557570 -0.536010
O16   O     O_R   0.134550 0.193620 0.057570 -0.536028
C5    C     C_R   0.204280 0.828736 0.424117 0.718092
C6    C     C_R   0.295719 0.171264 0.924116 0.718124
C7    C     C_R   0.704282 0.671264 0.575883 0.718137
C8    C     C_R   0.795720 0.328736 0.075883 0.718116
O17   O     O_3   0.198970 0.710570 0.500000 -0.375676
O18   O     O_3   0.301030 0.289430 0.000000 -0.375640
O19   O     O_3   0.698970 0.789430 0.500000 -0.375638
O20   O     O_3   0.801030 0.210570 0.000000 -0.375671
V1    V     V_3+5 0.924120 0.757310 0.500000 1.469820
V2    V     V_3+5 0.575880 0.242690 0.000000 1.469869
V3    V     V_3+5 0.424120 0.742690 0.500000 1.469769
V4    V     V_3+5 0.075880 0.257310 0.000000 1.469910
C9    C     C_3   0.908134 0.554781 0.745230 -0.305931
C10   C     C_3   0.591695 0.445288 0.245166 -0.305965
C11   C     C_3   0.408195 0.945240 0.254792 -0.305933
C12   C     C_3   0.091850 0.054778 0.754774 -0.305932
C13   C     C_3   0.562638 0.540790 0.744469 -0.328338
C14   C     C_3   0.937227 0.459135 0.244530 -0.328331
C15   C     C_3   0.062687 0.959183 0.255506 -0.328318
C16   C     C_3   0.437351 0.040798 0.755521 -0.328332
C17   C     C_3   0.577830 0.491270 0.792867 -0.428177
C18   C     C_3   0.922033 0.508654 0.292929 -0.428244
C19   C     C_3   0.077874 0.008709 0.207113 -0.428209
C20   C     C_3   0.422166 0.991269 0.707131 -0.428193
H1    H     H_    0.901504 0.534205 0.836699 0.147320
H2    H     H_    0.598044 0.465851 0.336639 0.147327
H3    H     H_    0.401618 0.965804 0.163321 0.147323
H4    H     H_    0.098509 0.034212 0.663303 0.147293
H5    H     H_    0.898048 0.603334 0.762010 0.165972
H6    H     H_    0.601542 0.396732 0.261943 0.165940
H7    H     H_    0.398211 0.896684 0.238018 0.165966
H8    H     H_    0.101893 0.103334 0.738000 0.165945
H9    H     H_    0.438278 0.530840 0.717994 0.174770
H10   H     H_    0.061714 0.469040 0.218102 0.174654
H11   H     H_    0.938274 0.969112 0.281963 0.174740
H12   H     H_    0.561733 0.030860 0.781991 0.174777
H13   H     H_    0.543378 0.588003 0.763509 0.172554
H14   H     H_    0.956250 0.411913 0.263570 0.172574
H15   H     H_    0.043525 0.911969 0.236460 0.172571
H16   H     H_    0.456568 0.088010 0.736473 0.172547
H17   H     H_    0.559342 0.514742 0.834838 0.176543
H18   H     H_    0.940268 0.485168 0.334903 0.176592
H19   H     H_    0.059450 0.985240 0.165139 0.176555
H20   H     H_    0.440662 0.014733 0.665157 0.176523
H21   H     H_    0.463593 0.456719 0.788559 0.181297
H22   H     H_    0.036416 0.543155 0.288671 0.180265
H23   H     H_    0.963598 0.043246 0.211412 0.180966
H24   H     H_    0.536404 0.956719 0.711446 0.181208
C21   C     C_1   0.786857 0.374251 0.878223 -0.110804
C22   C     C_1   0.713139 0.625750 0.378222 -0.110949
C23   C     C_1   0.286864 0.125750 0.121777 -0.110875
C24   C     C_1   0.213139 0.874250 0.621778 -0.110856
C25   C     C_3   0.738653 0.540290 0.706684 0.185575
C26   C     C_3   0.761364 0.459712 0.206683 0.185485
C27   C     C_3   0.238646 0.959708 0.293314 0.185531
C28   C     C_3   0.261352 0.040293 0.793313 0.185570
C29   C     C_3   0.919696 0.508110 0.796029 -0.300921
C30   C     C_3   0.580106 0.491957 0.295965 -0.301055
C31   C     C_3   0.419753 0.991906 0.203990 -0.300942
C32   C     C_3   0.080302 0.008112 0.703971 -0.300910
C33   C     C_3   0.767798 0.457097 0.790987 0.125035
C34   C     C_3   0.732204 0.542906 0.290983 0.125212
C35   C     C_3   0.267803 0.042903 0.209013 0.125092
C36   C     C_3   0.232198 0.957097 0.709013 0.125072
C37   C     C_3   0.783255 0.424218 0.731349 0.389294
C38   C     C_3   0.717074 0.575797 0.231345 0.389272
C39   C     C_3   0.283166 0.075784 0.268651 0.389268
C40   C     C_3   0.216741 0.924220 0.768651 0.389232
C41   C     C_3   0.762327 0.473358 0.682335 -0.363104
C42   C     C_3   0.738033 0.526654 0.182334 -0.362872
C43   C     C_3   0.262206 0.026643 0.317663 -0.363032
C44   C     C_3   0.237707 0.973360 0.817663 -0.363079
C45   C     C_1   0.778830 0.411677 0.839232 0.009055
C46   C     C_1   0.721168 0.588325 0.339230 0.008861
C47   C     C_1   0.278838 0.088323 0.160769 0.008970
C48   C     C_1   0.221164 0.911676 0.660769 0.009006
C49   C     C_1   0.723819 0.587041 0.659678 -0.048145
C50   C     C_1   0.776196 0.412959 0.159678 -0.048051
C51   C     C_1   0.223810 0.912957 0.340320 -0.048111
C52   C     C_1   0.276187 0.087044 0.840319 -0.048132
C53   C     C_1   0.713730 0.625264 0.621385 -0.150969
C54   C     C_1   0.786278 0.374736 0.121385 -0.150873
C55   C     C_1   0.213723 0.874735 0.378614 -0.150938
C56   C     C_1   0.286274 0.125266 0.878613 -0.150943
H25   H     H_    0.883724 0.472547 0.653181 0.204171
H26   H     H_    0.616767 0.527515 0.153130 0.204421
H27   H     H_    0.383552 0.027468 0.346837 0.204249
H28   H     H_    0.116336 0.972550 0.846827 0.204202
H29   H     H_    0.639660 0.461132 0.655884 0.130616
H30   H     H_    0.860848 0.538833 0.155933 0.130944
H31   H     H_    0.139485 0.038856 0.344094 0.130724
H32   H     H_    0.360397 0.961136 0.844105 0.130655
H33   H     H_    0.037612 0.552004 0.719671 0.173729
H34   H     H_    0.462336 0.448119 0.219559 0.173812
H35   H     H_    0.537628 0.948044 0.280369 0.173785
H36   H     H_    0.962388 0.051987 0.780339 0.173777
H37   H     H_    0.059438 0.486639 0.797919 0.201988
H38   H     H_    0.440436 0.513486 0.297805 0.201672
H39   H     H_    0.559475 0.013391 0.202108 0.201880
H40   H     H_    0.940558 0.986643 0.702073 0.201942
H41   H     H_    0.666667 0.390418 0.727779 0.063990
H42   H     H_    0.833769 0.609559 0.227822 0.063648
H43   H     H_    0.166557 0.109579 0.272205 0.063879
H44   H     H_    0.333312 0.890410 0.772219 0.063969
S1    S     S_3+6 0.992198 0.378998 0.721233 -0.022355
O21   O     O_2   0.026896 0.336745 0.771282 -0.336721
O22   O     O_2   0.969033 0.339616 0.668642 -0.312863
O23   O     O_3   0.175221 0.426539 0.712100 -0.542506
H45   H     H_    0.280587 0.398273 0.703950 0.357067
S2    S     S_3+6 0.508291 0.621085 0.221157 -0.022129
O24   O     O_2   0.473468 0.663278 0.271238 -0.337403
O25   O     O_2   0.531762 0.660529 0.168618 -0.312057
O26   O     O_3   0.325207 0.573601 0.211877 -0.542182
H46   H     H_    0.219246 0.601950 0.204853 0.356990
S3    S     S_3+6 0.492085 0.121016 0.278794 -0.022281
O27   O     O_2   0.526826 0.163259 0.228740 -0.336932
O28   O     O_2   0.468846 0.160411 0.331375 -0.312601
O29   O     O_3   0.675119 0.073481 0.287962 -0.542471
H47   H     H_    0.780678 0.101757 0.295742 0.357073
S4    S     S_3+6 0.007757 0.879014 0.778775 -0.022291
O30   O     O_2   0.973005 0.836772 0.728722 -0.336778
O31   O     O_2   0.030916 0.839620 0.831362 -0.312731
O32   O     O_3   0.824766 0.926575 0.787922 -0.542541
H48   H     H_    0.719321 0.898326 0.795951 0.357076

loop_
_geom_bond_atom_site_label_1
_geom_bond_atom_site_label_2
_ccdc_geom_bond_type
O17   V3    S    
S3    O29   S    
C51   C55   T    
C4    C21   S    
C32   H40   S    
O1    C5    A    
C34   C46   S    
C39   C43   S    
O19   V1    S    
C19   C35   S    
C37   S1    S    
C18   C34   S    
C1    C24   S    
C17   H17   S    
C32   C36   S    
O15   V3    S    
O23   H45   S    
O26   H46   S    
C3    C22   S    
C19   H19   S    
S3    O27   D    
C26   C50   S    
C20   H20   S    
O18   V4    S    
C11   C27   S    
C16   H16   S    
O9    V1    S    
C30   H38   S    
S4    O31   D    
C14   C18   S    
C29   H37   S    
C14   C26   S    
O4    C8    A    
C23   C47   T    
C9    H5    S    
O32   H48   S    
C41   H29   S    
O1    V3    S    
C6    C56   S    
O2    V4    S    
C36   C48   S    
C43   H31   S    
O3    V1    S    
C40   S4    S    
C12   C28   S    
C14   H14   S    
O3    C7    A    
C44   H28   S    
C52   C56   T    
C15   H11   S    
C40   C44   S    
C2    O16   A    
C16   H12   S    
C31   H39   S    
O2    C6    A    
S1    O23   S    
S4    O32   S    
C37   H41   S    
S2    O25   D    
O14   V2    S    
H3    C31   S    
C18   H18   S    
C12   H8    S    
C40   H44   S    
C13   H9    S    
C2    C23   S    
O11   C7    A    
C17   C33   S    
O12   C8    A    
C12   C32   S    
O10   V2    S    
C1    O15   A    
C33   C37   S    
O5    V1    S    
C10   H6    S    
O7    V3    S    
O8    V4    S    
C43   H27   S    
C28   C52   S    
S4    O30   D    
C42   H26   S    
C38   C42   S    
H2    C30   S    
C37   C41   S    
C38   S2    S    
C17   H21   S    
C50   C54   T    
O4    V2    S    
C16   C28   S    
C24   C48   T    
O7    C3    A    
O5    C1    A    
C39   S3    S    
C33   C45   S    
C30   C34   S    
C14   H10   S    
C29   C33   S    
O8    C4    A    
C15   H15   S    
C27   C51   S    
O9    C5    A    
C35   C47   S    
C11   H35   S    
C10   C26   S    
C9    C25   S    
O6    V2    S    
C28   C44   S    
C25   C49   S    
C15   C27   S    
C11   H7    S    
S1    O21   D    
C20   H24   S    
S2    O26   S    
C10   H34   S    
C42   H30   S    
C41   H25   S    
C12   H36   S    
C18   H22   S    
O16   V4    S    
S3    O28   D    
C13   C25   S    
C3    O13   A    
C22   C46   T    
C9    H33   S    
C44   H32   S    
C36   C40   S    
C20   C36   S    
C35   C39   S    
O6    C2    A    
C15   C19   S    
O11   V3    S    
C31   C35   S    
C27   C43   S    
O12   V4    S    
C21   C45   T    
C9    C29   S    
H4    C32   S    
O20   V2    S    
S2    O24   D    
C25   C41   S    
C34   C38   S    
O13   V1    S    
C10   C30   S    
C39   H43   S    
O10   C6    A    
C7    C53   S    
C26   C42   S    
C11   C31   S    
C8    C54   S    
C13   C17   S    
C38   H42   S    
C49   C53   T    
O29   H47   S    
C5    C55   S    
C16   C20   S    
C19   H23   S    
C4    O14   A    
S1    O22   D    
H1    C29   S    
C13   H13   S    
