data_mof_unit_39069.cif
_audit_creation_date              2012-12-11T17:45:18-0500
_audit_creation_method            fapswitch 2.2
_symmetry_space_group_name_H-M    P1
_symmetry_Int_Tables_number       1
_space_group_crystal_system       triclinic
_cell_length_a                    14.897489
_cell_length_b                    14.874159
_cell_length_c                    15.153043
_cell_angle_alpha                 110.96911
_cell_angle_beta                  108.626127
_cell_angle_gamma                 108.44452
_cell_volume                      2595.45239447

loop_
_atom_site_label
_atom_site_type_symbol
_atom_type_description
_atom_site_fract_x
_atom_site_fract_y
_atom_site_fract_z
_atom_type_partial_charge
Br1   Br    Br    0.637534 0.136180 0.865492 -0.670364
Br2   Br    Br    0.981167 0.266755 0.612595 -0.585292
Br3   Br    Br    0.484802 0.364346 0.694017 -0.507871
Br4   Br    Br    0.261783 0.358142 0.679197 -0.460809
C1    C     C_R   0.978852 0.254555 0.066268 -0.050551
C2    C     C_R   0.705854 0.194946 0.795967 0.297726
C3    C     C_R   0.776803 0.592509 0.025224 0.671565
C4    C     C_R   0.314286 0.755871 0.222708 -0.043654
C5    C     C_R   0.000415 0.409243 0.698626 0.309303
C6    C     C_R   0.675594 0.501273 0.945928 -0.065234
C7    C     C_R   0.049102 0.501243 0.692693 0.007874
C8    C     C_R   0.701936 0.133316 0.701521 -0.051090
C9    C     C_R   0.046095 0.861762 0.052189 0.071146
C10   C     C_R   0.587072 0.259754 0.245513 -0.084212
C11   C     C_R   0.692542 0.348474 0.313592 -0.157964
C12   C     C_R   0.322180 0.783180 0.323565 0.067472
C13   C     C_R   0.781311 0.331522 0.320516 0.094898
C14   C     C_R   0.762919 0.224404 0.258968 -0.139412
C15   C     C_R   0.657094 0.137128 0.186522 -0.095080
C16   C     C_R   0.205516 0.406927 0.898103 -0.061253
C17   C     C_R   0.569091 0.154707 0.180147 -0.055500
C18   C     C_R   0.926610 0.418537 0.503694 -0.164541
C19   C     C_R   0.028652 0.500078 0.593252 0.110337
C20   C     C_R   0.096327 0.587912 0.590032 0.016990
C21   C     C_R   0.060040 0.590908 0.496105 -0.223671
C22   C     C_R   0.959564 0.506694 0.404790 0.073090
C23   C     C_R   0.294414 0.496629 0.921649 0.098734
C24   C     C_R   0.891452 0.419711 0.408801 0.007153
C25   C     C_R   0.227537 0.784755 0.735006 -0.211122
C26   C     C_R   0.333469 0.869526 0.812254 -0.149347
C27   C     C_R   0.419449 0.846668 0.831392 0.000620
C28   C     C_R   0.995714 0.592760 0.298769 -0.156133
C29   C     C_R   0.399455 0.738850 0.773867 -0.107337
C30   C     C_R   0.293210 0.653074 0.699124 -0.155669
C31   C     C_R   0.206538 0.675508 0.679337 0.134949
C32   C     C_R   0.189100 0.011795 0.394976 -0.262186
C33   C     C_R   0.278112 0.994563 0.407751 0.817984
C34   C     C_R   0.942381 0.502613 0.304439 0.049565
C35   C     C_R   0.320520 0.968202 0.486131 -0.101994
C36   C     C_R   0.274790 0.962640 0.553351 -0.263496
C37   C     C_R   0.185902 0.980223 0.540302 -0.053868
C38   C     C_R   0.142749 0.004347 0.460907 -0.116671
C39   C     C_R   0.510414 0.032641 0.594887 -0.140779
C40   C     C_R   0.296248 0.589235 0.989683 -0.171548
C41   C     C_R   0.607762 0.032097 0.612781 0.086017
C42   C     C_R   0.612048 0.945164 0.539327 0.038167
C43   C     C_R   0.515583 0.861268 0.444585 -0.260946
C44   C     C_R   0.418644 0.864991 0.425611 0.096878
C45   C     C_R   0.687845 0.409163 0.930430 -0.213067
C46   C     C_R   0.416078 0.951438 0.502238 0.087405
C47   C     C_R   0.746253 0.920416 0.479977 -0.148640
C48   C     C_R   0.844797 0.920299 0.501394 -0.073004
C49   C     C_R   0.912536 0.940494 0.602694 -0.054593
C50   C     C_R   0.881648 0.960156 0.682600 -0.109713
C51   C     C_R   0.783066 0.959853 0.661449 -0.132461
C52   C     C_R   0.909680 0.410044 0.210336 -0.063774
C53   C     C_R   0.714778 0.940994 0.560186 0.108664
C54   C     C_3   0.471627 0.389256 0.824609 0.034696
C55   C     C_3   0.363589 0.385204 0.817954 0.847508
C56   C     C_R   0.082638 0.592717 0.787833 -0.196709
C57   C     C_3   0.563703 0.506146 0.029382 -0.466186
C58   C     C_3   0.564561 0.596608 0.917083 -0.265553
C59   C     C_3   0.570799 0.498487 0.927465 0.170499
C60   C     C_3   0.390634 0.494773 0.914944 0.104271
C61   C     C_3   0.461474 0.508901 0.024073 -0.405868
C62   C     C_3   0.456741 0.592601 0.906379 -0.500846
C63   C     C_R   0.298417 0.128860 0.890115 0.012370
C64   C     C_R   0.219375 0.746154 0.311487 -0.148134
C65   C     C_R   0.216964 0.104544 0.918259 -0.220021
C66   C     C_R   0.237687 0.171637 0.023412 0.165781
C67   C     C_R   0.790240 0.196317 0.698877 -0.126280
C68   C     C_R   0.339236 0.265585 0.098116 -0.151186
C69   C     C_R   0.421129 0.288117 0.070225 -0.204821
C70   C     C_R   0.401343 0.219106 0.966977 0.024032
C71   C     C_R   0.152594 0.031577 0.060433 -0.205118
C72   C     C_R   0.077878 0.978071 0.085897 0.012913
C73   C     C_R   0.037403 0.038603 0.141983 -0.168289
C74   C     C_R   0.072381 0.147579 0.166686 0.714194
C75   C     C_R   0.111918 0.180923 0.104930 -0.122108
C76   C     C_R   0.072671 0.256911 0.977039 -0.149199
C77   C     C_R   0.164865 0.128802 0.062355 -0.051872
C78   C     C_R   0.996238 0.802548 0.090940 -0.030012
C79   C     C_R   0.838333 0.924021 0.057334 -0.234908
C80   C     C_R   0.743716 0.894263 0.065405 0.799938
C81   C     C_R   0.749918 0.923610 0.166544 -0.262541
C82   C     C_R   0.850999 0.987492 0.260288 -0.187777
C83   C     C_R   0.945779 0.022025 0.252853 -0.041844
C84   C     C_R   0.940322 0.988175 0.151081 0.051654
C85   C     C_R   0.061474 0.234146 0.055530 0.075414
C86   C     C_R   0.080548 0.798296 0.993079 -0.110408
F1    F     F_    0.798353 0.697489 0.082083 -0.773242
F2    F     F_    0.322979 0.003737 0.344135 -0.707245
F3    F     F_    0.311464 0.296008 0.826413 -0.742644
F4    F     F_    0.048748 0.212383 0.234558 -0.719932
F5    F     F_    0.646027 0.840484 0.975344 -0.769014
H1    H     H_    0.943370 0.241103 0.114967 0.169376
H2    H     H_    0.830580 0.208731 0.267406 0.161324
H3    H     H_    0.643247 0.055377 0.137448 0.131114
H4    H     H_    0.870634 0.355262 0.508368 0.158006
H5    H     H_    0.115150 0.656446 0.493132 0.133718
H6    H     H_    0.161845 0.803967 0.718557 0.113550
H7    H     H_    0.349270 0.953168 0.856197 0.122773
H8    H     H_    0.501636 0.912701 0.889806 0.172993
H9    H     H_    0.466530 0.721977 0.786300 0.184709
H10   H     H_    0.278852 0.570078 0.653997 0.173311
H11   H     H_    0.073817 0.017733 0.451173 0.148090
H12   H     H_    0.125601 0.678469 0.813131 0.129608
H13   H     H_    0.171843 0.321569 0.838995 0.206666
H14   H     H_    0.156835 0.031343 0.334056 0.147239
H15   H     H_    0.307608 0.943948 0.615189 0.165695
H16   H     H_    0.150622 0.975258 0.591830 0.116542
H17   H     H_    0.508665 0.102294 0.649806 0.168611
H18   H     H_    0.515675 0.793448 0.385413 0.127844
H19   H     H_    0.695565 0.906388 0.401641 0.112815
H20   H     H_    0.868914 0.905001 0.439606 0.107850
H21   H     H_    0.988845 0.940694 0.619263 0.091213
H22   H     H_    0.934058 0.975641 0.761005 0.111421
H23   H     H_    0.814266 0.168176 0.639129 0.179494
H24   H     H_    0.023680 0.678219 0.354134 0.102411
H25   H     H_    0.760218 0.974798 0.724218 0.140850
H26   H     H_    0.472185 0.318179 0.832489 0.133885
H27   H     H_    0.565028 0.434981 0.036789 0.170504
H28   H     H_    0.415077 0.443694 0.035690 0.209857
H29   H     H_    0.630583 0.675238 0.990491 0.249268
H30   H     H_    0.573366 0.596489 0.846930 0.211008
H31   H     H_    0.409021 0.583141 0.827693 0.206007
H32   H     H_    0.350697 0.674258 0.019889 0.105137
H33   H     H_    0.475634 0.672816 0.970697 0.208226
H34   H     H_    0.980947 0.835083 0.157187 0.158337
H35   H     H_    0.634829 0.581785 0.104343 0.210955
H36   H     H_    0.484944 0.589055 0.092782 0.174291
H37   H     H_    0.465549 0.235580 0.946362 0.115840
H38   H     H_    0.282692 0.076007 0.809758 0.108209
H39   H     H_    0.139507 0.030461 0.860083 0.107949
H40   H     H_    0.357442 0.316676 0.180108 0.131503
H41   H     H_    0.500802 0.358236 0.129803 0.123211
H42   H     H_    0.196720 0.994959 0.031180 0.137536
H43   H     H_    0.859517 0.325293 0.183094 0.115875
H44   H     H_    0.832298 0.902512 0.978601 0.141285
H45   H     H_    0.133949 0.822348 0.961988 0.089365
H46   H     H_    0.676500 0.899718 0.172565 0.131355
H47   H     H_    0.855824 0.013791 0.338903 0.167513
H48   H     H_    0.022780 0.078834 0.326307 0.162132
H49   H     H_    0.197022 0.753661 0.373763 0.110452
H50   H     H_    0.127507 0.250057 0.946401 0.134871
H51   H     H_    0.626336 0.324104 0.878361 0.181738
H52   H     H_    0.487127 0.086599 0.126345 0.110300
H53   H     H_    0.519395 0.272115 0.245283 0.128689
H54   H     H_    0.705234 0.429065 0.364971 0.119866
H55   H     H_    0.379559 0.775428 0.203891 0.087359
N1    N     N_R   0.947080 0.293830 0.002870 -0.050431
N2    N     N_R   0.153670 0.443180 0.946090 -0.061677
N3    N     N_R   0.002360 0.556820 0.208890 -0.044853
N4    N     N_R   0.210070 0.556820 0.002870 -0.046836
N5    N     N_R   0.945960 0.443180 0.152110 -0.045729
N6    N     N_R   0.151710 0.706170 0.208890 -0.045486
N7    N     N_R   0.004320 0.293830 0.946090 -0.047100
N8    N     N_R   0.789930 0.443180 0.997130 -0.067574
N9    N     N_R   0.054040 0.556820 0.847890 -0.055141
N10   N     N_R   0.848290 0.293830 0.791110 -0.056290
N11   N     N_R   0.995680 0.706170 0.053910 -0.060323
N12   N     N_R   0.052920 0.706170 0.997130 -0.049626
N13   N     N_R   0.791050 0.293830 0.847890 -0.061624
N14   N     N_R   0.846330 0.556820 0.053910 -0.104519
N15   N     N_R   0.997640 0.443180 0.791110 -0.071829
N16   N     N_R   0.208950 0.706170 0.152110 -0.042538
Ni1   Ni    Ni4+2 0.869690 0.369690 0.000000 0.253642
Ni2   Ni    Ni4+2 0.130310 0.630310 0.000000 0.219050
Ni3   Ni    Ni4+2 0.000970 0.369690 0.869780 0.251753
Ni4   Ni    Ni4+2 0.999030 0.630310 0.130220 0.232185

loop_
_geom_bond_atom_site_label_1
_geom_bond_atom_site_label_2
_ccdc_geom_bond_type
C3    C6    A    
C83   C84   A    
C40   H32   S    
C65   H39   S    
C70   H37   S    
C9    C86   A    
C29   H9    S    
C37   C38   A    
C32   C38   A    
C6    C59   S    
C56   N9    A    
C12   C44   S    
C58   H29   S    
N11   N12   A    
C81   C82   A    
C67   N10   A    
C55   C60   S    
C58   C59   S    
C86   N12   A    
N1    N7    A    
C10   C17   A    
C32   C33   A    
C63   H38   S    
C30   C31   A    
C2    C8    A    
C26   C27   A    
C10   H53   S    
N9    Ni2   S    
C43   H18   S    
C14   C15   A    
C69   C70   A    
C7    C19   S    
C76   C85   A    
C57   C59   S    
C66   C77   S    
N7    Ni3   S    
C42   C43   A    
N14   Ni4   S    
C23   C40   A    
C43   C44   A    
C73   C84   S    
N5    Ni1   S    
N3    Ni4   S    
N10   Ni3   S    
C69   H41   S    
C47   C53   A    
C14   H2    S    
C28   C34   A    
N3    N5    A    
C33   F2    S    
C49   H21   S    
N8    N14   A    
C5    C7    A    
C44   C46   A    
C79   C84   A    
C4    C12   A    
C18   C24   A    
N16   Ni2   S    
C30   H10   S    
N4    Ni2   S    
C52   N5    A    
C79   H44   S    
C61   H36   S    
C15   H3    S    
N8    Ni1   S    
C13   C14   A    
C51   H25   S    
C18   C19   A    
N15   Ni3   S    
C47   H19   S    
C58   C62   S    
C16   N2    A    
Br1   C2    S    
C20   C31   S    
N10   N13   A    
C80   C81   A    
C20   C21   A    
C71   H42   S    
C81   H46   S    
C35   C36   A    
C75   C77   A    
C82   C83   A    
C22   C34   S    
C68   H40   S    
C36   H15   S    
C21   C22   A    
C73   C74   A    
C9    C78   A    
C62   H31   S    
C57   H27   S    
C63   C65   A    
C80   F5    S    
C60   C62   S    
C4    H55   S    
C71   C72   A    
C25   C26   A    
C57   C61   S    
C52   H43   S    
C21   H5    S    
C79   C80   A    
C9    C72   S    
N6    N16   A    
N13   Ni1   S    
C19   C20   A    
C3    F1    S    
C26   H7    S    
C27   C29   A    
C29   C30   A    
C25   H6    S    
C63   C70   A    
C72   C73   A    
C78   H34   S    
C38   H11   S    
C56   H12   S    
C4    N16   A    
C57   H35   S    
N12   Ni2   S    
N11   Ni4   S    
C76   H50   S    
C78   N11   A    
C8    C67   A    
N2    N4    A    
C51   C53   A    
C42   C53   S    
C45   N8    A    
C39   H17   S    
C28   H24   S    
C7    C56   A    
C17   H52   S    
C11   H54   S    
C1    H1    S    
C48   C49   A    
C82   H47   S    
C48   H20   S    
C54   C59   S    
C11   C13   A    
C50   C51   A    
C36   C37   A    
C54   H26   S    
C18   H4    S    
C67   H23   S    
C15   C17   A    
C74   C75   A    
C13   C24   S    
C71   C77   A    
C68   C69   A    
C64   N6    A    
C58   H30   S    
C86   H45   S    
C39   C46   A    
C49   C50   A    
C8    C41   S    
C16   C23   A    
C3    N14   A    
C25   C31   A    
C22   C24   A    
C1    N1    A    
C12   C64   A    
C40   N4    A    
C60   C61   S    
C5    N15   A    
C54   C55   S    
C47   C48   A    
C39   C41   A    
N2    Ni3   S    
C6    C45   A    
C76   N7    A    
C74   F4    S    
N1    Ni1   S    
Br4   C55   S    
N6    Ni4   S    
C62   H33   S    
C45   H51   S    
C64   H49   S    
C61   H28   S    
C65   C66   A    
N9    N15   A    
C75   C85   S    
C23   C60   S    
C28   N3    A    
Br3   C54   S    
C41   C42   A    
C35   C46   S    
C34   C52   A    
C2    N13   A    
C33   C35   A    
C37   H16   S    
C50   H22   S    
C32   H14   S    
C10   C11   A    
C66   C68   A    
C55   F3    S    
C83   H48   S    
Br2   C5    S    
C1    C85   A    
C27   H8    S    
C16   H13   S    
