data_mof_unit_22798.cif
_audit_creation_date              2012-12-10T18:00:46-0500
_audit_creation_method            fapswitch 2.2
_symmetry_space_group_name_H-M    P1
_symmetry_Int_Tables_number       1
_space_group_crystal_system       triclinic
_cell_length_a                    15.906943
_cell_length_b                    10.81642
_cell_length_c                    9.536531
_cell_angle_alpha                 89.693712
_cell_angle_beta                  89.534775
_cell_angle_gamma                 90.491864
_cell_volume                      1640.68045059

loop_
_atom_site_label
_atom_site_type_symbol
_atom_type_description
_atom_site_fract_x
_atom_site_fract_y
_atom_site_fract_z
_atom_type_partial_charge
C1    C     C_R   0.499584 0.262152 0.500252 0.786288
C2    C     C_R   0.499739 0.737862 0.499885 0.787258
C3    C     C_R   0.479576 0.936471 0.377410 -0.185139
C4    C     C_R   0.516986 0.063584 0.624174 -0.186993
C5    C     C_R   0.499036 0.871731 0.500183 -0.012757
C6    C     C_R   0.498851 0.128302 0.500673 -0.012843
C7    C     C_R   0.447218 0.423717 0.076223 -0.145582
C8    C     C_R   0.553686 0.574900 0.923698 -0.135706
C9    C     C_R   0.446005 0.424569 0.927222 0.353032
C10   C     C_R   0.553247 0.576711 0.072879 0.360122
C11   C     C_R   0.340004 0.499751 0.500482 0.824384
C12   C     C_R   0.660017 0.500158 0.499541 0.822997
C13   C     C_3   0.971547 0.385151 0.527746 0.145020
C14   C     C_3   0.028599 0.613801 0.472982 0.144772
C15   C     C_3   0.028059 0.422001 0.402022 0.143836
C16   C     C_3   0.972098 0.576964 0.598708 0.144057
C17   C     C_1   0.250715 0.499547 0.501553 -0.185832
C18   C     C_1   0.749349 0.499991 0.498625 -0.180936
C19   C     C_3   0.026828 0.462774 0.626374 0.328912
C20   C     C_3   0.973337 0.536187 0.374352 0.330590
C21   C     C_3   0.084214 0.499565 0.500832 -0.088318
C22   C     C_3   0.915912 0.499404 0.499889 -0.090177
C23   C     C_1   0.175483 0.499470 0.501709 0.038894
C24   C     C_1   0.824605 0.499741 0.498766 0.044346
C25   C     C_R   0.479954 0.064358 0.377354 -0.186527
C26   C     C_R   0.517310 0.935669 0.623842 -0.184784
Cu1   Cu    Cu3+1 0.500000 0.500020 0.640660 0.962141
Cu2   Cu    Cu3+1 0.500000 0.499980 0.359340 0.963691
H1    H     H_    0.464714 0.112950 0.281353 0.144180
H2    H     H_    0.532459 0.887076 0.719897 0.146728
H3    H     H_    0.463179 0.888474 0.282105 0.150443
H4    H     H_    0.531800 0.111588 0.720399 0.145277
H5    H     H_    0.405707 0.362033 0.134303 0.144244
H6    H     H_    0.596995 0.633397 0.865154 0.150084
N1    N     N_R   0.500020 0.500030 0.852070 -0.185263
N2    N     N_R   0.499980 0.499970 0.147930 -0.186999
O1    O     O_R   0.500000 0.319660 0.618740 -0.568870
O2    O     O_R   0.500000 0.680340 0.381260 -0.551183
O3    O     O_R   0.499990 0.319630 0.381170 -0.593065
O4    O     O_R   0.500010 0.680370 0.618830 -0.593898
O5    O     O_R   0.379080 0.500000 0.618760 -0.541233
O6    O     O_R   0.620920 0.500000 0.381240 -0.559576
O7    O     O_R   0.379080 0.499970 0.381190 -0.585909
O8    O     O_R   0.620920 0.500030 0.618810 -0.586407
N3    N     N_2   0.060908 0.340296 0.295408 -0.423005
H7    H     H_    0.108563 0.380339 0.236498 0.248149
C27   C     C_3   0.998521 0.278588 0.210717 -0.633346
H8    H     H_    0.029830 0.209441 0.142873 0.211643
H9    H     H_    0.966002 0.346368 0.142689 0.241821
H10   H     H_    0.951636 0.229405 0.277897 0.258183
N4    N     N_2   0.939350 0.658722 0.705344 -0.422030
H11   H     H_    0.891691 0.618745 0.764297 0.249738
C28   C     C_3   0.001825 0.720311 0.789975 -0.633113
H12   H     H_    0.970612 0.789562 0.857803 0.212657
H13   H     H_    0.048754 0.769362 0.722754 0.257431
H14   H     H_    0.034290 0.652479 0.858012 0.241161
N5    N     N_2   0.938187 0.263037 0.559044 -0.420940
H15   H     H_    0.891023 0.264041 0.633788 0.245706
C29   C     C_3   0.000207 0.168924 0.585194 -0.643273
H16   H     H_    0.968283 0.077687 0.596208 0.212742
H17   H     H_    0.034429 0.188722 0.683668 0.243382
H18   H     H_    0.045719 0.163633 0.496686 0.257711
N6    N     N_2   0.062012 0.735890 0.441692 -0.421827
H19   H     H_    0.109158 0.734857 0.366918 0.245550
C30   C     C_3   0.000044 0.830092 0.415634 -0.640971
H20   H     H_    0.032022 0.921293 0.404651 0.212022
H21   H     H_    0.954556 0.835407 0.504174 0.257967
H22   H     H_    0.965794 0.810378 0.317168 0.245008
O9    O     O_3   0.944022 0.574302 0.243385 -0.727256
H23   H     H_    0.995172 0.590897 0.186036 0.314658
O10   O     O_3   0.056261 0.424678 0.757281 -0.732959
H24   H     H_    0.005164 0.408008 0.814728 0.315540
N7    N     N_2   0.390511 0.343711 0.855594 -0.388808
H25   H     H_    0.403908 0.251870 0.873444 0.222742
C31   C     C_3   0.302061 0.369447 0.875822 -0.634480
H26   H     H_    0.282058 0.346561 0.984869 0.191271
H27   H     H_    0.264506 0.312300 0.802503 0.240113
H28   H     H_    0.288977 0.468418 0.853897 0.249920
N8    N     N_2   0.610183 0.654988 0.145303 -0.372997
H29   H     H_    0.669920 0.619099 0.150565 0.254712
C32   C     C_3   0.610257 0.784136 0.104655 -0.719795
H30   H     H_    0.646557 0.798172 0.005772 0.203518
H31   H     H_    0.640277 0.839759 0.188271 0.243890
H32   H     H_    0.545025 0.817395 0.090097 0.224269

loop_
_geom_bond_atom_site_label_1
_geom_bond_atom_site_label_2
_ccdc_geom_bond_type
N6    C30   S    
C5    C26   A    
C7    H5    S    
C7    N2    A    
C19   O10   S    
C16   N4    S    
C32   H30   S    
C27   H9    S    
N3    H7    S    
C17   C23   T    
C18   C24   T    
C14   C21   S    
C19   C21   S    
N5    C29   S    
C6    C25   A    
C13   N5    S    
N7    H25   S    
C2    O2    A    
C12   O6    A    
Cu1   O8    S    
C30   H21   S    
C11   O7    A    
C1    O1    A    
N3    C27   S    
C29   H16   S    
N7    C31   S    
C9    N7    S    
C32   H31   S    
C27   H10   S    
C28   H13   S    
C25   H1    S    
C15   C20   S    
C29   H17   S    
C13   C19   S    
N4    H11   S    
C14   C20   S    
C3    C25   A    
C4    C6    A    
N8    C32   S    
Cu2   O3    S    
Cu1   N1    S    
C28   H12   S    
C1    C6    S    
N4    C28   S    
C8    N1    A    
C31   H26   S    
Cu1   O5    S    
C27   H8    S    
Cu2   O2    S    
Cu1   O4    S    
C30   H22   S    
C8    H6    S    
C3    H3    S    
C31   H27   S    
C4    H4    S    
C20   C22   S    
C26   H2    S    
C13   C15   S    
C14   C16   S    
C20   O9    S    
C2    C5    S    
C15   N3    S    
C32   H32   S    
C28   H14   S    
C7    C9    A    
C11   C17   S    
C29   H18   S    
C16   C22   S    
N6    H19   S    
C3    C5    A    
C4    C26   A    
C10   N8    S    
Cu2   O7    S    
C21   C23   S    
O10   H24   S    
C12   O8    A    
N5    H15   S    
Cu1   O1    S    
C16   C19   S    
C14   N6    S    
Cu2   O6    S    
C13   C22   S    
C11   O5    A    
C22   C24   S    
O9    H23   S    
C31   H28   S    
C1    O3    A    
N8    H29   S    
C2    O4    A    
C15   C21   S    
Cu2   N2    S    
C8    C10   A    
C30   H20   S    
C12   C18   S    
Cu1   Cu2   S    
C9    N1    A    
C10   N2    A    
