data_mof_unit_68089.cif
_audit_creation_date              2013-03-05T15:53:45-0500
_audit_creation_method            fapswitch 2.2
_symmetry_space_group_name_H-M    P1
_symmetry_Int_Tables_number       1
_space_group_crystal_system       triclinic
_cell_length_a                    7.268353
_cell_length_b                    11.758009
_cell_length_c                    36.555398
_cell_angle_alpha                 90.181033
_cell_angle_beta                  90.172057
_cell_angle_gamma                 89.811798
_cell_volume                      3124.02759129

loop_
_atom_site_label
_atom_site_type_symbol
_atom_site_description
_atom_site_fract_x
_atom_site_fract_y
_atom_site_fract_z
_atom_type_partial_charge
O1    O     O_R   0.379730 0.148600 0.662710 -0.578577
O2    O     O_R   0.620270 0.851400 0.337290 -0.567231
O3    O     O_R   0.120270 0.648600 0.337290 -0.583738
O4    O     O_R   0.879730 0.351400 0.662710 -0.574778
O5    O     O_R   0.722480 0.134490 0.741330 -0.583716
O6    O     O_R   0.277520 0.865510 0.258670 -0.578226
O7    O     O_R   0.777520 0.634490 0.258670 -0.584714
O8    O     O_R   0.222480 0.365510 0.741330 -0.570075
O9    O     O_R   0.892880 0.345890 0.741600 -0.575535
O10   O     O_R   0.107120 0.654110 0.258400 -0.556875
O11   O     O_R   0.607120 0.845890 0.258400 -0.584982
O12   O     O_R   0.392880 0.154110 0.741600 -0.559466
C1    C     C_R   0.552408 0.112456 0.754273 0.986157
C2    C     C_R   0.446738 0.891733 0.247380 0.962778
C3    C     C_R   0.947229 0.614738 0.245060 0.976254
C4    C     C_R   0.050109 0.399292 0.749328 0.989915
O13   O     O_R   0.709490 0.135560 0.662990 -0.563588
O14   O     O_R   0.290510 0.864440 0.337010 -0.571274
O15   O     O_R   0.790510 0.635560 0.337010 -0.567419
O16   O     O_R   0.209490 0.364440 0.662990 -0.561923
C5    C     C_R   0.541377 0.106203 0.651560 1.033336
C6    C     C_R   0.459554 0.888525 0.350136 1.020209
C7    C     C_R   0.958300 0.615305 0.350633 1.028986
C8    C     C_R   0.041523 0.394104 0.651735 1.015177
O17   O     O_3   0.552800 0.316610 0.702160 -0.250036
O18   O     O_3   0.447200 0.683390 0.297840 -0.272242
O19   O     O_3   0.947200 0.816610 0.297840 -0.267417
O20   O     O_3   0.052800 0.183390 0.702160 -0.270188
V1    V     V_3+5 0.827630 0.234380 0.702160 1.314539
V2    V     V_3+5 0.172370 0.765620 0.297840 1.308896
V3    V     V_3+5 0.672370 0.734380 0.297840 1.297979
V4    V     V_3+5 0.327630 0.265620 0.702160 1.329679
C9    C     C_R   0.961718 0.749171 0.885368 0.452013
C10   C     C_R   0.934588 0.372968 0.078260 0.453948
C11   C     C_R   0.551733 0.237126 0.109996 0.443089
C12   C     C_R   0.579857 0.863800 0.918996 0.464144
O21   O     O_2   0.861327 0.654200 0.890046 -0.603733
O22   O     O_2   0.856064 0.476411 0.077410 -0.579033
O23   O     O_2   0.652883 0.141706 0.105911 -0.597669
O24   O     O_2   0.658950 0.966727 0.919929 -0.582840
N1    N     N_R   0.012381 0.782479 0.851058 -0.158767
N2    N     N_R   0.981768 0.327067 0.111594 -0.161452
N3    N     N_R   0.493335 0.270224 0.143859 -0.158168
N4    N     N_R   0.526780 0.819488 0.885773 -0.158055
C13   C     C_R   0.066383 0.895132 0.847571 0.502530
C14   C     C_R   0.043204 0.216291 0.110805 0.504804
C15   C     C_R   0.438609 0.383089 0.147303 0.503081
C16   C     C_R   0.465771 0.708983 0.886399 0.508101
C17   C     C_R   0.981982 0.705613 0.784662 -0.188006
C18   C     C_R   0.951471 0.349724 0.182310 -0.106201
C19   C     C_R   0.496814 0.195337 0.210111 -0.182174
C20   C     C_R   0.541342 0.843578 0.815027 -0.109345
C21   C     C_R   0.963157 0.607295 0.761436 0.326971
C22   C     C_R   0.973583 0.419603 0.214180 0.279165
C23   C     C_R   0.489922 0.100458 0.234021 0.327513
C24   C     C_R   0.513077 0.914082 0.783432 0.294983
C25   C     C_R   0.086019 0.488550 0.809509 -0.231284
C26   C     C_R   0.977189 0.586292 0.176613 -0.202166
C27   C     C_R   0.423142 0.973815 0.184500 -0.229063
C28   C     C_R   0.529942 0.079903 0.822047 -0.206055
C29   C     C_R   0.068837 0.578504 0.833673 0.113007
C30   C     C_R   0.997751 0.517012 0.145335 0.006974
C31   C     C_R   0.434375 0.065327 0.160377 0.115323
C32   C     C_R   0.509593 0.010478 0.853043 -0.008820
C33   C     C_R   0.025481 0.691683 0.822559 0.108935
C34   C     C_R   0.973732 0.396645 0.146185 0.093705
C35   C     C_R   0.473582 0.179337 0.171845 0.115650
C36   C     C_R   0.528446 0.889967 0.851473 0.081390
C37   C     C_R   0.041651 0.928802 0.913425 -0.023200
C38   C     C_R   0.002127 0.194615 0.045174 -0.059037
C39   C     C_R   0.475292 0.416864 0.081896 -0.031368
C40   C     C_R   0.517236 0.684349 0.951371 -0.056931
C41   C     C_R   0.015277 0.812315 0.916342 -0.062407
C42   C     C_R   0.964176 0.311785 0.044491 -0.066069
C43   C     C_R   0.503388 0.300511 0.078840 -0.073561
C44   C     C_R   0.555207 0.801411 0.952535 -0.070932
C45   C     C_R   0.057195 0.759855 0.949100 0.029593
C46   C     C_R   0.958419 0.364421 0.010271 -0.011509
C47   C     C_R   0.463511 0.248088 0.045942 0.037778
C48   C     C_R   0.564077 0.852990 0.986938 -0.012353
C49   C     C_R   0.052664 0.973423 0.878100 -0.137649
C50   C     C_R   0.024091 0.144707 0.079511 -0.068537
C51   C     C_R   0.458541 0.461413 0.117206 -0.139611
C52   C     C_R   0.491512 0.635723 0.916936 -0.062740
C53   C     C_R   0.032470 0.500289 0.773513 -0.230296
C54   C     C_R   0.960809 0.538987 0.211530 -0.246493
C55   C     C_R   0.456083 0.989442 0.221462 -0.275983
C56   C     C_R   0.536999 0.033579 0.786757 -0.246670
H1    H     H_    0.133987 0.407142 0.819523 0.167180
H2    H     H_    0.985286 0.677783 0.173692 0.154526
H3    H     H_    0.388497 0.890356 0.174207 0.174705
H4    H     H_    0.528763 0.171428 0.825560 0.155595
H5    H     H_    0.102120 0.558400 0.861715 0.204612
H6    H     H_    0.036954 0.560238 0.120586 0.195513
H7    H     H_    0.403170 0.046347 0.132122 0.192083
H8    H     H_    0.476254 0.053981 0.878184 0.200194
C57   C     C_R   0.040229 0.007761 0.014179 -0.140830
C58   C     C_R   0.031771 0.118524 0.943033 -0.055479
C59   C     C_R   0.480857 0.496684 0.981461 -0.140845
C60   C     C_R   0.487935 0.606397 0.052949 -0.054071
C61   C     C_R   0.018651 0.184068 0.977032 0.106839
C62   C     C_R   0.060323 0.943616 0.980711 0.064074
C63   C     C_R   0.501888 0.672388 0.019312 0.097076
C64   C     C_R   0.461449 0.431943 0.014663 0.063674
C65   C     C_R   0.021162 0.128431 0.011949 0.028348
C66   C     C_R   0.047507 0.998224 0.945866 0.079023
C67   C     C_R   0.499507 0.617336 0.984227 0.023553
C68   C     C_R   0.471850 0.486302 0.049665 0.076602
C69   C     C_R   0.029371 0.957005 0.050034 0.297364
C70   C     C_R   0.023142 0.163600 0.906000 0.416604
C71   C     C_R   0.489766 0.446694 0.945366 0.304301
C72   C     C_R   0.496938 0.650924 0.090075 0.415681
C73   C     C_R   0.028429 0.025207 0.081931 -0.100863
C74   C     C_R   0.048496 0.092426 0.874741 -0.119645
C75   C     C_R   0.486225 0.516231 0.913826 -0.098453
C76   C     C_R   0.464940 0.580233 0.120995 -0.117345
O25   O     O_2   0.135358 0.175367 0.139127 -0.644194
O26   O     O_2   0.142211 0.931440 0.816391 -0.581044
O27   O     O_2   0.366458 0.670397 0.858844 -0.651908
O28   O     O_2   0.356050 0.419597 0.177902 -0.577023
C77   C     C_R   0.094989 0.824916 0.980077 -0.189310
C78   C     C_R   0.997720 0.303742 0.978119 -0.143599
C79   C     C_R   0.427683 0.313163 0.014933 -0.180052
C80   C     C_R   0.523019 0.791954 0.018786 -0.131011
H9    H     H_    0.155247 0.780481 0.002696 0.175887
H10   H     H_    0.000425 0.353524 0.954152 0.195467
H11   H     H_    0.369504 0.268829 0.992028 0.173556
H12   H     H_    0.518484 0.841203 0.042966 0.200372
C81   C     C_R   0.965742 0.539593 0.383169 -0.347056
C82   C     C_R   0.039582 0.479304 0.621373 -0.304978
C83   C     C_R   0.536131 0.020837 0.621112 -0.318753
C84   C     C_R   0.471589 0.960917 0.384082 -0.309784
C85   C     C_R   0.996818 0.347243 0.407897 0.296002
C86   C     C_R   0.058560 0.675022 0.598351 0.317739
C87   C     C_R   0.545677 0.823444 0.598885 0.308680
C88   C     C_R   0.496902 0.148897 0.411733 0.280693
C89   C     C_R   0.991135 0.423044 0.377781 0.274545
C90   C     C_R   0.066114 0.597067 0.628300 0.332834
C91   C     C_R   0.548221 0.903309 0.628294 0.322459
C92   C     C_R   0.530474 0.074728 0.382186 0.232306
C93   C     C_R   0.951536 0.584274 0.418876 -0.026357
C94   C     C_R   0.028957 0.439219 0.584992 -0.030813
C95   C     C_R   0.526229 0.058743 0.584793 -0.035821
C96   C     C_R   0.436979 0.914112 0.419011 -0.023260
C97   C     C_R   0.976529 0.512271 0.450149 0.034751
C98   C     C_R   0.015333 0.516181 0.554579 0.068609
C99   C     C_R   0.501703 0.979835 0.555063 0.068158
C100  C     C_R   0.457283 0.983030 0.451398 0.032594
C101  C     C_R   0.972230 0.391793 0.444307 -0.041001
C102  C     C_R   0.038780 0.635171 0.561386 -0.082154
C103  C     C_R   0.523873 0.861024 0.561944 -0.084509
C104  C     C_R   0.457873 0.103587 0.446775 -0.037594
C105  C     C_R   0.998970 0.553875 0.487279 0.094179
C106  C     C_R   0.978758 0.479099 0.517464 0.096846
C107  C     C_R   0.458868 0.015518 0.518474 0.096259
C108  C     C_R   0.476049 0.940068 0.488188 0.092500
C109  C     C_R   0.911653 0.370755 0.509603 -0.299043
C110  C     C_R   0.044310 0.666777 0.495219 -0.275489
C111  C     C_R   0.520194 0.826739 0.495805 -0.280922
C112  C     C_R   0.392618 0.124571 0.511354 -0.282415
C113  C     C_R   0.923779 0.323171 0.474966 0.067670
C114  C     C_R   0.040658 0.709933 0.530656 -0.002542
C115  C     C_R   0.523591 0.784927 0.531360 0.000776
C116  C     C_R   0.412071 0.173167 0.477356 0.054899
H13   H     H_    0.846796 0.320821 0.530430 0.158312
H14   H     H_    0.082870 0.725075 0.474006 0.156610
H15   H     H_    0.554457 0.767557 0.474396 0.156610
H16   H     H_    0.332577 0.175779 0.532625 0.157116
C117  C     C_1   0.057315 0.317604 0.580277 0.038675
N5    N     N_1   0.078079 0.220369 0.577339 -0.067937
C118  C     C_1   0.887316 0.700810 0.421982 0.052051
N6    N     N_1   0.837219 0.794132 0.424080 -0.070628
C119  C     C_1   0.376689 0.797011 0.420112 0.047092
N7    N     N_1   0.331576 0.702763 0.420458 -0.071303
C120  C     C_1   0.563812 0.178808 0.579255 0.040737
N8    N     N_1   0.591877 0.274896 0.575533 -0.070202
N9    N     N_R   0.122768 0.636996 0.664561 0.276461
O29   O     O_R   0.142680 0.744686 0.671644 -0.203245
O30   O     O_R   0.192399 0.567531 0.688465 -0.375914
N10   N     N_R   0.000390 0.381713 0.340913 0.274929
O31   O     O_R   0.152951 0.339142 0.328414 -0.189960
O32   O     O_R   0.862945 0.398526 0.318678 -0.312161
N11   N     N_R   0.643758 0.111677 0.352527 0.276865
O33   O     O_R   0.654715 0.218989 0.344373 -0.200188
O34   O     O_R   0.770055 0.043434 0.339999 -0.290474
N12   N     N_R   0.581568 0.865171 0.665189 0.272695
O35   O     O_R   0.515200 0.769444 0.676620 -0.175787
O36   O     O_R   0.697906 0.918587 0.686121 -0.351718
N13   N     N_R   0.027494 0.227072 0.401161 0.240663
O37   O     O_R   0.001893 0.182516 0.369119 -0.243482
O38   O     O_R   0.118864 0.166206 0.424291 -0.464471
N14   N     N_R   0.044008 0.794375 0.606440 0.244038
O39   O     O_R   0.910173 0.831133 0.626539 -0.342705
O40   O     O_R   0.180713 0.862176 0.600930 -0.438318
N15   N     N_R   0.559297 0.704444 0.607257 0.255135
O41   O     O_R   0.421699 0.650300 0.620785 -0.369642
O42   O     O_R   0.703251 0.645919 0.598895 -0.442037
N16   N     N_R   0.496752 0.269259 0.405401 0.248247
O43   O     O_R   0.384435 0.313391 0.381761 -0.304236
O44   O     O_R   0.621639 0.333642 0.419774 -0.463789
C121  C     C_1   0.092421 0.640228 0.948257 0.138000
N17   N     N_1   0.118007 0.543924 0.945371 -0.076159
C122  C     C_1   0.916623 0.483164 0.007866 0.220940
N18   N     N_1   0.881687 0.578848 0.007541 -0.005333
C123  C     C_1   0.426487 0.128896 0.046949 0.128443
N19   N     N_1   0.400496 0.032952 0.050276 -0.077248
C124  C     C_1   0.610738 0.970909 0.989661 0.230831
N20   N     N_1   0.649421 0.065961 0.989965 -0.010821
N21   N     N_R   0.045310 0.372307 0.247539 0.251546
O45   O     O_R   0.186884 0.421102 0.262629 -0.324242
O46   O     O_R   0.000247 0.271114 0.258452 -0.282918
N22   N     N_R   0.852499 0.612659 0.728504 0.229175
O47   O     O_R   0.839520 0.705745 0.709717 -0.279775
O48   O     O_R   0.733653 0.533081 0.721586 -0.338664
N23   N     N_R   0.437980 0.866432 0.749904 0.259509
O49   O     O_R   0.349194 0.931685 0.727193 -0.342865
O50   O     O_R   0.414055 0.757368 0.746317 -0.299415
N24   N     N_R   0.534896 0.116243 0.271236 0.219479
O51   O     O_R   0.403156 0.127695 0.294972 -0.318322
O52   O     O_R   0.701164 0.148541 0.278917 -0.276449
C125  C     C_1   0.909794 0.231293 0.188283 0.262862
N25   N     N_1   0.880951 0.135847 0.193408 -0.032265
C126  C     C_1   0.939235 0.816116 0.769846 0.366712
N26   N     N_1   0.907529 0.904412 0.757375 0.015862
C127  C     C_1   0.584415 0.725200 0.808802 0.269064
N27   N     N_1   0.612956 0.629476 0.803771 -0.029478
C128  C     C_1   0.544150 0.303986 0.226159 0.370772
N28   N     N_1   0.581120 0.390101 0.239698 0.009676
C129  C     C_1   0.014653 0.970170 0.117336 0.432857
N29   N     N_1   0.003850 0.926218 0.145534 -0.056757
C130  C     C_1   0.045507 0.143398 0.838654 0.273719
N30   N     N_1   0.042699 0.183537 0.809798 -0.069176
C131  C     C_1   0.493419 0.463002 0.877970 0.444451
N31   N     N_1   0.498951 0.420346 0.849410 -0.060136
C132  C     C_1   0.467266 0.630538 0.157282 0.263912
N32   N     N_1   0.469637 0.669952 0.186326 -0.075396
N33   N     N_R   0.013750 0.836677 0.055141 0.232046
O53   O     O_R   0.873605 0.782935 0.041942 -0.401047
O54   O     O_R   0.131826 0.781184 0.075045 -0.420031
N34   N     N_R   0.968951 0.278032 0.898171 0.217917
O55   O     O_R   0.803315 0.295417 0.885970 -0.395829
O56   O     O_R   0.094579 0.352085 0.890090 -0.460063
N35   N     N_R   0.511690 0.326412 0.939760 0.234748
O57   O     O_R   0.650606 0.273416 0.953963 -0.404166
O58   O     O_R   0.399971 0.269808 0.918792 -0.423644
N36   N     N_R   0.563728 0.762334 0.098317 0.221527
O59   O     O_R   0.731421 0.771711 0.110334 -0.381178
O60   O     O_R   0.446454 0.841464 0.106995 -0.456360
C133  C     C_1   0.873967 0.204482 0.473464 0.203151
N37   N     N_1   0.839103 0.108543 0.473148 -0.070285
C134  C     C_1   0.032827 0.832700 0.532687 0.189587
N38   N     N_1   0.024426 0.931027 0.533600 -0.047597
C135  C     C_1   0.521586 0.662205 0.533804 0.200874
N39   N     N_1   0.518639 0.563865 0.535186 -0.047289
C136  C     C_1   0.384969 0.294930 0.476414 0.193834
N40   N     N_1   0.365743 0.392661 0.476268 -0.060218

loop_
_geom_bond_atom_site_label_1
_geom_bond_atom_site_label_2
_geom_bond_distance
_ccdc_geom_bond_type
C13   O26   1.339228 S    
C84   C96   1.415516 A    
C39   C43   1.386770 A    
C118  N6    1.157379 T    
C18   C125  1.443472 S    
O1    C5    1.338951 A    
C58   C70   1.456467 A    
C109  C113  1.385574 A    
O13   V1    2.031340 S    
C121  N17   1.151481 T    
C94   C98   1.438693 A    
O3    C7    1.335963 A    
C126  N26   1.157399 T    
C10   N2    1.376298 A    
C95   C120  1.453704 S    
C85   C89   1.419069 A    
C88   C92   1.407434 A    
O15   V3    2.033283 S    
C28   C56   1.399762 A    
C85   N13   1.450143 S    
C134  N38   1.157920 T    
C64   C79   1.418872 A    
C123  N19   1.151310 T    
C112  H16   1.074689 S    
C87   C91   1.425328 A    
C11   C43   1.406188 A    
C133  N37   1.156986 T    
C18   C22   1.432456 A    
C17   C33   1.429835 A    
C112  C116  1.377368 A    
O12   V4    2.006583 S    
O20   V1    1.741124 S    
O9    C4    1.334806 A    
C2    C55   1.493287 S    
O10   C3    1.342165 A    
N11   O34   1.300624 A    
N2    C14   1.375783 A    
C135  N39   1.157817 T    
O4    C8    1.343115 A    
O11   C2    1.343926 A    
C17   C21   1.438791 A    
C24   C56   1.421112 A    
C72   C76   1.425249 A    
C81   C93   1.409448 A    
N35   O57   1.293103 A    
C86   C102  1.435797 A    
N33   O54   1.298957 A    
C31   H7    1.079584 S    
C93   C118  1.450316 S    
C7    C81   1.488633 S    
N13   O38   1.290532 A    
C117  N5    1.157416 T    
C86   N14   1.436878 S    
C105  C110  1.398214 A    
C115  C135  1.446140 S    
O16   C8    1.332839 A    
C5    C83   1.496887 S    
C24   N23   1.451770 S    
C12   C44   1.442638 A    
N33   O53   1.291903 A    
C14   C50   1.424797 A    
N24   O52   1.297616 A    
C22   N21   1.437592 S    
C128  N28   1.157665 T    
C25   C53   1.378280 A    
N9    O30   1.298438 A    
C29   H5    1.079291 S    
C49   C74   1.405222 A    
C38   C42   1.404425 A    
C94   C117  1.453858 S    
C132  N32   1.157184 T    
C37   C41   1.388101 A    
N16   O43   1.295522 A    
O14   V2    2.031335 S    
C15   C51   1.444923 A    
C16   O27   1.317728 S    
C91   N12   1.442202 S    
C11   N3    1.364881 A    
C131  N31   1.157563 T    
C70   C74   1.426266 A    
C88   N16   1.434735 S    
C57   C62   1.442735 A    
C20   C36   1.441243 A    
C12   N4    1.374701 A    
C96   C100  1.440070 A    
C80   H12   1.055690 S    
C97   C105  1.450236 A    
O17   V4    1.744822 S    
O7    C3    1.350591 A    
C59   C64   1.442232 A    
O11   V3    2.006588 S    
O18   V3    1.744822 S    
O8    C4    1.345767 A    
C98   C102  1.430903 A    
C39   C68   1.435705 A    
C17   C126  1.441811 S    
O19   V2    1.741124 S    
C61   C65   1.436146 A    
C21   C53   1.424683 A    
C48   C80   1.402968 A    
C38   C50   1.395788 A    
C63   C80   1.414929 A    
C26   C54   1.399468 A    
C88   C104  1.418697 A    
N10   O32   1.301000 A    
C127  N27   1.158038 T    
C23   N24   1.410015 S    
O5    V1    2.009213 S    
C28   H4    1.083393 S    
O17   V1    2.216389 S    
C102  C114  1.428721 A    
C31   C35   1.432558 A    
C69   N33   1.432593 S    
C60   C68   1.421956 A    
C92   N11   1.432799 S    
O7    V3    2.000971 S    
C30   C34   1.427013 A    
O19   V3    2.222106 S    
C124  N20   1.153350 T    
O8    V4    2.000971 S    
C100  C104  1.428099 A    
O20   V4    2.222106 S    
C45   C77   1.391749 A    
C46   C122  1.430788 S    
C32   H8    1.078226 S    
C106  C109  1.394374 A    
C109  H13   1.073963 S    
C74   C130  1.450741 S    
C22   C54   1.410107 A    
C83   C91   1.409835 A    
C96   C119  1.447011 S    
C19   C35   1.420484 A    
N35   O58   1.298621 A    
C47   C123  1.428532 S    
C47   C79   1.393053 A    
C60   C63   1.460011 A    
C9    O21   1.347557 S    
C16   C52   1.423668 A    
C14   O25   1.322484 S    
O2    V3    2.025725 S    
N14   O40   1.292594 A    
C78   H10   1.055459 S    
O3    V2    2.033589 S    
C72   N36   1.429424 S    
N11   O33   1.300173 A    
N3    C35   1.489323 S    
C77   H9    1.071230 S    
C129  N29   1.157533 T    
C8    C82   1.497509 S    
O6    C2    1.335847 A    
C125  N25   1.158281 T    
C57   C69   1.444378 A    
O10   V2    2.002667 S    
C46   C78   1.402651 A    
C79   H11   1.071544 S    
C120  N8    1.157245 T    
C98   C106  1.447899 A    
C40   C67   1.444830 A    
C12   O24   1.341811 S    
C59   C71   1.444324 A    
C75   C131  1.451704 S    
N34   O56   1.299094 A    
N21   O45   1.300303 A    
C85   C101  1.440210 A    
C40   C44   1.405196 A    
C1    C56   1.513663 S    
C27   H3    1.080137 S    
O12   C1    1.339182 A    
C25   C29   1.381465 A    
C69   C73   1.413053 A    
C26   H2    1.083185 S    
C40   C52   1.393267 A    
C25   H1    1.082143 S    
C26   C30   1.409820 A    
C10   C42   1.443096 A    
C3    C54   1.516124 S    
C9    C41   1.406684 A    
C15   O28   1.339733 S    
O6    V2    2.009212 S    
N22   O48   1.299285 A    
C60   C72   1.454432 A    
C52   C75   1.409863 A    
C103  C115  1.429760 A    
C30   H6    1.078623 S    
C119  N7    1.156816 T    
C19   C128  1.446191 S    
C4    C53   1.483695 S    
C111  C115  1.391152 A    
N4    C36   1.505235 S    
C116  C136  1.445042 S    
C101  C113  1.428665 A    
N12   O36   1.300593 A    
C136  N40   1.157156 T    
C82   C90   1.420499 A    
C32   C36   1.424116 A    
C95   C99   1.437793 A    
C64   C68   1.430341 A    
C83   C95   1.403392 A    
N10   O31   1.298783 A    
O15   C7    1.336874 A    
O16   V4    2.033288 S    
N36   O59   1.299269 A    
C71   N35   1.436820 S    
C6    C84   1.505050 S    
C107  C112  1.393222 A    
C10   O22   1.342256 S    
O5    C1    1.351080 A    
C51   C76   1.404400 A    
C108  C111  1.398244 A    
C13   C49   1.447887 A    
C44   C48   1.395884 A    
C50   C73   1.408388 A    
N16   O44   1.293130 A    
C104  C116  1.422857 A    
C38   C65   1.447138 A    
C45   C121  1.429111 S    
C86   C90   1.430863 A    
O4    V1    2.033589 S    
C63   C67   1.434890 A    
C37   C66   1.438148 A    
C18   C34   1.442512 A    
C73   C129  1.452722 S    
O14   C6    1.348319 A    
C93   C97   1.435433 A    
C99   C107  1.435994 A    
C84   C92   1.408291 A    
C58   C61   1.463534 A    
C59   C67   1.428765 A    
C27   C31   1.396105 A    
C61   C78   1.415280 A    
C58   C66   1.422806 A    
C28   C32   1.407027 A    
C9    N1    1.367050 A    
N14   O39   1.293222 A    
N9    O29   1.300078 A    
N23   O50   1.300850 A    
C105  C106  1.421295 A    
C57   C65   1.427697 A    
N1    C33   1.492324 S    
N4    C16   1.374555 A    
N1    C13   1.389097 A    
O2    C6    1.332019 A    
C113  C133  1.443736 S    
O9    V1    2.002661 S    
N24   O51   1.300489 A    
C89   N10   1.432912 S    
N3    C15   1.389593 A    
C21   N22   1.447231 S    
C87   C103  1.430380 A    
C11   O23   1.347510 S    
C76   C132  1.450770 S    
N34   O55   1.298399 A    
N21   O46   1.299394 A    
C62   C77   1.417554 A    
C111  H15   1.074848 S    
C62   C66   1.430908 A    
C19   C23   1.420473 A    
O1    V4    2.025725 S    
N23   O49   1.300718 A    
C23   C55   1.404568 A    
N13   O37   1.294808 A    
C82   C94   1.411525 A    
C27   C55   1.383281 A    
C114  C134  1.446109 S    
C37   C49   1.397966 A    
C110  C114  1.390025 A    
C87   N15   1.436257 S    
N15   O41   1.288098 A    
C110  H14   1.075014 S    
C29   C33   1.426591 A    
C20   C127  1.443155 S    
C48   C124  1.431536 S    
C81   C89   1.395589 A    
N22   O47   1.296979 A    
C71   C75   1.415682 A    
N36   O60   1.299000 A    
C42   C46   1.397861 A    
C70   N34   1.430263 S    
C99   C103  1.428730 A    
C130  N30   1.157048 T    
N2    C34   1.505070 S    
C41   C45   1.381488 A    
C39   C51   1.396963 A    
C100  C108  1.444035 A    
C122  N18   1.152633 T    
N12   O35   1.296897 A    
C107  C108  1.422061 A    
C90   N9    1.463239 S    
C43   C47   1.380056 A    
C97   C101  1.432353 A    
C20   C24   1.437670 A    
N15   O42   1.287483 A    
O18   V2    2.216389 S    
O13   C5    1.336257 A    
