data_mof_unit_37504.cif
_audit_creation_date              2012-12-10T17:59:17-0500
_audit_creation_method            fapswitch 2.2
_symmetry_space_group_name_H-M    P1
_symmetry_Int_Tables_number       1
_space_group_crystal_system       triclinic
_cell_length_a                    10.795312
_cell_length_b                    9.622466
_cell_length_c                    10.716598
_cell_angle_alpha                 89.412175
_cell_angle_beta                  93.214748
_cell_angle_gamma                 90.558303
_cell_volume                      1111.35649425

loop_
_atom_site_label
_atom_site_type_symbol
_atom_type_description
_atom_site_fract_x
_atom_site_fract_y
_atom_site_fract_z
_atom_type_partial_charge
C1    C     C_R   0.263169 0.499945 0.510050 0.797986
C2    C     C_3   0.567416 0.359795 0.932174 -0.375744
C3    C     C_R   0.065554 0.378633 0.550361 -0.167716
C4    C     C_R   0.066101 0.627997 0.525668 -0.202216
C5    C     C_R   0.936878 0.377381 0.543400 -0.192251
C6    C     C_R   0.937729 0.628002 0.518535 -0.197197
C7    C     C_R   0.872465 0.501695 0.520642 -0.017894
C8    C     C_R   0.130208 0.501883 0.528520 -0.024826
C9    C     C_R   0.414758 0.073081 0.427128 0.064443
C10   C     C_R   0.426355 0.927046 0.415155 0.066621
C11   C     C_R   0.577517 0.925879 0.581055 -0.064366
C12   C     C_R   0.581316 0.074040 0.577176 -0.063530
C13   C     C_R   0.510060 0.500042 0.260966 0.762741
C14   C     C_R   0.737886 0.500488 0.505835 0.763605
C15   C     C_R   0.507431 0.499482 0.739981 0.735492
C16   C     C_3   0.597799 0.619216 0.075330 -0.379735
C17   C     C_3   0.382218 0.510219 0.065046 -0.375048
C18   C     C_3   0.595716 0.619870 0.931200 -0.379774
C19   C     C_3   0.380422 0.515917 0.921870 -0.386900
C20   C     C_3   0.574555 0.362139 0.076183 -0.379914
C21   C     C_3   0.516162 0.498297 0.122739 0.160440
C22   C     C_3   0.513112 0.498516 0.878256 0.177535
Cu1   Cu    Cu3+1 0.500020 0.640660 0.500000 0.930142
Cu2   Cu    Cu3+1 0.500020 0.359340 0.500000 0.930683
H1    H     H_    0.694965 0.608096 0.114399 0.145489
H2    H     H_    0.326002 0.420086 0.094219 0.150018
H3    H     H_    0.639738 0.870708 0.646428 0.119969
H4    H     H_    0.646869 0.129150 0.639156 0.118424
H5    H     H_    0.565305 0.720154 0.107217 0.190010
H6    H     H_    0.338008 0.603572 0.100497 0.195784
H7    H     H_    0.559626 0.721585 0.895482 0.171055
H8    H     H_    0.341581 0.617044 0.887757 0.167319
H9    H     H_    0.691887 0.609658 0.900252 0.146246
H10   H     H_    0.318462 0.432138 0.882478 0.149756
H11   H     H_    0.673162 0.355439 0.111954 0.153764
H12   H     H_    0.527587 0.267963 0.110678 0.163434
H13   H     H_    0.661704 0.343298 0.898275 0.147820
H14   H     H_    0.507902 0.270550 0.899922 0.173306
H15   H     H_    0.114482 0.284014 0.572969 0.153210
H16   H     H_    0.114201 0.726597 0.529216 0.135657
H17   H     H_    0.888284 0.279508 0.555086 0.138204
H18   H     H_    0.890117 0.726521 0.510099 0.146416
N1    N     N_R   0.500030 0.852070 0.500030 -0.178156
N2    N     N_R   0.500030 0.147930 0.500030 -0.178221
O1    O     O_R   0.319660 0.618740 0.499990 -0.590839
O2    O     O_R   0.319660 0.381260 0.499990 -0.569536
O3    O     O_R   0.499990 0.618790 0.317690 -0.572718
O4    O     O_R   0.499990 0.381210 0.317690 -0.590791
O5    O     O_R   0.680370 0.618830 0.500010 -0.589057
O6    O     O_R   0.680370 0.381170 0.500010 -0.588645
O7    O     O_R   0.500030 0.618780 0.682310 -0.590325
O8    O     O_R   0.500030 0.381220 0.682310 -0.591256
C23   C     C_R   0.295590 0.132305 0.376330 0.183141
C24   C     C_R   0.284077 0.191129 0.256128 -0.091190
C25   C     C_R   0.167045 0.216916 0.198128 -0.163025
C26   C     C_R   0.059996 0.179354 0.257836 -0.082978
C27   C     C_R   0.069946 0.114481 0.374847 -0.146398
C28   C     C_R   0.186874 0.091904 0.434123 -0.211142
H19   H     H_    0.364739 0.207353 0.203900 0.117255
H20   H     H_    0.159073 0.260695 0.104677 0.115391
H21   H     H_    0.969528 0.197232 0.212108 0.113747
H22   H     H_    0.987159 0.081481 0.419810 0.120545
H23   H     H_    0.192931 0.037764 0.523390 0.109768
C29   C     C_R   0.372368 0.868495 0.296111 0.177170
C30   C     C_R   0.427871 0.908644 0.185438 -0.207778
C31   C     C_R   0.362908 0.897548 0.069220 -0.161337
C32   C     C_R   0.240795 0.848032 0.062103 -0.129220
C33   C     C_R   0.184675 0.807039 0.170999 -0.168232
C34   C     C_R   0.249920 0.818091 0.286993 -0.103217
H24   H     H_    0.519563 0.955795 0.189898 0.113476
H25   H     H_    0.406413 0.930293 0.985094 0.126086
H26   H     H_    0.189929 0.841019 0.972424 0.122230
H27   H     H_    0.089308 0.770832 0.166032 0.130885
H28   H     H_    0.201114 0.800105 0.369632 0.125907

loop_
_geom_bond_atom_site_label_1
_geom_bond_atom_site_label_2
_ccdc_geom_bond_type
Cu2   O8    S    
C25   C26   A    
C16   C21   S    
Cu1   O1    S    
C1    C8    S    
C4    C8    A    
C27   H22   S    
C23   C24   A    
C12   H4    S    
C17   H2    S    
C1    O2    A    
Cu1   O5    S    
C14   O5    A    
C30   H24   S    
C16   H1    S    
Cu1   N1    S    
C26   C27   A    
C32   H26   S    
C20   H11   S    
C7    C14   S    
C4    H16   S    
C33   C34   A    
C2    C22   S    
Cu1   Cu2   S    
C11   N1    A    
C15   O7    A    
C9    C10   A    
C31   C32   A    
C3    H15   S    
C25   H20   S    
C17   H6    S    
C19   H8    S    
C24   H19   S    
C15   C22   S    
Cu2   O6    S    
Cu1   O3    S    
C2    C20   S    
C32   C33   A    
Cu2   O4    S    
C19   C22   S    
C4    C6    A    
C3    C8    A    
C5    C7    A    
C33   H27   S    
C15   O8    A    
C17   C21   S    
C2    H14   S    
Cu1   O7    S    
C31   H25   S    
C11   H3    S    
C11   C12   A    
C13   C21   S    
C34   H28   S    
C29   C34   A    
Cu2   N2    S    
C9    C23   S    
C13   O3    A    
C28   H23   S    
C5    H17   S    
C24   C25   A    
C9    N2    A    
C10   N1    A    
C18   C22   S    
C10   C29   S    
C3    C5    A    
C19   H10   S    
C13   O4    A    
C23   C28   A    
C6    C7    A    
Cu2   O2    S    
C29   C30   A    
C16   H5    S    
C12   N2    A    
C2    H13   S    
C1    O1    A    
C27   C28   A    
C14   O6    A    
C17   C19   S    
C18   H9    S    
C20   H12   S    
C20   C21   S    
C16   C18   S    
C30   C31   A    
C6    H18   S    
C26   H21   S    
C18   H7    S    
