data_mof_unit_37489.cif
_audit_creation_date              2012-10-26T21:01:32-0400
_audit_creation_method            fapswitch 2.2
_symmetry_space_group_name_H-M    P1
_symmetry_Int_Tables_number       1
_space_group_crystal_system       triclinic
_cell_length_a                    15.845034
_cell_length_b                    13.024873
_cell_length_c                    11.752188
_cell_angle_alpha                 99.505874
_cell_angle_beta                  94.834832
_cell_angle_gamma                 91.967723
_cell_volume                      2380.72042964

loop_
_atom_site_label
_atom_site_type_symbol
_atom_type_description
_atom_site_fract_x
_atom_site_fract_y
_atom_site_fract_z
_atom_type_partial_charge
C1    C     C_R   0.500973 0.299550 0.479379 0.546594
C2    C     C_R   0.529073 0.971770 0.459060 -0.010347
C3    C     C_R   0.397724 0.438465 0.023987 0.109120
C4    C     C_R   0.597862 0.571900 0.977920 0.109802
C5    C     C_R   0.414665 0.427591 0.142022 0.175339
C6    C     C_R   0.582619 0.577391 0.858208 0.176620
C7    C     C_R   0.544164 0.527751 0.156415 0.005894
C8    C     C_R   0.455204 0.473783 0.844296 0.003602
C9    C     C_R   0.536132 0.524766 0.034038 -0.030276
C10   C     C_R   0.462313 0.478963 0.966925 -0.036638
C11   C     C_R   0.339889 0.499245 0.499251 0.533959
C12   C     C_R   0.501058 0.699950 0.520634 0.557946
C13   C     C_R   0.660165 0.500242 0.500702 0.536750
C14   C     C_3   0.974218 0.433641 0.571182 -0.105698
C15   C     C_3   0.026153 0.562194 0.429342 -0.104859
C16   C     C_3   0.022613 0.400738 0.462808 0.028657
C17   C     C_3   0.977902 0.595111 0.537817 0.028958
C18   C     C_1   0.250251 0.498501 0.498183 -0.053590
C19   C     C_1   0.749890 0.499691 0.501718 -0.054164
C20   C     C_3   0.035713 0.530698 0.608333 0.028333
C21   C     C_3   0.964784 0.465041 0.392143 0.029012
C22   C     C_3   0.083233 0.497338 0.500427 0.027635
C23   C     C_R   0.572276 0.027597 0.385125 0.180698
C24   C     C_3   0.917075 0.498575 0.499976 0.027805
C25   C     C_1   0.174793 0.497937 0.498852 -0.084973
C26   C     C_1   0.825400 0.499028 0.501204 -0.085621
C27   C     C_R   0.492935 0.811194 0.528907 -0.016280
C28   C     C_R   0.508433 0.186812 0.469500 -0.028761
C29   C     C_3   0.054504 0.291236 0.428921 -0.253300
C30   C     C_3   0.981609 0.208078 0.401876 -0.296809
C31   C     C_3   0.015252 0.098879 0.378881 -0.461396
C32   C     C_3   0.946932 0.704900 0.572971 -0.252861
C33   C     C_3   0.020410 0.787408 0.597917 -0.296117
C34   C     C_R   0.413364 0.963791 0.585225 0.174092
C35   C     C_3   0.987712 0.897043 0.621413 -0.462093
C36   C     C_3   0.920723 0.434522 0.269516 -0.252158
C37   C     C_3   0.984697 0.409254 0.179160 -0.298519
C38   C     C_3   0.940893 0.389916 0.056356 -0.465044
C39   C     C_3   0.081481 0.560495 0.730028 -0.250833
C40   C     C_3   0.019219 0.581973 0.823115 -0.301278
C41   C     C_3   0.065912 0.601899 0.944272 -0.461369
C42   C     C_3   0.691162 0.816842 0.499289 -0.301104
C43   C     C_3   0.483590 0.198422 0.747296 -0.272264
C44   C     C_3   0.377157 0.799116 0.756831 -0.306055
C45   C     C_R   0.561872 0.135067 0.390856 0.096666
C46   C     C_3   0.584268 0.192596 0.206937 -0.290327
C47   C     C_3   0.583593 0.915678 0.200479 -0.299279
C48   C     C_3   0.268925 0.011614 0.547006 -0.295527
C49   C     C_3   0.637492 0.658647 0.814566 -0.187229
C50   C     C_3   0.618407 0.769861 0.871162 -0.306578
C51   C     C_3   0.655703 0.852892 0.809698 -0.473395
C52   C     C_3   0.354456 0.352884 0.187184 -0.190051
C53   C     C_3   0.354125 0.240089 0.121110 -0.320615
C54   C     C_3   0.333817 0.159454 0.197160 -0.475564
C55   C     C_3   0.280591 0.345152 0.887604 -0.338494
C56   C     C_R   0.425794 0.858080 0.585368 0.098402
C57   C     C_3   0.741575 0.548595 0.052366 -0.326024
C58   C     C_R   0.465509 0.131433 0.542604 0.095163
C59   C     C_R   0.545724 0.867351 0.467707 0.095894
C60   C     C_R   0.468652 0.022456 0.528531 -0.014144
Cu1   Cu    Cu3+1 0.506200 0.507730 0.615930 0.887946
Cu2   Cu    Cu3+1 0.493800 0.492270 0.384070 0.892682
H1    H     H_    0.951350 0.381254 0.628812 0.091641
H2    H     H_    0.092050 0.289363 0.353094 0.132044
H3    H     H_    0.097539 0.274394 0.502584 0.137431
H4    H     H_    0.947667 0.912999 0.544630 0.148623
H5    H     H_    0.949859 0.905759 0.697519 0.147447
H6    H     H_    0.042191 0.955104 0.639802 0.135927
H7    H     H_    0.061820 0.774842 0.674821 0.160871
H8    H     H_    0.059005 0.781536 0.522605 0.158375
H9    H     H_    0.902818 0.722152 0.500626 0.135490
H10   H     H_    0.910906 0.707016 0.650274 0.131333
H11   H     H_    0.891423 0.325735 0.046313 0.148479
H12   H     H_    0.049001 0.614483 0.371591 0.092580
H13   H     H_    0.911385 0.461718 0.036540 0.144340
H14   H     H_    0.988321 0.367817 0.993396 0.140841
H15   H     H_    0.032646 0.474946 0.186926 0.159697
H16   H     H_    0.017947 0.338344 0.193572 0.159779
H17   H     H_    0.875980 0.366472 0.266630 0.136494
H18   H     H_    0.883274 0.500945 0.249501 0.136915
H19   H     H_    0.100689 0.532341 0.960553 0.156676
H20   H     H_    0.111539 0.670117 0.953814 0.147818
H21   H     H_    0.019528 0.618300 0.009931 0.139430
H22   H     H_    0.983131 0.651389 0.810685 0.159526
H23   H     H_    0.401890 0.432858 0.791175 0.147794
H24   H     H_    0.973549 0.514100 0.816584 0.156421
H25   H     H_    0.120860 0.494786 0.747385 0.140562
H26   H     H_    0.124725 0.629930 0.732930 0.136560
H27   H     H_    0.604922 0.752539 0.359972 0.263306
H28   H     H_    0.706331 0.894651 0.553523 0.152439
H29   H     H_    0.746479 0.794536 0.450232 0.135451
H30   H     H_    0.680069 0.757777 0.555239 0.122391
H31   H     H_    0.392879 0.247850 0.628202 0.259101
H32   H     H_    0.500752 0.121377 0.768643 0.141294
H33   H     H_    0.451411 0.239894 0.819845 0.116500
H34   H     H_    0.598137 0.566973 0.210091 0.133587
H35   H     H_    0.542502 0.244443 0.739479 0.162180
H36   H     H_    0.346404 0.725571 0.585102 0.262346
H37   H     H_    0.403969 0.725231 0.775031 0.172694
H38   H     H_    0.314755 0.806417 0.792986 0.127220
H39   H     H_    0.419989 0.865800 0.801251 0.131911
H40   H     H_    0.641305 0.262260 0.370655 0.263062
H41   H     H_    0.569842 0.272907 0.193843 0.166807
H42   H     H_    0.526332 0.141261 0.179299 0.143556
H43   H     H_    0.634902 0.164828 0.151397 0.127556
H44   H     H_    0.678538 0.019980 0.289827 0.267981
H45   H     H_    0.054241 0.090950 0.303932 0.146813
H46   H     H_    0.629457 0.864782 0.155598 0.128398
H47   H     H_    0.558151 0.967508 0.141330 0.119850
H48   H     H_    0.530748 0.865334 0.220619 0.157756
H49   H     H_    0.322676 0.983180 0.705406 0.262060
H50   H     H_    0.217008 0.053486 0.589462 0.123038
H51   H     H_    0.245023 0.931105 0.508419 0.144065
H52   H     H_    0.287735 0.053590 0.477379 0.149240
H53   H     H_    0.724145 0.841713 0.800566 0.143800
H54   H     H_    0.621129 0.849280 0.723065 0.160862
H55   H     H_    0.648511 0.931360 0.860623 0.135454
H56   H     H_    0.054430 0.083015 0.456451 0.143965
H57   H     H_    0.548850 0.777990 0.869955 0.155160
H58   H     H_    0.645503 0.785609 0.962635 0.172158
H59   H     H_    0.705652 0.644997 0.834055 0.131703
H60   H     H_    0.629607 0.655908 0.721629 0.203495
H61   H     H_    0.383520 0.163407 0.270324 0.163901
H62   H     H_    0.271415 0.173460 0.231997 0.142483
H63   H     H_    0.331348 0.079983 0.144929 0.137083
H64   H     H_    0.304735 0.228402 0.047490 0.168296
H65   H     H_    0.416294 0.224078 0.086528 0.146900
H66   H     H_    0.371334 0.347687 0.277044 0.214071
H67   H     H_    0.961245 0.040222 0.358852 0.140694
H68   H     H_    0.289080 0.381236 0.182347 0.136890
H69   H     H_    0.290536 0.503451 0.957451 0.247286
H70   H     H_    0.220923 0.311862 0.912804 0.145343
H71   H     H_    0.326974 0.283574 0.877396 0.145953
H72   H     H_    0.265821 0.370746 0.802812 0.125863
H73   H     H_    0.666402 0.669712 0.116143 0.234321
H74   H     H_    0.799939 0.593509 0.094467 0.135433
H75   H     H_    0.755298 0.507753 0.965652 0.150594
H76   H     H_    0.723827 0.490274 0.106432 0.141034
H77   H     H_    0.941999 0.213284 0.476109 0.159530
H78   H     H_    0.941043 0.220576 0.324178 0.160828
N1    N     N_R   0.515540 0.519350 0.790140 -0.255655
N2    N     N_2   0.674155 0.619163 0.040913 -0.552161
N3    N     N_R   0.484460 0.480650 0.209860 -0.255470
N4    N     N_2   0.617546 0.820296 0.418795 -0.478816
N5    N     N_2   0.428276 0.185059 0.640558 -0.471786
N6    N     N_2   0.365279 0.797511 0.632975 -0.514604
N7    N     N_2   0.613564 0.192455 0.326990 -0.518783
N8    N     N_2   0.626539 0.976196 0.305100 -0.461568
N9    N     N_2   0.340051 0.008716 0.631926 -0.466296
N10   N     N_2   0.311502 0.433140 0.975133 -0.542143
O1    O     O_R   0.504400 0.354460 0.582000 -0.497852
O2    O     O_R   0.495600 0.645540 0.418000 -0.502973
O3    O     O_R   0.493920 0.341410 0.386200 -0.512696
O4    O     O_R   0.506080 0.658590 0.613800 -0.512788
O5    O     O_R   0.384320 0.506520 0.597880 -0.508875
O6    O     O_R   0.615680 0.493480 0.402120 -0.507137
O7    O     O_R   0.373840 0.493460 0.402080 -0.517163
O8    O     O_R   0.626160 0.506540 0.597920 -0.517965

loop_
_geom_bond_atom_site_label_1
_geom_bond_atom_site_label_2
_ccdc_geom_bond_type
C54   H61   S    
C11   C18   S    
C34   C56   A    
C16   C21   S    
C23   C45   A    
C40   H22   S    
H27   N4    S    
C39   H25   S    
Cu2   N3    S    
Cu1   O4    S    
C17   C20   S    
C7    N3    A    
C52   H66   S    
C58   N5    S    
C32   H10   S    
C21   C36   S    
C38   H14   S    
C53   C54   S    
C7    H34   S    
C29   C30   S    
Cu2   O2    S    
C57   N2    S    
C50   H58   S    
C39   H26   S    
C36   C37   S    
C24   C26   S    
C8    H23   S    
C4    N2    S    
C30   C31   S    
C44   H37   S    
C2    C60   A    
C5    N3    A    
C49   H60   S    
C58   C60   A    
C41   H21   S    
C46   H43   S    
H49   N9    S    
C43   H32   S    
H44   N8    S    
C15   C17   S    
C42   H29   S    
C40   H24   S    
C49   C50   S    
C19   C26   T    
C12   O2    A    
C53   H65   S    
C51   H55   S    
C15   C22   S    
C22   C25   S    
C1    C28   S    
C44   N6    S    
C5    C52   S    
H31   N5    S    
C8    N1    A    
C9    C10   A    
C42   H30   S    
C33   H7    S    
C29   H2    S    
C41   H19   S    
C45   N7    S    
C48   N9    S    
C34   C60   A    
C18   C25   T    
C14   C24   S    
Cu1   O5    S    
C34   N9    S    
C32   H9    S    
C38   H13   S    
H73   N2    S    
C54   H63   S    
C28   C45   A    
C17   C24   S    
C30   H78   S    
C13   C19   S    
C12   C27   S    
C50   H57   S    
C14   C20   S    
C4    C6    A    
C36   H18   S    
C39   C40   S    
C20   C39   S    
C27   C56   A    
H36   N6    S    
C35   H4    S    
C16   C29   S    
C47   H47   S    
C46   H42   S    
C51   H53   S    
C42   H28   S    
C13   O6    A    
C37   C38   S    
C43   N5    S    
H40   N7    S    
C43   H33   S    
C46   N7    S    
C35   H5    S    
C49   H59   S    
C50   C51   S    
Cu2   O7    S    
C57   H75   S    
C57   H74   S    
C6    N1    A    
C1    O3    A    
Cu1   O1    S    
C33   H8    S    
C29   H3    S    
Cu1   N1    S    
C40   C41   S    
C48   H50   S    
C20   C22   S    
C59   N4    S    
C47   H46   S    
C42   N4    S    
C14   C16   S    
C11   O5    A    
C55   H72   S    
C13   O8    A    
C52   C53   S    
C11   O7    A    
C55   N10   S    
C48   H52   S    
C23   N8    S    
C7    C9    A    
C54   H62   S    
C47   N8    S    
C3    N10   S    
C16   C22   S    
C30   H77   S    
C2    C59   A    
C31   H45   S    
C43   H35   S    
C12   O4    A    
C3    C5    A    
C36   H17   S    
C44   H39   S    
C28   C58   A    
C47   H48   S    
C46   H41   S    
C31   H56   S    
C51   H54   S    
Cu2   O3    S    
C52   H68   S    
C32   C33   S    
C31   H67   S    
C3    C10   A    
C27   C59   A    
Cu1   O8    S    
C44   H38   S    
C37   H15   S    
C35   H6    S    
C41   H20   S    
C33   C35   S    
Cu2   O6    S    
C57   H76   S    
C1    O1    A    
C14   H1    S    
C6    C49   S    
C56   N6    S    
Cu1   Cu2   S    
C55   H71   S    
C53   H64   S    
C15   C21   S    
C15   H12   S    
C8    C10   A    
C55   H70   S    
C21   C24   S    
C2    C23   A    
C17   C32   S    
H69   N10   S    
C4    C9    A    
C37   H16   S    
C48   H51   S    
C38   H11   S    
