data_mof_unit_6348.cif
_audit_creation_date              2012-12-11T15:32:34-0500
_audit_creation_method            fapswitch 2.2
_symmetry_space_group_name_H-M    P1
_symmetry_Int_Tables_number       1
_space_group_crystal_system       triclinic
_cell_length_a                    6.951542
_cell_length_b                    20.469336
_cell_length_c                    24.378087
_cell_angle_alpha                 89.60499
_cell_angle_beta                  90.165971
_cell_angle_gamma                 89.197585
_cell_volume                      3468.40393277

loop_
_atom_site_label
_atom_site_type_symbol
_atom_type_description
_atom_site_fract_x
_atom_site_fract_y
_atom_site_fract_z
_atom_type_partial_charge
O1    O     O_R   0.507320 0.423560 0.460500 -0.535582
O2    O     O_R   0.170760 0.556250 0.437010 -0.537145
O3    O     O_R   0.004030 0.576440 0.539500 -0.536520
C1    C     C_R   0.338862 0.576412 0.421044 0.723916
O4    O     O_R   0.177370 0.422820 0.454110 -0.538142
O5    O     O_R   0.010680 0.442050 0.556720 -0.534900
C2    C     C_R   0.347331 0.399055 0.443316 0.693967
O6    O     O_R   0.500680 0.557950 0.443280 -0.534923
O7    O     O_3   0.340380 0.506470 0.533650 -0.367148
V1    V     V_3+5 0.064130 0.498800 0.493760 1.423598
O8    O     O_R   0.681160 0.443750 0.562990 -0.538209
C3    C     C_R   0.850796 0.423799 0.578975 0.726097
O9    O     O_R   0.674560 0.577180 0.545890 -0.538237
C4    C     C_R   0.842050 0.601119 0.556569 0.693725
V2    V     V_3+5 0.564560 0.501200 0.506240 1.424241
O10   O     O_3   0.838180 0.493530 0.466350 -0.366328
C5    C     C_R   0.979138 0.838131 0.911185 -0.042459
C6    C     C_R   0.844760 0.661783 0.588828 -0.042764
C7    C     C_R   0.057818 0.723033 0.904998 -0.164522
C8    C     C_R   0.044413 0.780040 0.935569 -0.168430
C9    C     C_R   0.927785 0.838945 0.855309 -0.215944
C10   C     C_R   0.943980 0.781516 0.822691 0.086177
C11   C     C_R   0.009905 0.723293 0.849029 0.141584
C12   C     C_R   0.900256 0.779855 0.765019 0.058133
C13   C     C_R   0.923384 0.720013 0.735022 0.058639
C14   C     C_R   0.988671 0.663837 0.763745 -0.188837
C15   C     C_R   0.030379 0.665619 0.819415 -0.204332
C16   C     C_R   0.834887 0.836023 0.736303 -0.188233
C17   C     C_R   0.793175 0.834245 0.680636 -0.203470
C18   C     C_R   0.813747 0.776584 0.651013 0.140945
C19   C     C_R   0.879721 0.718362 0.677345 0.086311
C20   C     C_R   0.765886 0.776859 0.595042 -0.164098
C21   C     C_R   0.779414 0.719870 0.564456 -0.168064
C22   C     C_R   0.896050 0.660951 0.644711 -0.216192
H1    H     H_    0.080775 0.621135 0.839518 0.119671
H2    H     H_    0.942619 0.614532 0.661478 0.093889
H3    H     H_    0.737269 0.720935 0.521625 0.105732
H4    H     H_    0.742715 0.878724 0.660539 0.120933
H5    H     H_    0.108974 0.678643 0.925054 0.110590
H6    H     H_    0.086603 0.778986 0.978396 0.105490
H7    H     H_    0.881306 0.885368 0.838533 0.094599
H8    H     H_    0.009975 0.617236 0.744351 0.121513
H9    H     H_    0.813489 0.882616 0.755702 0.122687
H10   H     H_    0.714685 0.821249 0.574993 0.111035
C23   C     C_3   0.865740 0.310455 0.770711 -0.191315
C24   C     C_3   0.047607 0.269561 0.783889 0.353571
H11   H     H_    0.830326 0.359483 0.787383 0.112657
H12   H     H_    0.218558 0.256575 0.700738 0.107539
C25   C     C_1   0.961129 0.122118 0.875622 -0.184180
C26   C     C_1   0.863119 0.378663 0.625038 -0.197720
C27   C     C_3   0.744206 0.247746 0.777983 -0.197369
C28   C     C_3   0.928762 0.208002 0.791670 0.107344
C29   C     C_3   0.771799 0.231665 0.716269 -0.120237
C30   C     C_3   0.894462 0.293452 0.709559 0.127299
C31   C     C_3   0.956766 0.191440 0.730516 -0.178581
C32   C     C_3   0.079733 0.253746 0.722975 -0.143923
C33   C     C_1   0.947776 0.160731 0.837731 -0.048324
C34   C     C_1   0.876074 0.340479 0.663284 -0.053167
H13   H     H_    0.993159 0.142335 0.714171 0.119784
H14   H     H_    0.656153 0.216256 0.687859 0.113096
H15   H     H_    0.606572 0.244278 0.800682 0.161536
C35   C     C_3   0.592288 0.744620 0.230664 -0.138897
C36   C     C_3   0.442843 0.689048 0.231867 -0.137053
H16   H     H_    0.467884 0.638525 0.216970 0.107131
H17   H     H_    0.741275 0.740298 0.214660 0.106965
H18   H     H_    0.182718 0.726874 0.176337 0.105822
C37   C     C_1   0.348932 0.622067 0.375054 -0.195253
C38   C     C_1   0.475253 0.878035 0.125012 -0.193538
C39   C     C_3   0.537675 0.762833 0.290333 -0.139377
C40   C     C_3   0.388481 0.707855 0.290956 0.169938
C41   C     C_3   0.381324 0.811072 0.268212 -0.136976
C42   C     C_3   0.435686 0.792266 0.209123 0.169848
C43   C     C_3   0.231879 0.755500 0.269415 -0.138878
C44   C     C_3   0.286492 0.737287 0.209745 -0.139511
C45   C     C_1   0.364307 0.660582 0.337031 -0.065078
C46   C     C_1   0.459866 0.839533 0.163044 -0.065600
H19   H     H_    0.082893 0.759823 0.285418 0.107024
H20   H     H_    0.356283 0.861595 0.283109 0.107283
H21   H     H_    0.641450 0.773246 0.323742 0.105972
C47   C     C_R   0.464800 0.163019 0.087167 -0.078195
C48   C     C_R   0.360171 0.338547 0.411031 -0.039305
C49   C     C_R   0.423894 0.280642 0.089116 -0.234010
C50   C     C_R   0.447414 0.223046 0.059189 0.280879
C51   C     C_R   0.459002 0.161410 0.144842 -0.286786
C52   C     C_R   0.434419 0.219550 0.175989 0.093316
C53   C     C_R   0.417904 0.279435 0.146662 0.104234
C54   C     C_R   0.423817 0.220451 0.234912 0.071537
C55   C     C_R   0.399414 0.281407 0.263188 0.055172
C56   C     C_R   0.385135 0.339289 0.231583 -0.187907
C57   C     C_R   0.393991 0.338101 0.174722 -0.186570
C58   C     C_R   0.435474 0.162470 0.266491 -0.187982
C59   C     C_R   0.423647 0.163531 0.323300 -0.206128
C60   C     C_R   0.401020 0.222211 0.351367 0.141429
C61   C     C_R   0.389178 0.282332 0.322105 0.085986
C62   C     C_R   0.391108 0.220897 0.408881 -0.162379
C63   C     C_R   0.371224 0.278541 0.438380 -0.169905
C64   C     C_R   0.368723 0.340639 0.353386 -0.214064
H22   H     H_    0.381323 0.383943 0.152358 0.119355
H23   H     H_    0.361430 0.388391 0.334598 0.091123
H24   H     H_    0.365791 0.276394 0.482772 0.104008
H25   H     H_    0.432953 0.117585 0.345624 0.120427
H26   H     H_    0.410118 0.326717 0.067127 0.114210
H27   H     H_    0.471708 0.113883 0.163837 0.106726
H28   H     H_    0.365448 0.386799 0.249520 0.120331
H29   H     H_    0.453108 0.114874 0.248575 0.122463
H30   H     H_    0.400067 0.174974 0.431211 0.110409
O11   O     O_R   0.323550 0.942140 0.056770 -0.536789
O12   O     O_R   0.647080 0.077200 0.045890 -0.545584
O13   O     O_R   0.813610 0.057920 0.943260 -0.535536
C65   C     C_R   0.477290 0.101454 0.056107 0.750825
O14   O     O_R   0.653470 0.943760 0.063000 -0.538249
O15   O     O_R   0.820050 0.923540 0.960490 -0.536748
C66   C     C_R   0.485352 0.923660 0.079001 0.718031
O16   O     O_R   0.317110 0.076520 0.039540 -0.533574
O17   O     O_3   0.483830 0.993580 0.966380 -0.365084
V3    V     V_3+5 0.760140 0.001190 0.006240 1.422006
O18   O     O_R   0.149510 0.922740 0.954070 -0.539264
C67   C     C_R   0.981976 0.898817 0.943423 0.692073
O19   O     O_R   0.143120 0.056170 0.936970 -0.531141
C68   C     C_R   0.973528 0.076421 0.921225 0.724486
V4    V     V_3+5 0.259690 0.998700 0.993700 1.442924
O20   O     O_3   0.986130 0.006420 0.033620 -0.370032
N1    N     N_2   0.197160 0.289018 0.821557 -0.526535
H31   H     H_    0.151953 0.289902 0.861788 0.252884
C69   C     C_3   0.299775 0.347025 0.805586 -0.589135
H32   H     H_    0.417563 0.355781 0.835391 0.198054
H33   H     H_    0.200938 0.390159 0.805127 0.192774
H34   H     H_    0.364766 0.340716 0.764358 0.210684
N2    N     N_2   0.447611 0.225547 0.000801 -0.530283
H35   H     H_    0.356193 0.260927 0.984664 0.251030
C70   C     C_3   0.637289 0.228404 0.976711 -0.547332
H36   H     H_    0.707845 0.274854 0.987954 0.184190
H37   H     H_    0.624919 0.226102 0.931330 0.201257
H38   H     H_    0.728274 0.186564 0.990841 0.208875

loop_
_geom_bond_atom_site_label_1
_geom_bond_atom_site_label_2
_ccdc_geom_bond_type
C13   C19   A    
C18   C20   A    
C31   C32   S    
C60   C61   A    
O17   V4    S    
C54   C58   A    
C43   C44   S    
C4    C6    S    
O2    C1    A    
C62   C63   A    
C27   H15   S    
C1    O6    A    
C70   H38   S    
N1    H31   S    
C52   C53   A    
C14   C15   A    
C35   C36   S    
V3    O20   S    
C16   C17   A    
C50   N2    S    
C31   H13   S    
O5    C3    A    
C18   C19   A    
C8    H6    S    
N1    C69   S    
C25   C68   S    
C23   C27   S    
O17   V3    S    
H18   C44   S    
C24   C28   S    
C5    C8    A    
C25   C33   T    
C23   H11   S    
C39   C41   S    
C58   H29   S    
O11   C66   A    
O18   V4    S    
O13   V3    S    
O16   V4    S    
O8    V2    S    
C7    C8    A    
C17   H4    S    
C69   H34   S    
O14   V3    S    
O1    V2    S    
C11   C15   A    
O7    V1    S    
C65   O16   A    
C28   C31   S    
C42   C46   S    
C38   C66   S    
O19   V4    S    
C60   C62   A    
O9    C4    A    
C47   C50   A    
C64   H23   S    
C29   H14   S    
C55   C61   A    
C29   C31   S    
C20   H10   S    
C30   C32   S    
C52   C54   A    
C27   C28   S    
C26   C34   T    
C12   C13   A    
C42   C44   S    
C53   C57   A    
C58   C59   A    
O4    C2    A    
C48   C63   A    
C61   C64   A    
C15   H1    S    
C13   C14   A    
C49   C53   A    
C21   H3    S    
C35   C39   S    
C27   C29   S    
C7    C11   A    
C17   C18   A    
C62   H30   S    
C36   C40   S    
O19   C68   A    
C40   C43   S    
C49   H26   S    
C19   C22   A    
C35   C42   S    
O14   C66   A    
C51   C52   A    
C6    C22   A    
V4    O20   S    
O3    C4    A    
C7    H5    S    
C5    C67   S    
C9    H7    S    
C59   H25   S    
C2    C48   S    
C23   C30   S    
O6    V2    S    
O9    V2    S    
C56   H28   S    
C69   H32   S    
C10   C12   A    
C24   N1    S    
C39   H21   S    
C37   C45   T    
O11   V4    S    
C47   C65   S    
C70   H36   S    
O2    V1    S    
O15   V3    S    
C14   H8    S    
C41   C43   S    
N2    H35   S    
C30   C34   S    
H12   C32   S    
C35   H17   S    
O1    C2    A    
C12   C16   A    
C70   H37   S    
O5    V1    S    
C1    C37   S    
C3    C26   S    
O8    C3    A    
C29   C30   S    
C36   C44   S    
C38   C46   T    
C16   H9    S    
C20   C21   A    
O12   V3    S    
O7    V2    S    
C41   C42   S    
O3    V1    S    
V1    O10   S    
O18   C67   A    
C47   C51   A    
O15   C67   A    
C48   C64   A    
C63   H24   S    
C59   C60   A    
O12   C65   A    
C22   H2    S    
C39   C40   S    
C6    C21   A    
C5    C9    A    
C28   C33   S    
C36   H16   S    
C23   C24   S    
O4    V1    S    
C55   C56   A    
C54   C55   A    
C49   C50   A    
C24   C32   S    
C40   C45   S    
C69   H33   S    
C51   H27   S    
C43   H19   S    
C10   C11   A    
C56   C57   A    
C9    C10   A    
C57   H22   S    
C41   H20   S    
V2    O10   S    
O13   C68   A    
N2    C70   S    
