data_mof_unit_25655.cif
_audit_creation_date              2012-12-10T18:42:31-0500
_audit_creation_method            fapswitch 2.2
_symmetry_space_group_name_H-M    P1
_symmetry_Int_Tables_number       1
_space_group_crystal_system       triclinic
_cell_length_a                    8.620348
_cell_length_b                    10.649256
_cell_length_c                    9.8499
_cell_angle_alpha                 90.292584
_cell_angle_beta                  98.316723
_cell_angle_gamma                 89.864194
_cell_volume                      894.701654634

loop_
_atom_site_label
_atom_site_type_symbol
_atom_type_description
_atom_site_fract_x
_atom_site_fract_y
_atom_site_fract_z
_atom_type_partial_charge
C1    C     C_R   0.505765 0.260296 0.500317 0.931724
C2    C     C_R   0.494235 0.739704 0.499683 0.931741
C3    C     C_R   0.201635 0.498183 0.464805 0.971117
C4    C     C_R   0.798365 0.501825 0.535194 0.971103
C5    C     C_2   0.039393 0.475900 0.450939 -0.279536
C6    C     C_2   0.960606 0.524123 0.549058 -0.279595
C7    C     C_R   0.399440 0.068012 0.403258 -0.222935
C8    C     C_R   0.600561 0.931988 0.596742 -0.222944
C9    C     C_R   0.386111 0.939094 0.403262 -0.023278
C10   C     C_R   0.613890 0.060906 0.596739 -0.023279
C11   C     C_R   0.490013 0.872243 0.500545 -0.097325
C12   C     C_R   0.509988 0.127757 0.499455 -0.097325
C13   C     C_R   0.603361 0.572798 0.085360 -0.039885
C14   C     C_R   0.396639 0.427202 0.914640 -0.039908
C15   C     C_R   0.603262 0.572816 0.941517 -0.022366
C16   C     C_R   0.396738 0.427184 0.058483 -0.022373
H1    H     H_    0.318971 0.123116 0.332049 0.186447
H2    H     H_    0.681030 0.876884 0.667952 0.186452
H3    H     H_    0.686038 0.631023 0.150547 0.148513
H4    H     H_    0.313962 0.368977 0.849453 0.148503
H5    H     H_    0.685714 0.631173 0.897805 0.163846
H6    H     H_    0.314286 0.368827 0.102195 0.163810
N1    N     N_R   0.499960 0.499970 0.857200 -0.095798
N2    N     N_R   0.500040 0.500030 0.142800 -0.095800
O1    O     O_R   0.499990 0.316750 0.614620 -0.622503
O2    O     O_R   0.500010 0.683250 0.385380 -0.622509
O3    O     O_R   0.499990 0.316780 0.385290 -0.611514
O4    O     O_R   0.500010 0.683220 0.614710 -0.611488
O5    O     O_R   0.271750 0.499990 0.587840 -0.625107
O6    O     O_R   0.728250 0.500010 0.412160 -0.625130
O7    O     O_R   0.271750 0.500010 0.358510 -0.570326
O8    O     O_R   0.728250 0.499990 0.641490 -0.570283
Zn1   Zn    Zn3+2 0.500000 0.499980 0.653120 1.019201
Zn2   Zn    Zn3+2 0.500000 0.500020 0.346880 1.019180
C17   C     C_2   0.978566 0.376051 0.349461 0.931118
O9    O     O_2   0.901613 0.288587 0.384276 -0.590068
O10   O     O_R   0.014170 0.380761 0.215515 -0.788443
H7    H     H_    0.968025 0.307662 0.156900 0.345767
C18   C     C_2   0.021429 0.623977 0.650537 0.931104
O11   O     O_2   0.098476 0.711395 0.615746 -0.590037
O12   O     O_R   0.985718 0.619325 0.784452 -0.788472
H8    H     H_    0.031880 0.692417 0.843070 0.345773
C19   C     C_2   0.259317 0.879583 0.305322 0.939187
O13   O     O_2   0.199233 0.781219 0.334148 -0.598146
O14   O     O_R   0.204708 0.938971 0.181160 -0.802351
H9    H     H_    0.117470 0.890449 0.123737 0.352725
C20   C     C_2   0.740683 0.120417 0.694682 0.939187
O15   O     O_2   0.800766 0.218782 0.665857 -0.598145
O16   O     O_R   0.795290 0.061028 0.818843 -0.802352
H10   H     H_    0.882524 0.109552 0.876270 0.352722

loop_
_geom_bond_atom_site_label_1
_geom_bond_atom_site_label_2
_ccdc_geom_bond_type
C14   N1    A    
C3    O7    A    
C19   O13   D    
O10   H7    S    
C14   H4    S    
C20   O16   S    
C19   O14   S    
O12   H8    S    
C16   N2    A    
C17   O9    D    
O8    Zn1   S    
C15   N1    A    
O7    Zn2   S    
C4    O6    A    
C2    O2    A    
O14   H9    S    
C1    O1    A    
C9    C11   A    
C3    O5    A    
C4    O8    A    
C1    C12   S    
C10   C12   A    
C8    C11   A    
C5    C6    D    
C2    C11   S    
C5    C17   S    
C4    C6    S    
C17   O10   S    
O4    Zn1   S    
C7    C9    A    
C13   C15   A    
O3    Zn2   S    
C7    C12   A    
C14   C16   A    
C9    C19   S    
C2    O4    A    
C13   H3    S    
O5    Zn1   S    
C15   H5    S    
N1    Zn1   S    
C18   O12   S    
O16   H10   S    
C18   O11   D    
C1    O3    A    
O6    Zn2   S    
C6    C18   S    
C16   H6    S    
C7    H1    S    
C10   C20   S    
O2    Zn2   S    
C8    C10   A    
C8    H2    S    
C20   O15   D    
C13   N2    A    
O1    Zn1   S    
C3    C5    S    
N2    Zn2   S    
