data_mof_unit_41247.cif
_audit_creation_date              2012-12-10T17:16:37-0500
_audit_creation_method            fapswitch 2.2
_symmetry_space_group_name_H-M    P1
_symmetry_Int_Tables_number       1
_space_group_crystal_system       triclinic
_cell_length_a                    10.177872
_cell_length_b                    10.712024
_cell_length_c                    10.828974
_cell_angle_alpha                 90.971193
_cell_angle_beta                  95.860654
_cell_angle_gamma                 83.266566
_cell_volume                      1166.34871708

loop_
_atom_site_label
_atom_site_type_symbol
_atom_type_description
_atom_site_fract_x
_atom_site_fract_y
_atom_site_fract_z
_atom_type_partial_charge
C1    C     C_R   0.442180 0.510852 0.267181 0.897316
C2    C     C_R   0.556483 0.484569 0.731982 0.888580
C3    C     C_2   0.400870 0.505700 0.134338 0.028493
C4    C     C_2   0.590637 0.470869 0.864601 -0.141499
C5    C     C_2   0.487691 0.526675 0.055154 0.363480
C6    C     C_2   0.490415 0.461116 0.934606 0.339504
C7    C     C_2   0.057842 0.535328 0.469050 0.570317
C8    C     C_2   0.922921 0.521501 0.506355 0.592455
C9    C     C_R   0.492562 0.261827 0.481914 0.876296
C10   C     C_R   0.505594 0.740580 0.505715 0.915116
C11   C     C_R   0.664546 0.099354 0.321338 0.026687
C12   C     C_R   0.327930 0.921817 0.641972 0.061734
C13   C     C_R   0.794943 0.043033 0.314842 0.191980
C14   C     C_R   0.198905 0.985125 0.645576 0.176302
C15   C     C_R   0.839718 0.937916 0.388287 0.410672
C16   C     C_R   0.153801 0.084562 0.563728 0.402501
C17   C     C_R   0.741257 0.865139 0.419040 0.081891
C18   C     C_R   0.243932 0.128650 0.488444 0.069109
C19   C     C_R   0.614715 0.928075 0.445246 -0.050890
C20   C     C_R   0.376816 0.073118 0.497178 -0.065436
C21   C     C_R   0.587473 0.054525 0.408643 -0.021696
C22   C     C_R   0.408859 0.955570 0.551590 -0.048412
C23   C     C_R   0.516986 0.875673 0.509656 -0.080593
C24   C     C_R   0.478418 0.129599 0.450197 -0.068924
N1    N     N_2   0.157300 0.551390 0.551120 -0.030572
N2    N     N_2   0.842700 0.448610 0.448880 -0.013200
O1    O     O_R   0.568940 0.489660 0.307530 -0.561924
O2    O     O_R   0.431060 0.510340 0.692470 -0.599636
O3    O     O_R   0.348880 0.522640 0.340350 -0.618028
O4    O     O_R   0.651120 0.477360 0.659650 -0.608950
O5    O     O_R   0.610030 0.300280 0.483580 -0.611494
O6    O     O_R   0.389970 0.699720 0.516420 -0.610229
O7    O     O_R   0.389970 0.333270 0.516400 -0.604940
O8    O     O_R   0.610030 0.666730 0.483600 -0.572709
Zn1   Zn    Zn3+2 0.646940 0.477980 0.478080 1.057314
Zn2   Zn    Zn3+2 0.353060 0.522020 0.521920 1.030834
O9    O     O_3   0.023112 0.137049 0.561844 -0.717122
H1    H     H_    0.011319 0.217781 0.517076 0.358600
O10   O     O_3   0.971663 0.888708 0.392519 -0.715697
H2    H     H_    0.985818 0.815977 0.449823 0.345045
I1    I     I_    0.565013 0.208448 0.171271 -0.259487
I2    I     I_    0.414268 0.805970 0.794141 -0.281421
I3    I     I_    0.908560 0.083307 0.169326 -0.066265
I4    I     I_    0.065320 0.928801 0.767535 -0.090528
I5    I     I_    0.756530 0.722260 0.281510 -0.096188
I6    I     I_    0.176296 0.242324 0.330695 -0.118164
O11   O     O_3   0.385923 0.394363 0.891994 -0.710480
H3    H     H_    0.416775 0.329574 0.831402 0.350087
O12   O     O_3   0.573357 0.614052 0.089037 -0.724642
H4    H     H_    0.586840 0.659967 0.013604 0.363621
I7    I     I_    0.793111 0.475359 0.938670 -0.102886
I8    I     I_    0.199035 0.477739 0.075435 -0.017713
O13   O     O_3   0.878532 0.599994 0.598759 -0.737546
H5    H     H_    0.861502 0.544089 0.665462 0.373120
O14   O     O_3   0.070945 0.542854 0.344512 -0.689864
H6    H     H_    0.126403 0.611438 0.335088 0.353561
O15   O     O_3   0.881731 0.388311 0.347101 -0.630166
H7    H     H_    0.802261 0.351233 0.309854 0.389423
O16   O     O_3   0.129641 0.552193 0.669940 -0.661368
H8    H     H_    0.210352 0.573579 0.719961 0.414632

loop_
_geom_bond_atom_site_label_1
_geom_bond_atom_site_label_2
_ccdc_geom_bond_type
C8    O13   S    
C1    C3    S    
C2    C4    S    
O14   H6    S    
C9    C24   S    
C15   C17   A    
O9    H1    S    
C14   C16   A    
C10   O6    A    
C10   C23   S    
C8    N2    D    
C19   C23   A    
O11   H3    S    
C7    N1    D    
C7    O14   S    
C16   O9    S    
C2    O4    A    
C5    O12   S    
O1    Zn1   S    
O12   H4    S    
C13   I3    S    
C1    O3    A    
C20   C22   A    
N2    O15   S    
O16   H8    S    
C10   O8    A    
C16   C18   A    
O13   H5    S    
C9    O7    A    
C11   C13   A    
O3    Zn2   S    
C15   O10   S    
O15   H7    S    
O4    Zn1   S    
C4    I7    S    
O6    Zn2   S    
C4    C6    D    
C19   C21   A    
C12   C14   A    
C11   I1    S    
C18   C20   A    
C13   C15   A    
C5    C6    S    
C3    I8    S    
O5    Zn1   S    
C6    O11   S    
C9    O5    A    
N1    Zn2   S    
C12   I2    S    
C18   I6    S    
C12   C22   A    
N2    Zn1   S    
C7    C8    S    
O7    Zn2   S    
O2    Zn2   S    
C14   I4    S    
O8    Zn1   S    
C21   C24   A    
O10   H2    S    
C1    O1    A    
C22   C23   A    
C2    O2    A    
N1    O16   S    
C17   C19   A    
C11   C21   A    
C20   C24   A    
C17   I5    S    
C3    C5    D    
