data_mof_unit_49250.cif
_audit_creation_date              2012-10-26T20:32:22-0400
_audit_creation_method            fapswitch 2.2
_symmetry_space_group_name_H-M    P1
_symmetry_Int_Tables_number       1
_space_group_crystal_system       triclinic
_cell_length_a                    19.355278
_cell_length_b                    10.873369
_cell_length_c                    9.539118
_cell_angle_alpha                 89.470703
_cell_angle_beta                  90.125504
_cell_angle_gamma                 90.199123
_cell_volume                      2007.47245562

loop_
_atom_site_label
_atom_site_type_symbol
_atom_type_description
_atom_site_fract_x
_atom_site_fract_y
_atom_site_fract_z
_atom_type_partial_charge
C1    C     C_R   0.499355 0.262563 0.500451 0.556615
C2    C     C_R   0.853727 0.498896 0.498424 0.034000
C3    C     C_R   0.499112 0.059811 0.622225 0.069252
C4    C     C_R   0.367435 0.499582 0.499895 0.551241
C5    C     C_R   0.498630 0.129743 0.499443 0.003312
C6    C     C_R   0.498654 0.065739 0.371028 -0.169718
C7    C     C_R   0.499417 0.936718 0.369714 -0.162214
C8    C     C_R   0.500959 0.869700 0.496936 0.006358
C9    C     C_R   0.501791 0.935976 0.620084 -0.014708
C10   C     C_3   0.503738 0.921601 0.774789 -0.234196
C11   C     C_3   0.499956 0.063445 0.779083 0.146768
C12   C     C_R   0.291460 0.498615 0.499550 0.017083
C13   C     C_R   0.537641 0.585509 0.073017 0.155201
C14   C     C_R   0.456640 0.425805 0.075120 -0.023806
C15   C     C_R   0.456663 0.425738 0.926049 -0.015224
C16   C     C_R   0.500576 0.737239 0.499249 0.556063
C17   C     C_R   0.537823 0.585159 0.925585 0.154843
C18   C     C_3   0.614176 0.602064 0.920724 -0.282344
C19   C     C_3   0.613863 0.604001 0.079495 -0.273955
C20   C     C_R   0.632532 0.500067 0.499970 0.541675
C21   C     C_R   0.254844 0.510222 0.625557 -0.129056
C22   C     C_R   0.182865 0.509828 0.625228 -0.116789
C23   C     C_R   0.929855 0.498157 0.498398 0.344817
C24   C     C_R   0.146144 0.497151 0.498965 0.035080
C25   C     C_R   0.182843 0.484860 0.373021 -0.117850
C26   C     C_R   0.254843 0.485874 0.373274 -0.132779
C27   C     C_3   0.438031 0.100600 0.979800 -0.025385
C28   C     C_3   0.366054 0.124935 0.036724 -0.368804
C29   C     C_R   0.070005 0.497182 0.498723 0.345983
C30   C     C_R   0.817478 0.541120 0.615828 -0.117775
C31   C     C_R   0.745522 0.541856 0.616055 -0.136167
C32   C     C_R   0.708442 0.499800 0.499475 0.014651
C33   C     C_R   0.744526 0.457792 0.381937 -0.135599
C34   C     C_R   0.816541 0.457508 0.381258 -0.118379
Cu1   Cu    Cu3+1 0.500000 0.499980 0.640670 0.951633
Cu2   Cu    Cu3+1 0.500000 0.500020 0.359330 0.931566
H1    H     H_    0.281739 0.520119 0.724528 0.128785
H2    H     H_    0.641451 0.524318 0.126417 0.150787
H3    H     H_    0.156088 0.519106 0.724093 0.138251
H4    H     H_    0.628000 0.695042 0.123411 0.125710
H5    H     H_    0.156034 0.475093 0.273977 0.137813
H6    H     H_    0.281756 0.476332 0.274551 0.125189
H7    H     H_    0.844604 0.574603 0.707317 0.138221
H8    H     H_    0.719083 0.577258 0.706578 0.113500
H9    H     H_    0.717157 0.423498 0.291234 0.116405
H10   H     H_    0.842966 0.423931 0.289372 0.137923
H11   H     H_    0.498288 0.114702 0.271788 0.124271
H12   H     H_    0.498921 0.890299 0.269731 0.129225
H13   H     H_    0.474222 0.171485 0.020296 0.119896
H14   H     H_    0.454627 0.008800 0.020040 0.119662
H15   H     H_    0.330116 0.051006 0.003042 0.168679
H16   H     H_    0.367635 0.126728 0.153086 0.104500
H17   H     H_    0.346531 0.214637 0.997145 0.142811
H18   H     H_    0.457018 0.873315 0.815222 0.163428
H19   H     H_    0.553886 0.884319 0.812518 0.086818
H20   H     H_    0.546652 0.110838 0.821205 0.097754
H21   H     H_    0.422614 0.364174 0.131907 0.112621
H22   H     H_    0.422641 0.364072 0.870316 0.154810
H23   H     H_    0.640981 0.519977 0.879183 0.150108
H24   H     H_    0.629334 0.691482 0.872314 0.116790
N1    N     N_R   0.034112 0.471528 0.380065 -0.227990
N2    N     N_R   0.965391 0.471859 0.379945 -0.228259
N3    N     N_R   0.965758 0.523862 0.616990 -0.228498
N4    N     N_R   0.034452 0.523268 0.617186 -0.227922
N5    N     N_R   0.500440 0.500930 0.147930 -0.230394
N6    N     N_R   0.500440 0.500890 0.852020 -0.234537
O1    O     O_R   0.500000 0.319640 0.618810 -0.482752
O2    O     O_R   0.500010 0.319680 0.381230 -0.516396
O3    O     O_R   0.400140 0.499970 0.618830 -0.504782
O4    O     O_R   0.400150 0.500010 0.381250 -0.506525
O5    O     O_R   0.499990 0.680320 0.618770 -0.499889
O6    O     O_R   0.500000 0.680360 0.381190 -0.503950
O7    O     O_R   0.599850 0.499990 0.618750 -0.507847
O8    O     O_R   0.599860 0.500030 0.381170 -0.507508
O9    O     O_3   0.436178 0.105167 0.831784 -0.538103

loop_
_geom_bond_atom_site_label_1
_geom_bond_atom_site_label_2
_ccdc_geom_bond_type
C33   H9    S    
Cu1   Cu2   S    
C16   O6    A    
C4    O4    A    
C7    C8    A    
C13   N5    A    
C17   N6    A    
C1    C5    S    
C30   C31   A    
C28   H15   S    
C1    O2    A    
C18   C19   S    
C24   C29   S    
C23   N2    A    
C8    C9    A    
C34   H10   S    
C4    C12   S    
C9    C10   S    
C27   H14   S    
C2    C34   A    
C23   N3    A    
C29   N4    A    
Cu1   O5    S    
C8    C16   S    
C21   C22   A    
C16   O5    A    
C27   O9    S    
C4    O3    A    
Cu2   O4    S    
C33   C34   A    
C19   H4    S    
C29   N1    A    
C31   H8    S    
C13   C19   S    
C24   C25   A    
C6    H11   S    
C25   H5    S    
Cu2   N5    S    
Cu1   N6    S    
C25   C26   A    
C15   N6    A    
C12   C21   A    
C12   C26   A    
C3    C9    A    
C19   H2    S    
C31   C32   A    
Cu1   O1    S    
C17   C18   S    
C20   O8    A    
C10   H19   S    
Cu2   O8    S    
C18   H24   S    
C15   H22   S    
C22   C24   A    
C30   H7    S    
C2    C23   S    
C26   H6    S    
C20   C32   S    
C14   H21   S    
Cu1   O7    S    
C3    C5    A    
C28   H17   S    
Cu2   O2    S    
C6    C7    A    
C13   C17   A    
C2    C30   A    
C7    H12   S    
C11   O9    S    
C32   C33   A    
C28   H16   S    
C5    C6    A    
C22   H3    S    
C1    O1    A    
C14   N5    A    
C20   O7    A    
N1    N2    A    
C10   H18   S    
C3    C11   S    
C10   C11   S    
N3    N4    A    
C27   H13   S    
C18   H23   S    
C21   H1    S    
Cu1   O3    S    
C27   C28   S    
C14   C15   A    
C11   H20   S    
Cu2   O6    S    
