data_mof_unit_6627.cif
_audit_creation_date              2013-03-05T16:33:33-0500
_audit_creation_method            fapswitch 2.2
_symmetry_space_group_name_H-M    P1
_symmetry_Int_Tables_number       1
_space_group_crystal_system       triclinic
_cell_length_a                    10.920615
_cell_length_b                    10.841985
_cell_length_c                    9.714443
_cell_angle_alpha                 88.484675
_cell_angle_beta                  87.884296
_cell_angle_gamma                 95.52369
_cell_volume                      1143.55934465

loop_
_atom_site_label
_atom_site_type_symbol
_atom_site_description
_atom_site_fract_x
_atom_site_fract_y
_atom_site_fract_z
_atom_type_partial_charge
O1    O     O_R   0.500000 0.319640 0.618810 -0.497505
O2    O     O_R   0.500010 0.319680 0.381230 -0.610094
C1    C     C_R   0.505986 0.263390 0.500846 0.843569
O3    O     O_R   0.319650 0.499970 0.618810 -0.551881
O4    O     O_R   0.319660 0.500010 0.381230 -0.516214
C2    C     C_R   0.263267 0.504012 0.501769 0.874704
Cu1   Cu    Cu3+1 0.499990 0.499980 0.640670 1.077751
Cu2   Cu    Cu3+1 0.500010 0.500020 0.359330 1.096940
O5    O     O_R   0.499990 0.680320 0.618770 -0.613213
O6    O     O_R   0.500000 0.680360 0.381190 -0.527363
O7    O     O_R   0.680340 0.499990 0.618770 -0.552597
O8    O     O_R   0.680350 0.500030 0.381190 -0.537188
C3    C     C_R   0.497994 0.736792 0.497536 0.829617
C4    C     C_R   0.737430 0.504307 0.497276 0.902623
C5    C     C_R   0.053412 0.449255 0.605611 0.034748
C6    C     C_R   0.130353 0.511529 0.502344 -0.282110
C7    C     C_R   0.076129 0.567716 0.388209 0.259402
C8    C     C_R   0.946550 0.559169 0.380284 0.257527
C9    C     C_R   0.871314 0.505178 0.491324 -0.172929
C10   C     C_R   0.928052 0.455790 0.602390 -0.056807
C11   C     C_3   0.912912 0.476634 0.752978 0.459630
C12   C     C_3   0.050512 0.463479 0.759776 0.210366
H1    H     H_    0.109241 0.548084 0.788961 0.098517
C13   C     C_R   0.417804 0.054983 0.570775 -0.089594
C14   C     C_R   0.511654 0.129637 0.500371 -0.137150
C15   C     C_R   0.593330 0.073001 0.410394 0.311679
C16   C     C_R   0.584805 0.942695 0.406907 -0.241443
H2    H     H_    0.653192 0.898067 0.347741 0.196670
C17   C     C_R   0.494256 0.869871 0.487472 -0.112231
C18   C     C_R   0.402220 0.927538 0.556244 0.127476
C19   C     C_3   0.354041 0.903695 0.700576 0.163930
C20   C     C_3   0.393204 0.039445 0.722702 0.109500
H3    H     H_    0.402532 0.836696 0.757974 0.107469
H4    H     H_    0.317434 0.090839 0.760748 0.222184
C21   C     C_R   0.584246 0.575158 0.067745 0.245484
N1    N     N_R   0.500790 0.500930 0.147930 -0.229202
C22   C     C_R   0.416925 0.423112 0.082550 0.495340
C23   C     C_R   0.421963 0.416317 0.934244 0.321375
N2    N     N_R   0.500790 0.500890 0.852020 -0.264198
C24   C     C_R   0.585539 0.574047 0.921723 0.204942
C25   C     C_3   0.605734 0.711393 0.911410 -0.451776
C26   C     C_3   0.596698 0.713491 0.067546 0.217965
H5    H     H_    0.698211 0.746113 0.867980 0.266833
H6    H     H_    0.530103 0.751126 0.862329 0.205662
H7    H     H_    0.681215 0.752578 0.117761 0.173629
N3    N     N_R   0.151370 0.642027 0.286538 0.182856
O9    O     O_R   0.133709 0.629101 0.155826 -0.335219
O10   O     O_R   0.230444 0.730690 0.325071 -0.330506
N4    N     N_R   0.508796 0.057129 0.796933 0.115578
O11   O     O_R   0.601652 0.995397 0.763881 -0.341532
O12   O     O_R   0.523075 0.139776 0.890791 -0.284876
O13   O     O_3   0.307275 0.380471 0.153598 -0.589415
C27   C     C_3   0.309271 0.261931 0.217601 -0.086861
H8    H     H_    0.291985 0.268070 0.330103 0.154420
H9    H     H_    0.394287 0.215917 0.193747 0.168064
H10   H     H_    0.229142 0.200356 0.185301 0.180960
N5    N     N_R   0.345245 0.315076 0.877214 0.147598
O14   O     O_R   0.303624 0.318643 0.755115 -0.313679
O15   O     O_R   0.309461 0.216408 0.951808 -0.417797
O16   O     O_3   0.485804 0.755985 0.119216 -0.541404
C28   C     C_3   0.485949 0.884879 0.095932 -0.131519
H11   H     H_    0.431017 0.922700 0.180347 0.189389
H12   H     H_    0.438864 0.902145 0.999488 0.167820
H13   H     H_    0.579471 0.936071 0.092015 0.201288
N6    N     N_R   0.892690 0.616509 0.266325 0.142876
O17   O     O_R   0.844118 0.547847 0.171183 -0.293843
O18   O     O_R   0.903599 0.736599 0.250065 -0.310415
N7    N     N_R   0.885354 0.602184 0.789785 0.064729
O19   O     O_R   0.901915 0.637567 0.915033 -0.325313
O20   O     O_R   0.870309 0.686283 0.695396 -0.383196
N8    N     N_R   0.830848 0.376916 0.823635 0.149644
O21   O     O_R   0.770467 0.397324 0.937235 -0.303318
O22   O     O_R   0.821015 0.265315 0.776116 -0.236847
O23   O     O_3   0.073493 0.353085 0.830048 -0.513176
C29   C     C_3   0.078679 0.375798 0.972089 0.014954
H14   H     H_    0.992742 0.409159 0.014856 0.203731
H15   H     H_    0.157129 0.444903 0.991679 0.174459
H16   H     H_    0.090995 0.287840 0.028014 0.207891
N9    N     N_R   0.690871 0.144473 0.331825 0.146314
O24   O     O_R   0.732927 0.103451 0.216416 -0.311202
O25   O     O_R   0.749700 0.241045 0.384154 -0.335078
O26   O     O_3   0.224716 0.876879 0.703516 -0.556869
C30   C     C_3   0.182575 0.840632 0.838900 -0.116143
H17   H     H_    0.210088 0.913239 0.913754 0.161981
H18   H     H_    0.216611 0.750996 0.870424 0.155562
H19   H     H_    0.080596 0.827236 0.841742 0.256058

loop_
_geom_bond_atom_site_label_1
_geom_bond_atom_site_label_2
_geom_bond_distance
_ccdc_geom_bond_type
C16   C17   1.404857 A    
C25   C26   1.517265 S    
C21   N1    1.363190 A    
Cu1   Cu2   2.733042 S    
C27   H8    1.107032 S    
C8    N6    1.428314 S    
Cu1   O7    1.973155 S    
C15   C16   1.408258 A    
C17   C18   1.393174 A    
C19   O26   1.413334 S    
C11   N8    1.473756 S    
C3    C17   1.448172 S    
N1    C22   1.369866 A    
C23   N2    1.406544 A    
O7    C4    1.311871 A    
N5    O15   1.296080 A    
C5    C6    1.400344 A    
C8    C9    1.410623 A    
Cu2   N1    2.053094 S    
C28   H12   1.105469 S    
C21   C26   1.492800 S    
O5    C3    1.314798 A    
C5    C12   1.509087 S    
C9    C10   1.384721 A    
C6    C7    1.425930 A    
N6    O18   1.300859 A    
C19   H3    1.092437 S    
C11   C12   1.526715 S    
C25   H5    1.107496 S    
O3    Cu1   1.988609 S    
C27   H9    1.115336 S    
C5    C10   1.379095 A    
N3    O10   1.301139 A    
O23   C29   1.410278 S    
C1    C14   1.457538 S    
C13   C14   1.390174 A    
O3    C2    1.314554 A    
C26   O16   1.416172 S    
N2    C24   1.370232 A    
N9    O25   1.300075 A    
C22   O13   1.392667 S    
N7    O19   1.299174 A    
N4    O12   1.298219 A    
C14   C15   1.418766 A    
O16   C28   1.409578 S    
O1    C1    1.314728 A    
C26   H7    1.112803 S    
C20   H4    1.099474 S    
C28   H13   1.113317 S    
C29   H14   1.108468 S    
C13   C20   1.492532 S    
C22   C23   1.443832 A    
C23   N5    1.450206 S    
C30   H17   1.113376 S    
C18   C19   1.486514 S    
Cu2   O8    1.988609 S    
C7    C8    1.414265 A    
C7    N3    1.438866 S    
C29   H15   1.107939 S    
Cu2   O6    1.972327 S    
C24   C25   1.484375 S    
C30   H18   1.112924 S    
O8    C4    1.308258 A    
O26   C30   1.410344 S    
C11   N7    1.472408 S    
C25   H6    1.087100 S    
C12   O23   1.410250 S    
O13   C27   1.415249 S    
N8    O22   1.302633 A    
C27   H10   1.108490 S    
Cu1   O5    1.961184 S    
N3    O9    1.300579 A    
O1    Cu1   1.972327 S    
C4    C9    1.460219 S    
C19   C20   1.515792 S    
O2    Cu2   1.961182 S    
O6    C3    1.299840 A    
O4    Cu2   1.973155 S    
C15   N9    1.437882 S    
C21   C24   1.418460 A    
N8    O21   1.299579 A    
N5    O14   1.286756 A    
O4    C2    1.306482 A    
O2    C1    1.304886 A    
N6    O17   1.298596 A    
C28   H11   1.108745 S    
C29   H16   1.106960 S    
C13   C18   1.387430 A    
C20   N4    1.475875 S    
C2    C6    1.461419 S    
N9    O24   1.301291 A    
C30   H19   1.108373 S    
C10   C11   1.491721 S    
N7    O20   1.301869 A    
N4    O11   1.302810 A    
C16   H2    1.083880 S    
Cu1   N2    2.053769 S    
C12   H1    1.116713 S    
