data_mof_unit_59989.cif
_audit_creation_date              2012-12-10T18:42:30-0500
_audit_creation_method            fapswitch 2.2
_symmetry_space_group_name_H-M    P1
_symmetry_Int_Tables_number       1
_space_group_crystal_system       triclinic
_cell_length_a                    8.574764
_cell_length_b                    10.648538
_cell_length_c                    9.876921
_cell_angle_alpha                 90.341477
_cell_angle_beta                  98.968891
_cell_angle_gamma                 90.403317
_cell_volume                      890.777225481

loop_
_atom_site_label
_atom_site_type_symbol
_atom_type_description
_atom_site_fract_x
_atom_site_fract_y
_atom_site_fract_z
_atom_type_partial_charge
C1    C     C_R   0.502041 0.260257 0.499837 0.955954
C2    C     C_R   0.498958 0.739733 0.500246 0.914923
C3    C     C_R   0.201083 0.499160 0.463906 0.958591
C4    C     C_R   0.798866 0.498786 0.536023 0.977942
C5    C     C_2   0.035612 0.498378 0.444587 -0.359527
C6    C     C_2   0.964196 0.495327 0.555051 -0.376804
C7    C     C_R   0.597677 0.063538 0.419038 0.487044
C8    C     C_R   0.398134 0.936890 0.575746 0.507765
C9    C     C_R   0.596695 0.933942 0.422422 -0.366329
C10   C     C_R   0.404159 0.065977 0.577227 -0.340936
C11   C     C_R   0.497558 0.872086 0.500073 -0.174204
C12   C     C_R   0.502459 0.127839 0.498995 -0.171086
C13   C     C_R   0.599695 0.577053 0.086476 -0.218386
C14   C     C_R   0.400454 0.422829 0.913552 -0.205287
C15   C     C_R   0.599910 0.577350 0.943093 0.468335
C16   C     C_R   0.400009 0.422712 0.056897 0.437646
H1    H     H_    0.973122 0.501757 0.339982 0.197199
H2    H     H_    0.026683 0.491240 0.659591 0.193765
H3    H     H_    0.675745 0.881612 0.367876 0.169395
H4    H     H_    0.329998 0.117750 0.637134 0.186600
H5    H     H_    0.679260 0.638584 0.152616 0.178389
H6    H     H_    0.320942 0.361249 0.847431 0.182461
N1    N     N_R   0.499960 0.499970 0.857200 -0.131884
N2    N     N_R   0.500040 0.500030 0.142800 -0.136110
O1    O     O_R   0.499990 0.316750 0.614620 -0.640896
O2    O     O_R   0.500010 0.683250 0.385380 -0.642273
O3    O     O_R   0.499990 0.316780 0.385290 -0.555595
O4    O     O_R   0.500010 0.683220 0.614710 -0.529228
O5    O     O_R   0.271750 0.499990 0.587840 -0.626709
O6    O     O_R   0.728250 0.500010 0.412160 -0.628069
O7    O     O_R   0.271750 0.500010 0.358510 -0.571208
O8    O     O_R   0.728250 0.499990 0.641490 -0.577547
Zn1   Zn    Zn3+2 0.500000 0.499980 0.653120 1.016901
Zn2   Zn    Zn3+2 0.500000 0.500020 0.346880 0.999988
O9    O     O_3   0.704472 0.128238 0.352956 -0.612858
C17   C     C_3   0.664489 0.111170 0.209773 0.108126
H7    H     H_    0.536347 0.127627 0.174354 0.183975
H8    H     H_    0.695259 0.014851 0.179272 0.150117
C18   C     C_3   0.757704 0.204971 0.137858 -0.717596
H9    H     H_    0.886273 0.188055 0.166392 0.272151
H10   H     H_    0.724800 0.194772 0.025028 0.209131
H11   H     H_    0.731512 0.302217 0.168168 0.258864
O10   O     O_3   0.300476 0.874949 0.652847 -0.580582
C19   C     C_3   0.149975 0.859917 0.572666 0.043274
H12   H     H_    0.155582 0.791610 0.487782 0.129030
H13   H     H_    0.102908 0.950885 0.528838 0.153593
C20   C     C_3   0.035140 0.809456 0.662361 -0.667632
H14   H     H_    0.020284 0.879338 0.743195 0.265232
H15   H     H_    0.918379 0.790698 0.599006 0.199393
H16   H     H_    0.080745 0.720955 0.711961 0.265433
Cl1   Cl    Cl    0.731060 0.679373 0.877987 -0.609052
Cl2   Cl    Cl    0.267994 0.321389 0.121852 -0.631421

loop_
_geom_bond_atom_site_label_1
_geom_bond_atom_site_label_2
_ccdc_geom_bond_type
C14   N1    A    
C3    O7    A    
O10   C19   S    
C8    O10   S    
C15   Cl1   S    
C18   H11   S    
C16   N2    A    
O9    C17   S    
C19   C20   S    
O8    Zn1   S    
C14   H6    S    
C15   N1    A    
O7    Zn2   S    
C13   H5    S    
C2    O2    A    
C1    O1    A    
C9    C11   A    
C3    O5    A    
C4    O8    A    
C1    C12   S    
C10   C12   A    
C8    C11   A    
C5    C6    D    
C2    C11   S    
C13   N2    A    
C4    C6    S    
C17   H7    S    
C19   H13   S    
O4    Zn1   S    
C20   H16   S    
C13   C15   A    
O3    Zn2   S    
C7    C12   A    
C6    H2    S    
C14   C16   A    
C5    H1    S    
O6    Zn2   S    
C17   H8    S    
C7    C9    A    
C19   H12   S    
C18   H10   S    
C20   H15   S    
C9    H3    S    
O1    Zn1   S    
C18   H9    S    
C1    O3    A    
C17   C18   S    
C2    O4    A    
N1    Zn1   S    
C7    O9    S    
O2    Zn2   S    
C8    C10   A    
C4    O6    A    
C16   Cl2   S    
C20   H14   S    
O5    Zn1   S    
C10   H4    S    
C3    C5    S    
N2    Zn2   S    
