data_mof_unit_8990.cif
_audit_creation_date              2012-12-10T17:27:50-0500
_audit_creation_method            fapswitch 2.2
_symmetry_space_group_name_H-M    P1
_symmetry_Int_Tables_number       1
_space_group_crystal_system       triclinic
_cell_length_a                    10.628449
_cell_length_b                    11.99309
_cell_length_c                    12.869571
_cell_angle_alpha                 93.337745
_cell_angle_beta                  90.257454
_cell_angle_gamma                 86.567259
_cell_volume                      1634.73583702

loop_
_atom_site_label
_atom_site_type_symbol
_atom_type_description
_atom_site_fract_x
_atom_site_fract_y
_atom_site_fract_z
_atom_type_partial_charge
C1    C     C_R   0.500585 0.522054 0.700432 0.889354
C2    C     C_R   0.467296 0.637472 0.863057 -0.200969
C3    C     C_R   0.548109 0.443512 0.866911 -0.225102
C4    C     C_R   0.739485 0.500016 0.496919 0.872342
C5    C     C_R   0.546130 0.449943 0.974678 0.153763
C6    C     C_R   0.497477 0.551340 0.025722 0.157571
C7    C     C_R   0.481266 0.557605 0.131621 -0.266377
C8    C     C_R   0.562886 0.364886 0.140006 -0.324495
C9    C     C_R   0.583705 0.356802 0.033130 0.004145
C10   C     C_R   0.385571 0.954015 0.400030 -0.327418
C11   C     C_R   0.396274 0.837862 0.409916 0.030672
C12   C     C_R   0.937720 0.436225 0.409334 0.096018
C13   C     C_R   0.548949 0.858595 0.543525 -0.044111
C14   C     C_R   0.541436 0.975920 0.536410 0.082623
C15   C     C_R   0.458549 0.024098 0.463565 0.093993
C16   C     C_R   0.502501 0.477967 0.299543 0.865216
C17   C     C_R   0.451043 0.141420 0.456449 -0.048134
C18   C     C_R   0.603692 0.162137 0.590109 0.042805
C19   C     C_R   0.614383 0.045999 0.599985 -0.316588
C20   C     C_R   0.260498 0.499178 0.497185 0.872178
C21   C     C_R   0.875942 0.376750 0.327818 -0.177976
C22   C     C_R   0.945117 0.316269 0.249328 -0.121573
C23   C     C_R   0.871597 0.500039 0.489335 -0.093905
C24   C     C_R   0.076163 0.314807 0.250090 -0.134072
C25   C     C_R   0.138471 0.373989 0.329229 -0.196171
C26   C     C_R   0.069695 0.434916 0.410012 0.096156
C27   C     C_2   0.647065 0.251013 0.988769 0.341569
C28   C     C_R   0.931734 0.564799 0.565215 -0.204492
C29   C     C_R   0.060320 0.563648 0.565816 -0.199050
C30   C     C_R   0.128297 0.497767 0.490531 -0.097604
C31   C     C_R   0.512691 0.464900 0.188400 -0.045352
C32   C     C_R   0.506451 0.535654 0.811773 -0.081126
C33   C     C_R   0.462146 0.645125 0.970313 -0.204005
H1    H     H_    0.878908 0.614163 0.625431 0.150625
H2    H     H_    0.774337 0.377767 0.322963 0.147651
H3    H     H_    0.896815 0.271293 0.187235 0.146108
H4    H     H_    0.129700 0.268603 0.188622 0.139609
H5    H     H_    0.240141 0.372729 0.325435 0.143134
H6    H     H_    0.107301 0.612557 0.626260 0.153875
H7    H     H_    0.442604 0.635166 0.169827 0.156731
H8    H     H_    0.590973 0.294736 0.186187 0.153970
H9    H     H_    0.427169 0.723115 0.009771 0.138650
H10   H     H_    0.634406 0.173383 0.025765 0.068257
H11   H     H_    0.436037 0.709348 0.820413 0.163200
H12   H     H_    0.576340 0.365694 0.824734 0.206269
H13   H     H_    0.387752 0.180011 0.401002 0.124606
H14   H     H_    0.659869 0.216074 0.639272 0.154081
H15   H     H_    0.320957 0.988580 0.343277 0.145546
H16   H     H_    0.678947 0.011454 0.656779 0.157908
H17   H     H_    0.340053 0.783928 0.360796 0.130368
H18   H     H_    0.612228 0.820031 0.598981 0.125799
N1    N     N_R   0.523130 0.207800 0.519340 -0.106867
N2    N     N_R   0.476870 0.792180 0.480660 -0.101383
O1    O     O_R   0.506170 0.421690 0.658830 -0.623097
O2    O     O_R   0.491330 0.609320 0.646410 -0.626910
O3    O     O_R   0.690660 0.406170 0.506210 -0.622787
O4    O     O_R   0.675810 0.593790 0.493790 -0.615270
O5    O     O_R   0.508670 0.390680 0.353590 -0.641727
O6    O     O_R   0.493830 0.578310 0.341170 -0.625131
O7    O     O_R   0.324190 0.406210 0.506210 -0.616474
O8    O     O_R   0.309340 0.593830 0.493790 -0.619371
O9    O     O_2   0.720016 0.249933 0.915691 -0.585959
Zn1   Zn    Zn3+2 0.509910 0.374720 0.508290 0.943886
Zn2   Zn    Zn3+2 0.490090 0.625280 0.491710 0.944816

loop_
_geom_bond_atom_site_label_1
_geom_bond_atom_site_label_2
_ccdc_geom_bond_type
C4    O4    A    
O8    Zn2   S    
C7    H7    S    
C24   C25   A    
C5    C9    A    
C29   C30   A    
C21   H2    S    
C27   O9    D    
C25   H5    S    
C20   O7    A    
C22   H3    S    
C19   H16   S    
C11   N2    A    
C6    C33   A    
C1    O1    A    
C18   H14   S    
C29   H6    S    
C24   H4    S    
C1    O2    A    
O3    Zn1   S    
C18   N1    A    
C11   H17   S    
C16   O5    A    
C21   C22   A    
C4    O3    A    
C16   C31   S    
C17   H13   S    
C12   C23   A    
C9    C27   S    
O6    Zn2   S    
C6    C7    A    
O7    Zn1   S    
C5    C6    A    
C33   H9    S    
C12   C21   A    
C17   N1    A    
C28   C29   A    
N1    Zn1   S    
C26   C30   A    
C13   N2    A    
C10   C15   A    
O2    Zn2   S    
C10   H15   S    
C3    C32   A    
N2    Zn2   S    
C22   C24   A    
C13   H18   S    
C7    C31   A    
O1    Zn1   S    
C28   H1    S    
C27   H10   S    
C20   O8    A    
C8    H8    S    
C2    C33   A    
O4    Zn2   S    
C2    C32   A    
C18   C19   A    
C10   C11   A    
C2    H11   S    
O5    Zn1   S    
C15   C17   A    
C4    C23   S    
C14   C15   A    
C20   C30   S    
C25   C26   A    
C13   C14   A    
C8    C31   A    
C14   C19   A    
C3    H12   S    
C1    C32   S    
C23   C28   A    
C12   C26   A    
C8    C9    A    
C3    C5    A    
C16   O6    A    
