data_mof_unit_19380.cif
_audit_creation_date              2012-10-26T20:46:55-0400
_audit_creation_method            fapswitch 2.2
_symmetry_space_group_name_H-M    P1
_symmetry_Int_Tables_number       1
_space_group_crystal_system       triclinic
_cell_length_a                    15.136559
_cell_length_b                    13.915611
_cell_length_c                    10.926575
_cell_angle_alpha                 90.059279
_cell_angle_beta                  90.934195
_cell_angle_gamma                 90.167763
_cell_volume                      2301.19617064

loop_
_atom_site_label
_atom_site_type_symbol
_atom_type_description
_atom_site_fract_x
_atom_site_fract_y
_atom_site_fract_z
_atom_type_partial_charge
C1    C     C_R   0.330150 0.499826 0.502622 0.561143
C2    C     C_R   0.428900 0.892112 0.450608 0.197071
C3    C     C_R   0.572801 0.891326 0.551275 0.196171
C4    C     C_R   0.431710 0.790817 0.447576 0.039256
C5    C     C_R   0.568974 0.790061 0.552693 0.047010
C6    C     C_R   0.501347 0.944966 0.500977 0.023581
C7    C     C_R   0.498961 0.499976 0.265268 0.543220
C8    C     C_R   0.501398 0.500061 0.734743 0.559332
C9    C     C_2   0.500043 0.421035 0.933031 -0.167460
C10   C     C_2   0.504956 0.421246 0.066978 -0.171133
C11   C     C_2   0.506714 0.501646 0.866853 -0.116247
C12   C     C_R   0.670347 0.500257 0.497870 0.541218
C13   C     C_2   0.494327 0.501335 0.133162 -0.126860
C14   C     C_R   0.096205 0.558650 0.588423 -0.112112
C15   C     C_R   0.908957 0.583667 0.490281 -0.109799
C16   C     C_R   0.188512 0.561476 0.586620 0.126977
C17   C     C_R   0.816842 0.586575 0.481191 0.134837
C18   C     C_R   0.233846 0.498932 0.508091 0.043722
C19   C     C_R   0.767660 0.500580 0.496156 0.034711
C20   C     C_R   0.186539 0.432771 0.435833 -0.171825
C21   C     C_R   0.812753 0.413202 0.512256 -0.173334
C22   C     C_R   0.094892 0.430663 0.437632 -0.135016
C23   C     C_R   0.049344 0.494489 0.512632 0.006802
C24   C     C_R   0.904426 0.411110 0.518133 -0.137935
C25   C     C_3   0.233384 0.723241 0.634667 -0.293831
C26   C     C_3   0.753286 0.688559 0.325593 -0.286566
C27   C     C_3   0.662914 0.247350 0.705618 -0.004411
C28   C     C_3   0.688655 0.198996 0.825875 -0.399920
C29   C     C_3   0.344357 0.231595 0.277546 -0.018691
C30   C     C_3   0.307809 0.296409 0.176863 -0.374006
C31   C     C_3   0.299289 0.966648 0.493321 -0.016017
C32   C     C_3   0.212976 0.002145 0.436770 -0.379403
C33   C     C_3   0.707026 0.955779 0.510370 -0.015499
C34   C     C_R   0.952753 0.496403 0.508637 0.008174
C35   C     C_3   0.792616 0.992358 0.568674 -0.381696
C36   C     C_R   0.532909 0.107284 0.601144 -0.135211
C37   C     C_R   0.471906 0.106039 0.398527 -0.144587
C38   C     C_R   0.535896 0.208803 0.597545 0.367714
C39   C     C_R   0.465946 0.207600 0.401829 0.360461
C40   C     C_R   0.502410 0.053962 0.500197 -0.056766
Cu1   Cu    Cu3+1 0.500000 0.596430 0.500000 0.945370
Cu2   Cu    Cu3+1 0.500000 0.403570 0.500000 1.026419
H1    H     H_    0.492049 0.351747 0.888351 0.186591
H2    H     H_    0.777307 0.346006 0.520875 0.114005
H3    H     H_    0.059472 0.380808 0.378356 0.112218
H4    H     H_    0.937685 0.342998 0.531499 0.109986
H5    H     H_    0.554659 0.070736 0.683443 0.166156
H6    H     H_    0.452790 0.068005 0.315854 0.158531
H7    H     H_    0.218211 0.612934 0.758629 0.241090
H8    H     H_    0.165892 0.752826 0.646084 0.114064
H9    H     H_    0.253227 0.732233 0.538003 0.163020
H10   H     H_    0.280216 0.764153 0.694258 0.139743
H11   H     H_    0.807357 0.734590 0.490672 0.232523
H12   H     H_    0.515940 0.352569 0.111731 0.186574
H13   H     H_    0.814711 0.694206 0.271661 0.123804
H14   H     H_    0.714433 0.755444 0.313183 0.129366
H15   H     H_    0.712753 0.627518 0.290350 0.169369
H16   H     H_    0.692567 0.320398 0.706086 0.158844
H17   H     H_    0.692857 0.207253 0.628065 0.100533
H18   H     H_    0.761764 0.196519 0.835380 0.097630
H19   H     H_    0.661675 0.240123 0.903966 0.158775
H20   H     H_    0.662606 0.124446 0.828260 0.156450
H21   H     H_    0.304312 0.241471 0.361239 0.126318
H22   H     H_    0.337563 0.156190 0.245101 0.127879
H23   H     H_    0.377937 0.751693 0.404158 0.143820
H24   H     H_    0.236213 0.281894 0.162390 0.087480
H25   H     H_    0.317163 0.373083 0.202424 0.164424
H26   H     H_    0.342777 0.282476 0.090045 0.153610
H27   H     H_    0.329086 0.026350 0.547787 0.140079
H28   H     H_    0.283778 0.906211 0.555874 0.111829
H29   H     H_    0.180754 0.943525 0.383199 0.154983
H30   H     H_    0.167782 0.025470 0.510061 0.090133
H31   H     H_    0.225721 0.063974 0.375382 0.140957
H32   H     H_    0.681037 0.012057 0.447163 0.136853
H33   H     H_    0.722560 0.890001 0.456856 0.122876
H34   H     H_    0.622709 0.750392 0.594806 0.166708
H35   H     H_    0.821446 0.936294 0.629444 0.152969
H36   H     H_    0.840716 0.009970 0.496333 0.087338
H37   H     H_    0.779873 0.057936 0.623436 0.149854
H38   H     H_    0.518504 0.571251 0.908349 0.102175
H39   H     H_    0.479954 0.570239 0.091694 0.103493
H40   H     H_    0.061063 0.606391 0.648980 0.103729
H41   H     H_    0.946655 0.649310 0.478762 0.098364
H42   H     H_    0.220432 0.383969 0.376082 0.110978
N1    N     N_R   0.500000 0.258690 0.500000 -0.204548
N2    N     N_R   0.500000 0.741330 0.500000 -0.288672
N3    N     N_2   0.235613 0.622989 0.668651 -0.498995
N4    N     N_2   0.774932 0.675640 0.454035 -0.505542
O1    O     O_R   0.371460 0.581430 0.500010 -0.491006
O2    O     O_3   0.433759 0.255904 0.300222 -0.535953
O3    O     O_3   0.356161 0.937503 0.399091 -0.583714
O4    O     O_3   0.645833 0.936179 0.603244 -0.582372
O5    O     O_R   0.628540 0.581430 0.499990 -0.479699
O6    O     O_R   0.371470 0.418560 0.500010 -0.502001
O7    O     O_R   0.628530 0.418560 0.499990 -0.514549
O8    O     O_R   0.500000 0.581410 0.321940 -0.514668
O9    O     O_R   0.500000 0.581410 0.678060 -0.501824
O10   O     O_R   0.500010 0.418540 0.321940 -0.440190
O11   O     O_R   0.499990 0.418540 0.678060 -0.445761
O12   O     O_3   0.569977 0.257615 0.697704 -0.541490

loop_
_geom_bond_atom_site_label_1
_geom_bond_atom_site_label_2
_ccdc_geom_bond_type
Cu1   O1    S    
C29   H21   S    
C7    O10   A    
C17   N4    S    
Cu1   Cu2   S    
H7    N3    S    
C3    C6    A    
C26   H13   S    
C32   H30   S    
Cu1   N2    S    
C1    C18   S    
C19   C21   A    
C8    O11   A    
C37   C40   A    
Cu2   O10   S    
C4    H23   S    
Cu1   O8    S    
C4    N2    A    
C13   H39   S    
C25   N3    S    
C36   H5    S    
C25   H8    S    
C33   C35   S    
C33   H33   S    
C31   H28   S    
Cu1   O5    S    
C1    O6    A    
C16   N3    S    
C12   O7    A    
C14   C16   A    
C9    C10   S    
C15   C34   A    
C30   H25   S    
C28   H19   S    
C29   H22   S    
C2    C6    A    
C29   O2    S    
C32   H29   S    
C28   H18   S    
C27   O12   S    
C9    H1    S    
C38   N1    A    
Cu2   O7    S    
C36   C40   A    
C6    C40   S    
C38   O12   S    
C33   O4    S    
C32   H31   S    
C15   H41   S    
C35   H35   S    
C24   C34   A    
C3    O4    S    
C14   C23   A    
C2    C4    A    
C8    O9    A    
C25   H9    S    
C29   C30   S    
C7    O8    A    
C21   H2    S    
C31   C32   S    
C31   H27   S    
C23   C34   S    
Cu2   N1    S    
C37   H6    S    
C9    C11   D    
C30   H24   S    
C5    N2    A    
C16   C18   A    
C20   C22   A    
C31   O3    S    
C20   H42   S    
Cu1   O9    S    
C12   O5    A    
C39   N1    A    
C15   C17   A    
C1    O1    A    
C39   O2    S    
Cu2   O6    S    
C3    C5    A    
C10   C13   D    
C26   H14   S    
C35   H36   S    
C24   H4    S    
C5    H34   S    
C36   C38   A    
C25   H10   S    
C37   C39   A    
C27   H17   S    
Cu2   O11   S    
C27   H16   S    
C8    C11   S    
C12   C19   S    
C35   H37   S    
C17   C19   A    
H11   N4    S    
C18   C20   A    
C2    O3    S    
C10   H12   S    
C26   H15   S    
C11   H38   S    
C33   H32   S    
C7    C13   S    
C22   H3    S    
C26   N4    S    
C21   C24   A    
C27   C28   S    
C14   H40   S    
C22   C23   A    
C30   H26   S    
C28   H20   S    
