data_mof_unit_11559.cif
_audit_creation_date              2012-12-10T17:31:28-0500
_audit_creation_method            fapswitch 2.2
_symmetry_space_group_name_H-M    P1
_symmetry_Int_Tables_number       1
_space_group_crystal_system       triclinic
_cell_length_a                    19.358716
_cell_length_b                    18.430344
_cell_length_c                    12.333261
_cell_angle_alpha                 89.603773
_cell_angle_beta                  129.616793
_cell_angle_gamma                 90.175438
_cell_volume                      3389.62486027

loop_
_atom_site_label
_atom_site_type_symbol
_atom_type_description
_atom_site_fract_x
_atom_site_fract_y
_atom_site_fract_z
_atom_type_partial_charge
C1    C     C_R   0.604779 0.893853 0.644117 0.812642
C2    C     C_R   0.607473 0.104698 0.647314 0.845254
C3    C     C_R   0.104779 0.393853 0.644117 0.812642
C4    C     C_R   0.107473 0.604698 0.647314 0.845254
C5    C     C_R   0.223827 0.791827 0.012332 0.078359
C6    C     C_R   0.223073 0.209635 0.013064 0.046475
C7    C     C_R   0.723827 0.291827 0.012332 0.078359
C8    C     C_R   0.723073 0.709635 0.013064 0.046475
C9    C     C_R   0.651550 0.280664 0.014329 0.001804
C10   C     C_R   0.668002 0.739574 0.040897 0.033578
C11   C     C_R   0.151550 0.780664 0.014329 0.001804
C12   C     C_R   0.168002 0.239574 0.040897 0.033578
C13   C     C_R   0.574390 0.244004 0.898655 -0.060464
C14   C     C_R   0.587124 0.773877 0.928597 0.019167
C15   C     C_R   0.074390 0.744004 0.898655 -0.060464
C16   C     C_R   0.087124 0.273877 0.928597 0.019167
C17   C     C_R   0.577713 0.207344 0.803244 -0.244282
C18   C     C_R   0.576554 0.796542 0.810501 -0.195732
C19   C     C_R   0.077713 0.707344 0.803244 -0.244282
C20   C     C_R   0.076553 0.296542 0.810501 -0.195732
C21   C     C_R   0.300837 0.828351 0.124606 -0.233684
C22   C     C_R   0.294628 0.164637 0.115029 -0.203853
C23   C     C_R   0.800837 0.328351 0.124606 -0.233684
C24   C     C_R   0.794628 0.664637 0.115029 -0.203853
C25   C     C_R   0.236440 0.846156 0.237145 -0.218927
C26   C     C_R   0.265376 0.185854 0.275633 -0.233970
C27   C     C_R   0.736440 0.346156 0.237145 -0.218927
C28   C     C_R   0.765376 0.685854 0.275633 -0.233970
C29   C     C_R   0.659915 0.171420 0.719241 -0.072259
C30   C     C_R   0.649199 0.822674 0.706007 -0.098928
C31   C     C_R   0.159915 0.671420 0.719241 -0.072259
C32   C     C_R   0.149199 0.322674 0.706007 -0.098928
C33   C     C_R   0.671390 0.047884 0.282132 -0.251805
C34   C     C_R   0.171390 0.547884 0.282132 -0.251805
C35   C     C_R   0.346023 0.986681 0.627055 0.117484
C36   C     C_R   0.846023 0.486681 0.627055 0.117484
C37   C     C_R   0.312310 0.981268 0.698200 -0.215702
C38   C     C_R   0.812310 0.481268 0.698200 -0.215702
C39   C     C_R   0.384709 0.098915 0.341776 0.797088
C40   C     C_R   0.383188 0.902457 0.340081 0.784657
C41   C     C_R   0.884709 0.598915 0.341776 0.797088
C42   C     C_R   0.883188 0.402457 0.340081 0.784657
C43   C     C_R   0.369125 0.989548 0.843592 -0.143308
C44   C     C_R   0.869125 0.489548 0.843592 -0.143308
C45   C     C_R   0.460788 0.004572 0.920035 0.066266
C46   C     C_R   0.960788 0.504572 0.920035 0.066266
C47   C     C_R   0.493609 0.009966 0.843789 0.250445
C48   C     C_R   0.993609 0.509965 0.843789 0.250445
C49   C     C_R   0.521905 0.012806 0.070140 0.017545
C50   C     C_R   0.021905 0.512806 0.070140 0.017545
C51   C     C_R   0.607793 0.041888 0.135595 0.142653
C52   C     C_R   0.107793 0.541888 0.135595 0.142653
C53   C     C_R   0.632269 0.060698 0.055542 -0.319140
C54   C     C_R   0.132269 0.560698 0.055542 -0.319140
C55   C     C_R   0.586259 0.029937 0.923398 -0.004160
C56   C     C_R   0.086259 0.529937 0.923398 -0.004160
C57   C     C_R   0.502491 0.993451 0.159406 0.064269
C58   C     C_R   0.002490 0.493451 0.159406 0.064269
C59   C     C_R   0.649594 0.025288 0.364107 0.125124
C60   C     C_R   0.149594 0.525288 0.364107 0.125124
C61   C     C_R   0.659831 0.307600 0.130906 -0.091588
C62   C     C_R   0.695535 0.733115 0.178877 0.034757
C63   C     C_R   0.159831 0.807600 0.130906 -0.091588
C64   C     C_R   0.195535 0.233115 0.178877 0.034757
C65   C     C_R   0.306692 0.856583 0.234649 -0.056335
C66   C     C_R   0.313606 0.150554 0.242946 -0.070776
C67   C     C_R   0.806692 0.356583 0.234649 -0.056335
C68   C     C_R   0.813606 0.650554 0.242946 -0.070776
C69   C     C_R   0.719292 0.195182 0.697819 -0.165724
C70   C     C_R   0.698684 0.792167 0.670498 -0.210535
C71   C     C_R   0.219292 0.695182 0.697819 -0.165724
C72   C     C_R   0.198684 0.292167 0.670498 -0.210535
C73   C     C_R   0.272866 0.755391 0.768237 -0.126132
C74   C     C_R   0.245843 0.227918 0.733551 -0.118324
C75   C     C_R   0.772866 0.255391 0.768237 -0.126132
C76   C     C_R   0.745843 0.727918 0.733551 -0.118323
C77   C     C_R   0.275917 0.787908 0.872776 -0.198288
C78   C     C_R   0.254830 0.198681 0.846347 -0.140251
C79   C     C_R   0.775917 0.287908 0.872776 -0.198288
C80   C     C_R   0.754830 0.698681 0.846347 -0.140251
C81   C     C_R   0.718974 0.263974 0.900445 0.096309
C82   C     C_R   0.708099 0.729563 0.887910 0.078718
C83   C     C_R   0.218974 0.763974 0.900445 0.096309
C84   C     C_R   0.208099 0.229564 0.887910 0.078718
C85   C     C_R   0.652640 0.212105 0.809450 0.084545
C86   C     C_R   0.644422 0.784365 0.801486 0.090174
C87   C     C_R   0.152640 0.712105 0.809450 0.084545
C88   C     C_R   0.144422 0.284365 0.801486 0.090174
Cu1   Cu    Cu3+1 0.526340 1.000000 0.421010 0.952331
Cu2   Cu    Cu3+1 0.026340 0.500000 0.421010 0.952331
Cu3   Cu    Cu3+1 0.473640 1.000000 0.578990 0.956224
Cu4   Cu    Cu3+1 0.973640 0.500000 0.578990 0.956224
H1    H     H_    0.241582 0.867560 0.323757 0.163296
H2    H     H_    0.284859 0.179000 0.379296 0.185895
H3    H     H_    0.741582 0.367560 0.323757 0.163296
H4    H     H_    0.784859 0.678999 0.379296 0.185895
H5    H     H_    0.699541 0.081741 0.109538 0.171217
H6    H     H_    0.199541 0.581741 0.109538 0.171217
H7    H     H_    0.737764 0.069459 0.332979 0.136272
H8    H     H_    0.237764 0.569459 0.332979 0.136272
H9    H     H_    0.437091 0.974298 0.117628 0.105187
H10   H     H_    0.937091 0.474297 0.117628 0.105187
H11   H     H_    0.301068 0.979924 0.514136 0.131503
H12   H     H_    0.801068 0.479924 0.514136 0.131503
H13   H     H_    0.339406 0.985913 0.893473 0.114152
H14   H     H_    0.839407 0.485913 0.893473 0.114152
H15   H     H_    0.241741 0.970494 0.640306 0.152192
H16   H     H_    0.741741 0.470493 0.640306 0.152192
H17   H     H_    0.358496 0.833836 0.130005 0.151025
H18   H     H_    0.337380 0.140437 0.097721 0.162009
H19   H     H_    0.858496 0.333836 0.130005 0.151025
H20   H     H_    0.837380 0.640437 0.097721 0.162009
H21   H     H_    0.723487 0.168000 0.624595 0.157779
H22   H     H_    0.700513 0.817535 0.593008 0.174796
H23   H     H_    0.223487 0.668000 0.624595 0.157779
H24   H     H_    0.200513 0.317535 0.593008 0.174796
H25   H     H_    0.320358 0.833704 0.926144 0.143337
H26   H     H_    0.296576 0.151105 0.896031 0.142627
H27   H     H_    0.820358 0.333704 0.926144 0.143337
H28   H     H_    0.796576 0.651105 0.896031 0.142627
H29   H     H_    0.314207 0.775382 0.744152 0.190309
H30   H     H_    0.278898 0.202609 0.698743 0.204338
H31   H     H_    0.814207 0.275382 0.744152 0.190309
H32   H     H_    0.778898 0.702609 0.698743 0.204338
H33   H     H_    0.516934 0.181319 0.715192 0.182505
H34   H     H_    0.514220 0.822397 0.724974 0.178854
H35   H     H_    0.016934 0.681319 0.715192 0.182505
H36   H     H_    0.014220 0.322397 0.724974 0.178854
H37   H     H_    0.697627 0.031688 0.477053 0.126965
H38   H     H_    0.197627 0.531688 0.477053 0.126965
N1    N     N_R   0.566260 0.000000 0.302220 -0.190311
N2    N     N_R   0.066260 0.500000 0.302220 -0.190311
N3    N     N_R   0.434410 1.000000 0.697680 -0.219304
N4    N     N_R   0.934410 0.500000 0.697680 -0.219304
O1    O     O_R   0.608610 0.924520 0.551740 -0.579381
O2    O     O_R   0.608610 0.075480 0.551740 -0.590679
O3    O     O_R   0.108610 0.424520 0.551740 -0.579381
O4    O     O_R   0.108610 0.575480 0.551740 -0.590679
O5    O     O_R   0.564110 0.924510 0.685150 -0.578583
O6    O     O_R   0.564110 0.075490 0.685150 -0.584614
O7    O     O_R   0.064110 0.424510 0.685150 -0.578583
O8    O     O_R   0.064110 0.575490 0.685150 -0.584614
O9    O     O_R   0.435880 0.075470 0.314850 -0.581637
O10   O     O_R   0.435880 0.924530 0.314850 -0.596845
O11   O     O_R   0.935880 0.575470 0.314850 -0.581637
O12   O     O_R   0.935880 0.424530 0.314850 -0.596845
O13   O     O_R   0.391380 0.075460 0.448260 -0.594978
O14   O     O_R   0.391380 0.924540 0.448260 -0.605696
O15   O     O_R   0.891380 0.575460 0.448260 -0.594978
O16   O     O_R   0.891380 0.424540 0.448260 -0.605696
C89   C     C_2   0.652226 0.988087 0.926913 0.942560
O17   O     O_2   0.663654 0.924183 0.960848 -0.581574
O18   O     O_R   0.713454 0.023639 0.920455 -0.769541
H39   H     H_    0.758546 0.989183 0.932117 0.330756
C90   C     C_2   0.152226 0.488087 0.926913 0.942560
O19   O     O_2   0.163654 0.424183 0.960848 -0.581574
O20   O     O_R   0.213454 0.523639 0.920455 -0.769541
H40   H     H_    0.258546 0.489183 0.932117 0.330756
C91   C     C_2   0.486317 0.248135 0.864282 0.847848
O21   O     O_2   0.443468 0.192717 0.838070 -0.622176
O22   O     O_R   0.451485 0.315833 0.858011 -0.736119
H41   H     H_    0.391727 0.312254 0.836612 0.345110
C92   C     C_2   0.510924 0.782210 0.927910 0.822675
O23   O     O_2   0.463541 0.836288 0.875884 -0.618654
O24   O     O_R   0.494100 0.728027 0.988347 -0.759737
H42   H     H_    0.448411 0.743140 0.998681 0.338457
C93   C     C_2   0.986317 0.748135 0.864282 0.847848
O25   O     O_2   0.943468 0.692717 0.838070 -0.622176
O26   O     O_R   0.951485 0.815833 0.858011 -0.736119
H43   H     H_    0.891727 0.812254 0.836612 0.345110
C94   C     C_2   0.010924 0.282210 0.927910 0.822675
O27   O     O_2   0.963541 0.336288 0.875884 -0.618654
O28   O     O_R   0.994100 0.228027 0.988347 -0.759737
H44   H     H_    0.948411 0.243141 0.998681 0.338457
C95   C     C_2   0.594411 0.293887 0.154095 0.893389
O29   O     O_2   0.564178 0.344911 0.174919 -0.519549
O30   O     O_R   0.569710 0.223553 0.159108 -0.727184
H45   H     H_    0.603009 0.185931 0.148980 0.291615
C96   C     C_2   0.661800 0.780958 0.232531 0.864822
O31   O     O_2   0.647015 0.845160 0.199097 -0.582716
O32   O     O_R   0.649253 0.752951 0.324477 -0.760620
H46   H     H_    0.623604 0.790302 0.350203 0.326708
C97   C     C_2   0.094411 0.793887 0.154095 0.893389
O33   O     O_2   0.064178 0.844911 0.174919 -0.519549
O34   O     O_R   0.069710 0.723553 0.159108 -0.727184
H47   H     H_    0.103009 0.685931 0.148980 0.291615
C98   C     C_2   0.161800 0.280958 0.232531 0.864822
O35   O     O_2   0.147015 0.345160 0.199097 -0.582716
O36   O     O_R   0.149253 0.252951 0.324477 -0.760620
H48   H     H_    0.123604 0.290302 0.350203 0.326708

loop_
_geom_bond_atom_site_label_1
_geom_bond_atom_site_label_2
_ccdc_geom_bond_type
C26   H2    S    
C83   C87   A    
C94   O27   D    
C80   H28   S    
C25   H1    S    
O20   H40   S    
Cu1   O1    S    
C90   O20   S    
O26   H43   S    
C14   C18   A    
C27   H3    S    
C92   O23   D    
C3    O7    A    
C25   C63   A    
C35   N3    A    
Cu3   O13   S    
O22   H41   S    
C82   C86   A    
C95   O30   S    
O24   H42   S    
O32   H46   S    
C70   H22   S    
C15   C19   A    
C94   O28   S    
C59   N1    A    
C18   C86   A    
C2    C29   S    
C17   C85   A    
C48   N4    A    
C78   H26   S    
C37   H15   S    
Cu2   O11   S    
C77   H25   S    
C97   O34   S    
C6    C12   A    
C12   C64   A    
C41   O15   A    
C77   C83   A    
C6    C22   A    
C49   C57   A    
C41   O11   A    
C48   C56   A    
C43   H13   S    
C23   C67   A    
C14   C92   S    
C26   C64   A    
C22   C66   A    
C9    C13   A    
C27   C61   A    
C30   C70   A    
C11   C15   A    
C12   C16   A    
C44   C46   A    
C22   H18   S    
C32   C72   A    
C61   C95   S    
C50   C52   A    
C89   O17   D    
C91   O22   S    
C3    O3    A    
C30   C86   A    
Cu4   O8    S    
C29   C85   A    
C1    O5    A    
C4    C31   S    
Cu2   N2    S    
C53   C55   A    
C33   C59   A    
Cu1   O2    S    
C47   N3    A    
C34   C60   A    
C15   C93   S    
C10   C62   A    
C56   C90   S    
C21   C65   A    
Cu3   O14   S    
Cu2   O4    S    
C52   C54   A    
C41   C68   S    
C29   C69   A    
C45   C47   A    
Cu2   Cu4   S    
C54   C56   A    
C90   O19   D    
C63   C97   S    
C40   O14   A    
C76   H32   S    
C20   H36   S    
C84   C88   A    
C6    C84   A    
C93   O26   S    
C10   C14   A    
C58   N2    A    
C93   O25   D    
C71   C73   A    
C49   C51   A    
O28   H44   S    
C2    O2    A    
Cu3   O6    S    
C79   H27   S    
C51   C53   A    
C26   C66   A    
C37   C43   A    
C97   O33   D    
C38   C44   A    
C9    C61   A    
C34   H8    S    
C91   O21   D    
Cu3   N3    S    
C45   C49   A    
C16   C20   A    
C4    O8    A    
C69   H21   S    
C50   C58   A    
C71   H23   S    
C3    C32   S    
C55   C89   S    
Cu4   O7    S    
C43   C45   A    
Cu3   O5    S    
C72   C74   A    
C7    C81   A    
C39   O9    A    
C73   H29   S    
C40   C65   S    
C40   O10   A    
Cu4   O16   S    
C42   C67   S    
C39   C66   S    
C75   H31   S    
C31   C87   A    
Cu1   Cu3   S    
C60   H38   S    
C42   O12   A    
C62   C96   S    
Cu2   O3    S    
C57   H9    S    
C35   C37   A    
C47   C55   A    
C7    C9    A    
C46   C50   A    
C59   H37   S    
C60   N2    A    
C36   H12   S    
C74   H30   S    
C34   C52   A    
C57   N1    A    
Cu4   N4    S    
C76   C80   A    
C28   C68   A    
C36   N4    A    
C21   H17   S    
C79   C81   A    
C5    C83   A    
C5    C11   A    
C44   H14   S    
C33   C51   A    
Cu1   O10   S    
C23   H19   S    
C72   H24   S    
C35   H11   S    
Cu1   N1    S    
C13   C17   A    
C28   H4    S    
C53   H5    S    
C36   C38   A    
C19   C87   A    
C2    O6    A    
C98   O35   D    
Cu2   O12   S    
C95   O29   D    
Cu1   O9    S    
C18   H34   S    
C70   C76   A    
C16   C94   S    
C17   H33   S    
O34   H47   S    
C7    C23   A    
C58   H10   S    
C20   C88   A    
C19   H35   S    
C1    C30   S    
C8    C24   A    
C80   C82   A    
C69   C75   A    
C89   O18   S    
C38   H16   S    
O36   H48   S    
C42   O16   A    
C24   H20   S    
C98   O36   S    
C64   C98   S    
C27   C67   A    
C24   C68   A    
C4    O4    A    
C96   O31   D    
C46   C48   A    
C78   C84   A    
C8    C82   A    
C5    C21   A    
C8    C10   A    
O30   H45   S    
C74   C78   A    
C39   O13   A    
Cu4   O15   S    
C25   C65   A    
C73   C77   A    
C54   H6    S    
C92   O24   S    
C33   H7    S    
O18   H39   S    
C1    O1    A    
C11   C63   A    
C75   C79   A    
C13   C91   S    
C81   C85   A    
C28   C62   A    
C31   C71   A    
C96   O32   S    
C32   C88   A    
