data_mof_unit_10647.cif
_audit_creation_date              2012-12-10T20:46:34-0500
_audit_creation_method            fapswitch 2.2
_symmetry_space_group_name_H-M    P1
_symmetry_Int_Tables_number       1
_space_group_crystal_system       triclinic
_cell_length_a                    10.471658
_cell_length_b                    8.924616
_cell_length_c                    8.105485
_cell_angle_alpha                 89.806917
_cell_angle_beta                  101.418034
_cell_angle_gamma                 90.055067
_cell_volume                      742.506323589

loop_
_atom_site_label
_atom_site_type_symbol
_atom_type_description
_atom_site_fract_x
_atom_site_fract_y
_atom_site_fract_z
_atom_type_partial_charge
C1    C     C_R   0.498716 0.217977 0.499752 1.057838
C2    C     C_1   0.499435 0.934747 0.499503 -0.184707
C3    C     C_2   0.861842 0.224907 0.482549 0.829410
C4    C     C_2   0.157241 0.259209 0.639560 0.898562
C5    C     C_3   0.909663 0.739518 0.673485 0.092932
C6    C     C_3   0.012484 0.857833 0.735389 -0.707196
C7    C     C_3   0.013368 0.439306 0.134629 0.120104
C8    C     C_3   0.871333 0.447198 0.046436 -0.676983
C9    C     C_R   0.500082 0.782014 0.499833 0.929415
C10   C     C_R   0.256654 0.489698 0.434395 0.855369
C11   C     C_R   0.743631 0.500797 0.566216 0.779653
C12   C     C_2   0.117868 0.452702 0.408670 0.249674
C13   C     C_2   0.885941 0.486928 0.595499 0.286056
C14   C     C_2   0.073818 0.363851 0.522516 -0.082295
C15   C     C_2   0.936119 0.365027 0.532333 -0.068940
C16   C     C_1   0.498863 0.065121 0.499745 -0.082296
H1    H     H_    0.837437 0.042298 0.333675 0.346801
H2    H     H_    0.856224 0.376733 0.931680 0.231559
H3    H     H_    0.808035 0.404462 0.131080 0.251585
H4    H     H_    0.843946 0.564780 0.010882 0.241198
H5    H     H_    0.195928 0.163088 0.869700 0.343888
H6    H     H_    0.840000 0.737329 0.760744 0.144022
H7    H     H_    0.858022 0.772272 0.544708 0.145729
H8    H     H_    0.082337 0.865236 0.648852 0.268163
H9    H     H_    0.965195 0.968619 0.739886 0.238417
H10   H     H_    0.066332 0.828577 0.863689 0.250640
H11   H     H_    0.038643 0.318054 0.155754 0.168869
H12   H     H_    0.074814 0.486613 0.049951 0.203840
N1    N     N_1   0.500020 0.500000 0.073650 -0.030145
N2    N     N_1   0.499980 0.500000 0.926350 -0.025636
O1    O     O_R   0.499990 0.285340 0.636850 -0.581475
O2    O     O_R   0.892048 0.136837 0.353209 -0.804373
O3    O     O_2   0.240068 0.184741 0.590816 -0.669157
O4    O     O_R   0.134956 0.239440 0.802715 -0.815054
O5    O     O_3   0.971162 0.598848 0.671671 -0.609615
O6    O     O_3   0.030887 0.525634 0.283492 -0.619558
O7    O     O_R   0.500010 0.714660 0.363150 -0.610004
O8    O     O_R   0.500010 0.285340 0.363150 -0.629075
O9    O     O_R   0.499990 0.714660 0.636850 -0.609451
O10   O     O_R   0.317810 0.500000 0.585760 -0.610322
O11   O     O_R   0.682190 0.500000 0.414240 -0.618583
O12   O     O_R   0.317820 0.500000 0.312020 -0.611796
O13   O     O_R   0.682180 0.500000 0.687980 -0.621586
O14   O     O_2   0.780403 0.182003 0.560947 -0.678763
Zn1   Zn    Zn3+2 0.499990 0.500000 0.682780 1.014343
Zn2   Zn    Zn3+2 0.500010 0.500000 0.317220 0.998945

loop_
_geom_bond_atom_site_label_1
_geom_bond_atom_site_label_2
_ccdc_geom_bond_type
O11   Zn2   S    
C11   O13   A    
N1    N2    T    
C2    C16   T    
C10   O12   A    
C11   C13   S    
C7    O6    S    
N2    Zn1   S    
C5    H7    S    
C1    O1    A    
N1    Zn2   S    
O9    Zn1   S    
C6    H8    S    
C9    O7    A    
C7    H11   S    
C7    C8    S    
C1    C16   S    
C8    H4    S    
O13   Zn1   S    
C6    H10   S    
C10   C12   S    
C1    O8    A    
C5    C6    S    
C5    O5    S    
C12   C14   D    
C13   O5    S    
C13   C15   D    
C4    C14   S    
C3    O2    S    
C4    O4    S    
C3    O14   D    
O8    Zn2   S    
C8    H3    S    
C12   O6    S    
C5    H6    S    
O1    Zn1   S    
C6    H9    S    
C9    O9    A    
C3    C15   S    
O10   Zn1   S    
C10   O10   A    
O12   Zn2   S    
C11   O11   A    
H1    O2    S    
C4    O3    D    
H5    O4    S    
O7    Zn2   S    
C14   C15   S    
C2    C9    S    
C8    H2    S    
C7    H12   S    
