data_mof_unit_36593.cif
_audit_creation_date              2012-12-10T17:46:14-0500
_audit_creation_method            fapswitch 2.2
_symmetry_space_group_name_H-M    P1
_symmetry_Int_Tables_number       1
_space_group_crystal_system       triclinic
_cell_length_a                    14.143221
_cell_length_b                    10.640507
_cell_length_c                    9.983134
_cell_angle_alpha                 89.7155
_cell_angle_beta                  89.345943
_cell_angle_gamma                 93.09266
_cell_volume                      1500.06298742

loop_
_atom_site_label
_atom_site_type_symbol
_atom_type_description
_atom_site_fract_x
_atom_site_fract_y
_atom_site_fract_z
_atom_type_partial_charge
C1    C     C_R   0.502085 0.260931 0.500282 0.900993
C2    C     C_R   0.435547 0.060397 0.436280 -0.270684
C3    C     C_R   0.435396 0.931886 0.435389 0.635202
C4    C     C_R   0.329419 0.499796 0.500635 0.926398
C5    C     C_R   0.508115 0.872240 0.498792 -0.224510
C6    C     C_R   0.384240 0.325789 0.149736 -0.260520
C7    C     C_R   0.333166 0.228359 0.090484 -0.311853
C8    C     C_R   0.331015 0.220573 0.953865 0.571048
C9    C     C_R   0.378443 0.313843 0.873008 0.347570
C10   C     C_R   0.441565 0.410079 0.931306 0.051537
C11   C     C_R   0.442689 0.412554 0.075763 0.116146
C12   C     C_1   0.772114 0.500229 0.498316 -0.171879
C13   C     C_R   0.554896 0.583608 0.069586 -0.067253
C14   C     C_R   0.554834 0.583712 0.927145 -0.083993
C15   C     C_R   0.502336 0.739359 0.499636 0.928503
C16   C     C_R   0.670595 0.500671 0.499336 0.834213
C17   C     C_1   0.227867 0.499468 0.501775 -0.144892
C18   C     C_1   0.142556 0.499272 0.501678 0.030440
C19   C     C_1   0.042608 0.499243 0.500765 0.047312
C20   C     C_1   0.957318 0.499408 0.499724 0.049580
C21   C     C_1   0.857394 0.499800 0.498636 0.030739
C22   C     C_R   0.660881 0.141543 0.619807 -0.256257
C23   C     C_R   0.735603 0.080831 0.677090 0.701517
C24   C     C_R   0.735807 0.950081 0.675921 -0.216303
C25   C     C_R   0.661343 0.879654 0.617501 -0.258388
C26   C     C_R   0.584319 0.939708 0.560468 0.032952
C27   C     C_R   0.584149 0.071481 0.561562 0.014330
C28   C     C_R   0.507957 0.128996 0.500537 -0.146915
F1    F     F_    0.276809 0.124910 0.899690 -0.643930
F2    F     F_    0.808665 0.149257 0.732418 -0.650396
F3    F     F_    0.362829 0.865087 0.376114 -0.645811
H1    H     H_    0.378011 0.106747 0.389142 0.163219
H2    H     H_    0.599796 0.652469 0.872928 0.143078
H3    H     H_    0.664650 0.243201 0.620088 0.165847
H4    H     H_    0.794265 0.902984 0.719187 0.176319
H5    H     H_    0.665644 0.778524 0.615878 0.162573
H6    H     H_    0.599985 0.652336 0.121424 0.143765
H7    H     H_    0.374900 0.329586 0.254794 0.235064
H8    H     H_    0.291973 0.160465 0.151459 0.215864
H9    H     H_    0.309972 0.245229 0.716764 0.365724
N1    N     N_R   0.499190 0.498800 0.142780 -0.091485
N2    N     N_R   0.499160 0.498720 0.857170 -0.081384
O1    O     O_R   0.500000 0.316780 0.614690 -0.551115
O2    O     O_R   0.499990 0.316750 0.385360 -0.637287
O3    O     O_R   0.373720 0.500010 0.614690 -0.520927
O4    O     O_R   0.373710 0.499990 0.385360 -0.614259
O5    O     O_R   0.500010 0.683250 0.614640 -0.618852
O6    O     O_R   0.500000 0.683220 0.385310 -0.575517
O7    O     O_R   0.626290 0.500010 0.614640 -0.610448
O8    O     O_R   0.626280 0.499990 0.385310 -0.595208
O9    O     O_3   0.356573 0.314149 0.740434 -0.716605
Zn1   Zn    Zn3+2 0.500010 0.500020 0.653130 1.000746
Zn2   Zn    Zn3+2 0.499990 0.499980 0.346870 0.975993

loop_
_geom_bond_atom_site_label_1
_geom_bond_atom_site_label_2
_ccdc_geom_bond_type
C1    C28   S    
C4    O3    A    
C23   C24   A    
C6    H7    S    
C24   C25   A    
C6    C7    A    
C10   N2    A    
H9    O9    S    
C9    C10   A    
C1    O2    A    
C13   H6    S    
C19   C20   T    
C9    O9    S    
C15   O5    A    
C14   N2    A    
O7    Zn1   S    
C14   H2    S    
C13   N1    A    
C17   C18   T    
C7    C8    A    
C4    O4    A    
C13   C14   A    
C16   O7    A    
C3    F3    S    
N1    Zn2   S    
C26   C27   A    
O5    Zn1   S    
C15   O6    A    
C8    F1    S    
C12   C21   T    
O4    Zn2   S    
C16   O8    A    
C11   N1    A    
C2    C3    A    
C22   C27   A    
O6    Zn2   S    
C22   H3    S    
O1    Zn1   S    
C5    C15   S    
O8    Zn2   S    
C10   C11   A    
C4    C17   S    
C25   H5    S    
C5    C26   A    
C24   H4    S    
C23   F2    S    
C27   C28   A    
C20   C21   S    
C2    H1    S    
C18   C19   S    
C6    C11   A    
C7    H8    S    
C22   C23   A    
C2    C28   A    
O3    Zn1   S    
C25   C26   A    
O2    Zn2   S    
C1    O1    A    
C12   C16   S    
N2    Zn1   S    
C8    C9    A    
C3    C5    A    
