data_mof_unit_16200.cif
_audit_creation_date              2012-12-10T16:58:30-0500
_audit_creation_method            fapswitch 2.2
_symmetry_space_group_name_H-M    P1
_symmetry_Int_Tables_number       1
_space_group_crystal_system       triclinic
_cell_length_a                    7.741955
_cell_length_b                    8.546501
_cell_length_c                    23.292084
_cell_angle_alpha                 90.695744
_cell_angle_beta                  85.889481
_cell_angle_gamma                 93.719735
_cell_volume                      1533.91237993

loop_
_atom_site_label
_atom_site_type_symbol
_atom_type_description
_atom_site_fract_x
_atom_site_fract_y
_atom_site_fract_z
_atom_type_partial_charge
C1    C     C_R   0.545963 0.794857 0.498707 1.024220
C2    C     C_R   0.408535 0.355348 0.303427 0.222844
C3    C     C_R   0.593821 0.655830 0.757152 0.450344
C4    C     C_R   0.407596 0.339969 0.243253 0.443900
C5    C     C_R   0.514660 0.532097 0.791161 0.046942
C6    C     C_R   0.487197 0.462720 0.208906 0.052207
C7    C     C_2   0.570250 0.958385 0.497920 -0.234424
C8    C     C_2   0.429741 0.041610 0.501969 -0.232181
C9    C     C_R   0.502160 0.499489 0.610413 1.039662
C10   C     C_R   0.497799 0.500290 0.389589 1.039333
C11   C     C_R   0.629122 0.416372 0.115923 0.608227
C12   C     C_R   0.454034 0.205142 0.501254 1.024214
C13   C     C_R   0.372511 0.577336 0.884185 0.597763
C14   C     C_R   0.345796 0.514975 0.123579 0.618306
C15   C     C_R   0.655565 0.478201 0.876484 0.603105
C16   C     C_R   0.348737 0.530254 0.063926 -0.033767
C17   C     C_R   0.652559 0.462705 0.936139 -0.027548
C18   C     C_R   0.496950 0.487935 0.030053 -0.005169
C19   C     C_R   0.504370 0.505051 0.970020 -0.006470
C20   C     C_R   0.638137 0.429329 0.056090 -0.039569
C21   C     C_R   0.363287 0.563887 0.943997 -0.038568
C22   C     C_R   0.209046 0.588934 0.037603 -0.160029
C23   C     C_R   0.434050 0.400118 0.766171 -0.231348
C24   C     C_R   0.792227 0.403979 0.962464 -0.142816
C25   C     C_R   0.216288 0.605658 0.978104 -0.157469
C26   C     C_R   0.785076 0.387437 0.021975 -0.161461
C27   C     C_R   0.567191 0.595588 0.233534 -0.206432
C28   C     C_R   0.429595 0.386592 0.706951 0.304414
C29   C     C_R   0.570378 0.611012 0.292737 0.307896
C30   C     C_R   0.508900 0.508459 0.672305 -0.317442
C31   C     C_R   0.490936 0.489984 0.327725 -0.314203
C32   C     C_R   0.591868 0.642246 0.696975 0.235050
Cl1   Cl    Cl    0.690816 0.793222 0.651856 -0.465116
Cl2   Cl    Cl    0.308949 0.205705 0.349033 -0.465169
H1    H     H_    0.094012 0.622269 0.062839 0.199876
H2    H     H_    0.985967 0.617308 0.543171 0.222561
H3    H     H_    0.084382 0.312210 0.669435 0.368312
H4    H     H_    0.916009 0.689710 0.329241 0.372382
H5    H     H_    0.686187 0.076321 0.777330 0.391375
H6    H     H_    0.273421 0.064806 0.128406 0.389546
H7    H     H_    0.907247 0.370623 0.937225 0.201620
H8    H     H_    0.106456 0.651040 0.958969 0.205053
H9    H     H_    0.894951 0.342152 0.041117 0.202510
H10   H     H_    0.375782 0.307108 0.793770 0.215061
H11   H     H_    0.625652 0.687932 0.205667 0.212941
H12   H     H_    0.702849 0.009669 0.493915 0.189729
H13   H     H_    0.297142 0.990326 0.505972 0.189977
H14   H     H_    0.014033 0.382689 0.456831 0.223043
N1    N     N_R   0.484718 0.459171 0.147985 -0.316018
N2    N     N_R   0.516831 0.534435 0.852107 -0.322715
N3    N     N_2   0.950330 0.457950 0.484560 -0.153261
N4    N     N_2   0.049670 0.542050 0.515440 -0.153387
O1    O     O_R   0.389250 0.738570 0.503790 -0.625285
O2    O     O_2   0.238402 0.631399 0.858022 -0.477238
O3    O     O_2   0.206692 0.556920 0.157160 -0.501359
O4    O     O_2   0.794571 0.436142 0.842881 -0.514307
O5    O     O_2   0.461724 0.139082 0.636710 -0.250564
O6    O     O_2   0.269815 0.097984 0.723980 -0.193095
O7    O     O_3   0.160903 0.256982 0.641125 -0.503648
O8    O     O_2   0.726123 0.900895 0.275015 -0.195828
O9    O     O_2   0.536677 0.858841 0.362787 -0.250506
O10   O     O_3   0.839120 0.743961 0.357727 -0.501550
O11   O     O_2   0.666140 0.829963 0.852911 -0.306652
O12   O     O_R   0.610750 0.261430 0.496210 -0.625922
O13   O     O_2   0.887156 0.829173 0.772333 -0.187624
O14   O     O_3   0.615858 0.986601 0.761864 -0.445239
O15   O     O_2   0.376349 0.026048 0.236628 -0.190278
O16   O     O_2   0.114355 0.166937 0.228166 -0.187411
O17   O     O_3   0.338875 0.161970 0.140163 -0.573504
O18   O     O_R   0.678390 0.711620 0.493890 -0.599456
O19   O     O_R   0.321610 0.288380 0.506110 -0.598696
O20   O     O_R   0.355400 0.513520 0.588790 -0.584478
O21   O     O_R   0.644600 0.486480 0.411210 -0.586133
O22   O     O_R   0.644550 0.486570 0.578900 -0.611005
O23   O     O_R   0.355450 0.513430 0.421100 -0.608676
O24   O     O_2   0.763462 0.362849 0.142116 -0.483795
S1    S     S_3+6 0.331187 0.213262 0.677486 0.094463
S2    S     S_3+6 0.667287 0.785602 0.321762 0.101783
S3    S     S_3+6 0.695462 0.826123 0.788457 0.134626
S4    S     S_3+6 0.306124 0.169115 0.212271 0.134715
Zn1   Zn    Zn3+2 0.306930 0.518000 0.506610 1.060105
Zn2   Zn    Zn3+2 0.693070 0.482000 0.493390 1.058704

loop_
_geom_bond_atom_site_label_1
_geom_bond_atom_site_label_2
_ccdc_geom_bond_type
O16   S4    D    
O13   S3    D    
C27   C29   A    
C9    O20   A    
C3    S3    S    
O7    S1    S    
C7    C8    D    
O11   S3    D    
C22   H1    S    
O8    S2    D    
C11   N1    A    
C19   C21   A    
C24   C26   A    
C4    S4    S    
C11   O24   S    
C12   O12   A    
C10   O21   A    
C14   N1    A    
O1    Zn1   S    
C18   C19   A    
C15   N2    A    
C1    O1    A    
O6    S1    D    
C10   C31   S    
H14   N3    S    
C29   S2    S    
C22   C25   A    
O20   Zn1   S    
H2    N4    S    
C27   H11   S    
C14   O3    S    
C24   H7    S    
N4    Zn1   S    
O22   Zn2   S    
C26   H9    S    
C11   C20   A    
C17   C24   A    
H6    O17   S    
N3    N4    D    
C7    H12   S    
O5    S1    D    
C4    C6    A    
O23   Zn1   S    
C23   H10   S    
C2    C31   A    
C2    C4    A    
O14   S3    S    
C10   O23   A    
C6    C27   A    
C5    C23   A    
O9    S2    D    
C8    C12   S    
C13   C21   A    
C23   C28   A    
C28   S1    S    
N3    Zn2   S    
O12   Zn2   S    
H3    O7    S    
C9    C30   S    
C12   O19   A    
H5    O14   S    
C14   C16   A    
C5    N2    S    
C9    O22   A    
O21   Zn2   S    
C13   O2    S    
C15   C17   A    
C21   C25   A    
C16   C22   A    
C1    C7    S    
O10   S2    S    
O15   S4    D    
C3    C5    A    
C25   H8    S    
C1    O18   A    
C15   O4    S    
C28   C30   A    
C8    H13   S    
C29   C31   A    
C32   Cl1   S    
C30   C32   A    
C2    Cl2   S    
C20   C26   A    
C17   C19   A    
C18   C20   A    
C6    N1    S    
C3    C32   A    
O18   Zn2   S    
C13   N2    A    
C16   C18   A    
O17   S4    S    
O19   Zn1   S    
H4    O10   S    
