data_mof_unit_6824.cif
_audit_creation_date              2012-12-11T15:53:42-0500
_audit_creation_method            fapswitch 2.2
_symmetry_space_group_name_H-M    P1
_symmetry_Int_Tables_number       1
_space_group_crystal_system       triclinic
_cell_length_a                    6.914064
_cell_length_b                    14.567335
_cell_length_c                    16.059341
_cell_angle_alpha                 90.644885
_cell_angle_beta                  90.076919
_cell_angle_gamma                 89.991252
_cell_volume                      1617.38465295

loop_
_atom_site_label
_atom_site_type_symbol
_atom_type_description
_atom_site_fract_x
_atom_site_fract_y
_atom_site_fract_z
_atom_type_partial_charge
O1    O     O_R   0.361600 0.167310 0.164620 -0.550807
O2    O     O_R   0.638400 0.832690 0.835380 -0.550808
O3    O     O_R   0.691080 0.157570 0.338750 -0.506193
O4    O     O_R   0.308920 0.842430 0.661250 -0.506193
O5    O     O_R   0.861410 0.336420 0.339360 -0.548593
O6    O     O_R   0.138590 0.663580 0.660640 -0.548593
C1    C     C_R   0.521871 0.135032 0.367317 0.881681
C2    C     C_R   0.478129 0.864968 0.632683 0.881681
O7    O     O_R   0.691320 0.156280 0.165240 -0.525898
O8    O     O_R   0.308680 0.843720 0.834760 -0.525898
O9    O     O_R   0.861640 0.335130 0.164600 -0.553985
O10   O     O_R   0.138360 0.664870 0.835400 -0.553985
C3    C     C_R   0.522194 0.133955 0.136104 0.764356
C4    C     C_R   0.477806 0.866045 0.863896 0.764356
O11   O     O_R   0.361370 0.168600 0.339370 -0.512495
O12   O     O_R   0.638630 0.831400 0.660630 -0.512495
O13   O     O_3   0.527990 0.310540 0.251980 -0.378597
O14   O     O_3   0.472010 0.689460 0.748020 -0.378597
V1    V     V_3+5 0.802830 0.240980 0.251990 1.630413
V2    V     V_3+5 0.197170 0.759020 0.748010 1.630413
O15   O     O_R   0.191360 0.346160 0.165220 -0.527010
O16   O     O_R   0.808640 0.653840 0.834780 -0.527010
C5    C     C_R   0.022392 0.368132 0.136059 0.743386
C6    C     C_R   0.977608 0.631868 0.863941 0.743387
O17   O     O_R   0.191130 0.347440 0.338740 -0.522992
O18   O     O_R   0.808870 0.652560 0.661260 -0.522992
C7    C     C_R   0.022644 0.368945 0.368020 0.806709
C8    C     C_R   0.977356 0.631055 0.631979 0.806709
V3    V     V_3+5 0.302840 0.262750 0.251990 1.614595
V4    V     V_3+5 0.697160 0.737250 0.748010 1.614595
O19   O     O_3   0.027820 0.193180 0.251990 -0.343176
O20   O     O_3   0.972180 0.806820 0.748010 -0.343176
C9    C     C_3   0.827013 0.458687 0.488742 -0.218720
C10   C     C_3   0.172986 0.541313 0.511258 -0.218720
C11   C     C_3   0.948668 0.458209 0.569843 -0.002069
C12   C     C_3   0.051332 0.541791 0.430157 -0.002069
H1    H     H_    0.684401 0.425178 0.479610 0.203999
H2    H     H_    0.315599 0.574822 0.520390 0.203999
C13   C     C_3   0.986990 0.561795 0.561963 -0.180666
C14   C     C_3   0.013010 0.438205 0.438037 -0.180666
C15   C     C_3   0.867387 0.562791 0.480829 0.449040
C16   C     C_3   0.132613 0.437209 0.519171 0.449040
C17   C     C_R   0.871237 0.484836 0.933002 0.365379
C18   C     C_R   0.128763 0.515164 0.066998 0.365379
C19   C     C_R   0.884299 0.419607 0.997722 0.053151
C20   C     C_R   0.115701 0.580393 0.002278 0.053152
C21   C     C_R   0.011664 0.435327 0.065988 -0.198386
C22   C     C_R   0.988336 0.564672 0.934012 -0.198386
C23   C     C_R   0.655842 0.997940 0.443571 0.353827
C24   C     C_R   0.344158 0.002060 0.556429 0.353827
C25   C     C_R   0.646689 0.933635 0.508065 0.361749
C26   C     C_R   0.353311 0.066365 0.491935 0.361749
C27   C     C_R   0.489632 0.934272 0.564964 -0.355264
C28   C     C_R   0.510367 0.065728 0.435036 -0.355264
C29   C     C_R   0.618877 0.983195 0.069663 0.369238
C30   C     C_R   0.381122 0.016805 0.930337 0.369238
C31   C     C_R   0.608162 0.917358 0.004180 0.034446
C32   C     C_R   0.391838 0.082642 0.995820 0.034445
C33   C     C_R   0.489197 0.934443 0.933820 -0.203957
C34   C     C_R   0.510803 0.065557 0.066180 -0.203957
C35   C     C_3   0.888228 0.409359 0.648651 -0.511853
H3    H     H_    0.878284 0.334418 0.636196 0.254418
H4    H     H_    0.996349 0.422470 0.698523 0.217099
H5    H     H_    0.744721 0.435289 0.668834 0.240803
C36   C     C_3   0.111772 0.590641 0.351349 -0.511853
H6    H     H_    0.121716 0.665582 0.363804 0.254418
H7    H     H_    0.255279 0.564711 0.331165 0.240803
H8    H     H_    0.003651 0.577530 0.301477 0.217099
Cl1   Cl    Cl    0.684884 0.642747 0.452504 -0.593584
Cl2   Cl    Cl    0.315116 0.357252 0.547496 -0.593584
Cl3   Cl    Cl    0.707180 0.465980 0.849528 -0.668280
Cl4   Cl    Cl    0.292820 0.534020 0.150472 -0.668280
C37   C     C_3   0.766642 0.331636 0.993329 -0.611537
H9    H     H_    0.858889 0.271775 0.008679 0.163012
H10   H     H_    0.644455 0.336191 0.037907 0.201321
H11   H     H_    0.706088 0.316138 0.930978 0.257487
C38   C     C_3   0.233358 0.668364 0.006671 -0.611537
H12   H     H_    0.355545 0.663809 0.962093 0.201321
H13   H     H_    0.141111 0.728225 0.991321 0.163012
H14   H     H_    0.293912 0.683861 0.069022 0.257487
Cl5   Cl    Cl    0.848570 0.987755 0.371160 -0.424333
Cl6   Cl    Cl    0.151430 0.012244 0.628840 -0.424333
Cl7   Cl    Cl    0.835397 0.851303 0.513902 -0.474697
Cl8   Cl    Cl    0.164603 0.148697 0.486098 -0.474697
Cl9   Cl    Cl    0.765043 0.961637 0.158106 -0.557485
Cl10  Cl    Cl    0.234957 0.038363 0.841894 -0.557485
C39   C     C_3   0.720155 0.827852 0.009395 -0.614818
H15   H     H_    0.844234 0.829411 0.965676 0.194360
H16   H     H_    0.778146 0.813109 0.072020 0.259036
H17   H     H_    0.624868 0.769045 0.993222 0.165886
C40   C     C_3   0.279845 0.172148 0.990605 -0.614818
H18   H     H_    0.221854 0.186890 0.927980 0.259036
H19   H     H_    0.155766 0.170588 0.034324 0.194360
H20   H     H_    0.375132 0.230955 0.006778 0.165886

loop_
_geom_bond_atom_site_label_1
_geom_bond_atom_site_label_2
_ccdc_geom_bond_type
C39   H15   S    
O13   V3    S    
C37   H9    S    
C10   C16   S    
O4    C2    A    
V1    O19   S    
C13   C15   S    
C3    C34   S    
C38   H12   S    
C4    C33   S    
O9    V1    S    
O3    C1    A    
C31   C33   A    
O12   V4    S    
C23   C28   A    
C16   Cl2   S    
C19   C37   S    
C19   C21   A    
C23   Cl5   S    
C26   Cl8   S    
C11   C16   S    
O7    C3    A    
C9    C11   S    
O5    C7    A    
O7    V1    S    
O6    C8    A    
C18   C20   A    
C36   H7    S    
C24   C26   A    
O3    V1    S    
O14   V4    S    
C32   C40   S    
C10   C12   S    
C18   C21   A    
C1    O11   A    
C2    O12   A    
C29   C34   A    
C37   H10   S    
C12   C15   S    
C26   C28   A    
O11   V3    S    
C38   H13   S    
O17   V3    S    
C20   C22   A    
C24   C27   A    
C5    C21   S    
C10   C13   S    
C9    C14   S    
C12   C14   S    
O8    C4    A    
O8    V2    S    
C40   H18   S    
C12   C36   S    
C8    C13   S    
C23   C25   A    
O15   V3    S    
C9    H1    S    
C31   C39   S    
C25   C27   A    
C6    C22   S    
C29   Cl9   S    
C35   H5    S    
C11   C13   S    
C40   H19   S    
C30   Cl10  S    
C7    C14   S    
C36   H8    S    
O10   V2    S    
O1    V3    S    
C11   C35   S    
C17   C19   A    
O18   V4    S    
O15   C5    A    
C37   H11   S    
O16   C6    A    
O1    C3    A    
C25   Cl7   S    
C24   Cl6   S    
C15   Cl1   S    
V2    O20   S    
C38   H14   S    
C17   Cl3   S    
O16   V4    S    
C10   H2    S    
C35   H4    S    
C14   C16   S    
C2    C27   S    
C20   C38   S    
O5    V1    S    
O17   C7    A    
O6    V2    S    
O10   C6    A    
O18   C8    A    
C30   C33   A    
O2    V4    S    
C17   C22   A    
C29   C31   A    
C9    C15   S    
V3    O19   S    
C40   H20   S    
V4    O20   S    
O9    C5    A    
O13   V1    S    
C30   C32   A    
C18   Cl4   S    
O14   V2    S    
C35   H3    S    
O2    C4    A    
O4    V2    S    
C36   H6    S    
C39   H17   S    
C39   H16   S    
C1    C28   S    
C32   C34   A    
