data_mof_unit_60128.cif
_audit_creation_date              2012-12-10T20:08:07-0500
_audit_creation_method            fapswitch 2.2
_symmetry_space_group_name_H-M    P1
_symmetry_Int_Tables_number       1
_space_group_crystal_system       triclinic
_cell_length_a                    32.075895
_cell_length_b                    32.075914
_cell_length_c                    55.744046
_cell_angle_alpha                 89.9999
_cell_angle_beta                  89.999458
_cell_angle_gamma                 90.080431
_cell_volume                      57352.9660921

loop_
_atom_site_label
_atom_site_type_symbol
_atom_type_description
_atom_site_fract_x
_atom_site_fract_y
_atom_site_fract_z
_atom_type_partial_charge
C1    C     C_R   0.080689 0.500026 0.500000 0.914044
C2    C     C_R   0.419506 0.499999 0.500000 0.902171
C3    C     C_R   0.962115 0.271699 0.999695 -0.193875
C4    C     C_R   0.728301 0.037889 0.999920 -0.193876
C5    C     C_R   0.037739 0.271832 0.000305 -0.197052
C6    C     C_R   0.271699 0.962111 0.999947 -0.193876
C7    C     C_R   0.962255 0.728168 0.999982 -0.197054
C8    C     C_R   0.206668 0.500081 0.500000 0.079435
C9    C     C_R   0.500081 0.206668 0.500000 0.079441
C10   C     C_R   0.793331 0.499919 0.500000 0.079435
C11   C     C_R   0.499919 0.793331 0.500000 0.079443
C12   C     C_R   0.706668 0.000081 0.999999 0.079443
C13   C     C_R   0.499999 0.419506 0.500000 0.902171
C14   C     C_R   0.000081 0.706668 0.000000 0.079447
C15   C     C_R   0.293332 0.999919 0.000001 0.079442
C16   C     C_R   0.999919 0.293331 0.000000 0.079438
C17   C     C_1   0.337975 0.500030 0.500000 0.046288
C18   C     C_1   0.500030 0.337975 0.500000 0.046284
C19   C     C_1   0.662025 0.499970 0.499999 0.046288
C20   C     C_1   0.499970 0.662025 0.500000 0.046284
C21   C     C_1   0.837975 0.000030 1.000000 0.046288
C22   C     C_1   0.000030 0.837975 0.000000 0.046286
C23   C     C_1   0.162025 0.999970 0.000000 0.046289
C24   C     C_R   0.580493 0.500001 0.500000 0.902171
C25   C     C_1   0.999970 0.162025 1.000000 0.046290
C26   C     C_R   0.000000 0.500000 0.452860 0.880378
C27   C     C_R   0.500000 0.000000 0.452861 0.880341
C28   C     C_R   1.000000 0.500000 0.547139 0.880359
C29   C     C_R   0.500000 1.000000 0.547140 0.880379
C30   C     C_R   0.500000 0.000000 0.952860 0.880378
C31   C     C_R   0.000000 0.500000 0.952860 0.880406
C32   C     C_R   0.500000 1.000000 0.047140 0.880435
C33   C     C_R   1.000000 0.500000 0.047140 0.880379
C34   C     C_1   0.162247 0.500092 0.500000 -0.012060
C35   C     C_R   0.000001 0.080493 1.000000 0.902169
C36   C     C_1   0.500092 0.162247 0.500000 -0.012066
C37   C     C_1   0.837753 0.499908 0.500000 -0.012060
C38   C     C_1   0.499908 0.837753 0.500000 -0.012066
C39   C     C_1   0.662247 0.000092 0.999999 -0.012046
C40   C     C_1   0.000092 0.662247 0.000000 -0.012052
C41   C     C_1   0.337753 0.999908 0.000000 -0.012046
C42   C     C_1   0.999908 0.337753 0.000000 -0.012052
C43   C     C_1   0.124937 0.500078 0.500000 -0.168604
C44   C     C_1   0.500078 0.124937 0.500000 -0.168609
C45   C     C_1   0.875063 0.499922 0.500000 -0.168603
C46   C     C_R   0.919506 0.999999 0.000000 0.902169
C47   C     C_1   0.499922 0.875063 0.500000 -0.168609
C48   C     C_1   0.624937 0.000078 1.000000 -0.168596
C49   C     C_1   0.000078 0.624937 0.000000 -0.168601
C50   C     C_1   0.375063 0.999922 0.000000 -0.168596
C51   C     C_1   0.999922 0.375063 0.000000 -0.168600
C52   C     C_1   0.375284 0.500014 0.500000 -0.105532
C53   C     C_1   0.500014 0.375284 0.500000 -0.105534
C54   C     C_1   0.624716 0.499986 0.500000 -0.105533
C55   C     C_1   0.499986 0.624716 0.500000 -0.105535
C56   C     C_1   0.875284 0.000014 0.000000 -0.105532
C57   C     C_R   0.999999 0.919506 0.000000 0.902170
C58   C     C_1   0.000014 0.875284 0.000000 -0.105533
C59   C     C_1   0.124716 0.999986 1.000000 -0.105532
C60   C     C_1   0.999986 0.124716 1.000000 -0.105530
C61   C     C_R   0.028129 0.526326 0.262705 0.044640
C62   C     C_R   0.526541 0.027926 0.262704 0.044639
C63   C     C_R   0.971867 0.473676 0.262705 0.044641
C64   C     C_R   0.473462 0.972071 0.262705 0.044639
C65   C     C_R   0.971960 0.473573 0.737295 0.044647
C66   C     C_R   0.473665 0.971878 0.737295 0.044641
C67   C     C_R   0.028042 0.526420 0.737294 0.044649
C68   C     C_R   0.080494 0.000001 1.000000 0.902170
C69   C     C_R   0.526332 0.028125 0.737295 0.044640
C70   C     C_R   0.528121 0.026335 0.762705 0.044639
C71   C     C_R   0.026250 0.528202 0.762704 0.044649
C72   C     C_R   0.471875 0.973667 0.762705 0.044642
C73   C     C_R   0.973756 0.471789 0.762705 0.044646
C74   C     C_R   0.471686 0.973874 0.237295 0.044636
C75   C     C_R   0.973656 0.471886 0.237295 0.044642
C76   C     C_R   0.528317 0.026124 0.237294 0.044638
C77   C     C_R   0.026340 0.528116 0.237295 0.044641
C78   C     C_R   0.999998 0.500001 0.275284 0.074019
C79   C     C_R   0.008066 0.463078 0.388931 -0.092666
C80   C     C_R   0.500002 0.999999 0.275284 0.074027
C81   C     C_R   0.000000 0.499997 0.724715 0.073997
C82   C     C_R   0.499998 0.000001 0.724716 0.074017
C83   C     C_R   0.499998 0.000001 0.775284 0.074017
C84   C     C_R   0.000003 0.499995 0.775284 0.073996
C85   C     C_R   0.500001 0.999999 0.224715 0.074030
C86   C     C_R   0.999998 0.500001 0.224716 0.074018
C87   C     C_R   0.057437 0.549750 0.276075 -0.208927
C88   C     C_R   0.550189 0.057052 0.276075 -0.208937
C89   C     C_R   0.942560 0.450252 0.276076 -0.208928
C90   C     C_R   0.536877 0.991735 0.388933 -0.092601
C91   C     C_R   0.449815 0.942945 0.276075 -0.208936
C92   C     C_R   0.942732 0.450047 0.723924 -0.208917
C93   C     C_R   0.450232 0.942577 0.723925 -0.208930
C94   C     C_R   0.057268 0.549948 0.723923 -0.208920
C95   C     C_R   0.549764 0.057425 0.723924 -0.208927
C96   C     C_R   0.557421 0.049769 0.776075 -0.208926
C97   C     C_R   0.049594 0.557575 0.776075 -0.208916
C98   C     C_R   0.442576 0.950233 0.776076 -0.208931
C99   C     C_R   0.950413 0.442415 0.776075 -0.208916
C100  C     C_R   0.442214 0.950658 0.223924 -0.208927
C101  C     C_R   0.991933 0.536923 0.388931 -0.092668
C102  C     C_R   0.950213 0.442594 0.223925 -0.208929
C103  C     C_R   0.557789 0.049340 0.223924 -0.208932
C104  C     C_R   0.049783 0.557409 0.223924 -0.208928
C105  C     C_R   0.057797 0.548744 0.300965 -0.129391
C106  C     C_R   0.549184 0.057422 0.300965 -0.129400
C107  C     C_R   0.942201 0.451257 0.300966 -0.129393
C108  C     C_R   0.450820 0.942576 0.300966 -0.129398
C109  C     C_R   0.942368 0.451053 0.699034 -0.129382
C110  C     C_R   0.451237 0.942218 0.699034 -0.129393
C111  C     C_R   0.057628 0.548945 0.699033 -0.129383
C112  C     C_R   0.500026 0.080689 0.500000 0.914031
C113  C     C_R   0.463125 0.008264 0.388933 -0.092599
C114  C     C_R   0.548759 0.057785 0.699034 -0.129391
C115  C     C_R   0.557781 0.048763 0.800965 -0.129390
C116  C     C_R   0.048589 0.557930 0.800965 -0.129382
C117  C     C_R   0.442216 0.951239 0.800966 -0.129396
C118  C     C_R   0.951419 0.442059 0.800966 -0.129379
C119  C     C_R   0.441864 0.951664 0.199034 -0.129398
C120  C     C_R   0.951219 0.442233 0.199035 -0.129397
C121  C     C_R   0.558139 0.048335 0.199033 -0.129405
C122  C     C_R   0.048777 0.557769 0.199034 -0.129391
C123  C     C_R   0.028979 0.524432 0.313497 -0.022886
C124  C     C_R   0.991820 0.536898 0.611068 -0.092642
C125  C     C_R   0.524651 0.028793 0.313497 -0.022867
C126  C     C_R   0.971018 0.475569 0.313497 -0.022884
C127  C     C_R   0.475353 0.971205 0.313497 -0.022867
C128  C     C_R   0.971101 0.475467 0.686502 -0.022874
C129  C     C_R   0.475558 0.971028 0.686503 -0.022884
C130  C     C_R   0.028893 0.524532 0.686502 -0.022869
C131  C     C_R   0.524438 0.028974 0.686502 -0.022884
C132  C     C_R   0.528971 0.024441 0.813497 -0.022887
C133  C     C_R   0.024356 0.529043 0.813497 -0.022880
C134  C     C_R   0.471026 0.975560 0.813497 -0.022881
C135  C     C_R   0.536920 0.991926 0.611069 -0.092665
C136  C     C_R   0.975652 0.470946 0.813497 -0.022884
C137  C     C_R   0.470852 0.975771 0.186502 -0.022908
C138  C     C_R   0.975549 0.471036 0.186503 -0.022881
C139  C     C_R   0.529150 0.024228 0.186502 -0.022902
C140  C     C_R   0.024447 0.528966 0.186502 -0.022883
C141  C     C_R   0.999998 0.500001 0.300742 -0.050664
C142  C     C_R   0.500002 0.999999 0.300742 -0.050662
C143  C     C_R   0.999998 0.499999 0.699257 -0.050679
C144  C     C_R   0.499998 0.000001 0.699258 -0.050665
C145  C     C_R   0.499999 0.000001 0.800742 -0.050665
C146  C     C_R   0.008172 0.463101 0.611068 -0.092652
C147  C     C_R   0.000004 0.499995 0.800742 -0.050678
C148  C     C_R   0.500001 0.999999 0.199258 -0.050653
C149  C     C_R   0.999998 0.500001 0.199258 -0.050663
C150  C     C_R   0.028721 0.523659 0.338637 0.507722
C151  C     C_R   0.523872 0.028544 0.338636 0.507720
C152  C     C_R   0.971277 0.476342 0.338637 0.507720
C153  C     C_R   0.476131 0.971454 0.338637 0.507720
C154  C     C_R   0.971355 0.476242 0.661363 0.507714
C155  C     C_R   0.476331 0.971286 0.661363 0.507720
C156  C     C_R   0.028637 0.523758 0.661362 0.507717
C157  C     C_R   0.463078 0.008075 0.611069 -0.092666
C158  C     C_R   0.523665 0.028716 0.661363 0.507721
C159  C     C_R   0.528714 0.023668 0.838637 0.507721
C160  C     C_R   0.023585 0.528782 0.838637 0.507718
C161  C     C_R   0.471284 0.976333 0.838637 0.507716
C162  C     C_R   0.976423 0.471207 0.838637 0.507715
C163  C     C_R   0.471118 0.976539 0.161363 0.507735
C164  C     C_R   0.976322 0.471293 0.161363 0.507723
C165  C     C_R   0.528884 0.023460 0.161362 0.507731
C166  C     C_R   0.023674 0.528709 0.161363 0.507721
C167  C     C_R   0.508075 0.963080 0.888931 -0.092664
C168  C     C_R   0.036942 0.492011 0.888930 -0.092698
C169  C     C_R   0.491924 0.036921 0.888931 -0.092670
C170  C     C_R   0.963062 0.507981 0.888929 -0.092692
C171  C     C_R   0.492120 0.036962 0.111072 -0.092730
C172  C     C_R   0.919311 0.499974 0.500000 0.914044
C173  C     C_R   0.036918 0.491917 0.111069 -0.092659
C174  C     C_R   0.507880 0.963037 0.111072 -0.092735
C175  C     C_R   0.963080 0.508083 0.111069 -0.092666
C176  C     C_R   0.007866 0.462998 0.413901 -0.207033
C177  C     C_R   0.536959 0.991940 0.413904 -0.207089
C178  C     C_R   0.992133 0.537003 0.413901 -0.207032
C179  C     C_R   0.463043 0.008059 0.413904 -0.207089
C180  C     C_R   0.992023 0.536979 0.586097 -0.207046
C181  C     C_R   0.537000 0.992126 0.586098 -0.207034
C182  C     C_R   0.007972 0.463021 0.586098 -0.207046
C183  C     C_R   0.499974 0.919311 0.500000 0.914032
C184  C     C_R   0.462998 0.007874 0.586098 -0.207034
C185  C     C_R   0.507875 0.963000 0.913901 -0.207038
C186  C     C_R   0.037020 0.492210 0.913900 -0.207017
C187  C     C_R   0.492125 0.037001 0.913902 -0.207038
C188  C     C_R   0.962982 0.507785 0.913900 -0.207024
C189  C     C_R   0.492315 0.037040 0.086101 -0.206995
C190  C     C_R   0.036998 0.492117 0.086098 -0.207040
C191  C     C_R   0.507685 0.962959 0.086101 -0.206997
C192  C     C_R   0.963000 0.507883 0.086098 -0.207037
C193  C     C_R   1.000000 0.500000 0.426565 -0.047608
C194  C     C_R   0.580689 0.000026 1.000000 0.914077
C195  C     C_R   0.500001 1.000000 0.426566 -0.047555
C196  C     C_R   0.999998 0.500000 0.573434 -0.047578
C197  C     C_R   0.499999 0.000000 0.573435 -0.047603
C198  C     C_R   0.500000 0.000000 0.926565 -0.047602
C199  C     C_R   0.000001 0.499998 0.926564 -0.047652
C200  C     C_R   0.500000 1.000000 0.073437 -0.047688
C201  C     C_R   0.999999 0.500000 0.073435 -0.047599
C202  C     C_R   0.999999 0.500000 0.376357 0.302104
C203  C     C_R   0.500001 0.999999 0.376359 0.301938
C204  C     C_R   0.999995 0.500000 0.623641 0.302052
C205  C     C_R   0.000026 0.580689 0.000000 0.914064
C206  C     C_R   0.499999 0.000001 0.623642 0.302096
C207  C     C_R   0.499999 0.000000 0.876358 0.302099
C208  C     C_R   0.000003 0.499995 0.876356 0.302142
C209  C     C_R   0.500000 1.000000 0.123644 0.302256
C210  C     C_R   0.999999 0.500000 0.123642 0.302092
C211  C     C_R   0.271752 0.538090 0.500003 0.152970
C212  C     C_R   0.462021 0.271618 0.499942 0.153386
C213  C     C_R   0.728248 0.461910 0.499988 0.152970
C214  C     C_R   0.537979 0.728382 0.499974 0.153386
C215  C     C_R   0.271618 0.462022 0.499998 0.153386
C216  C     C_R   0.419311 0.999974 0.000000 0.914078
C217  C     C_R   0.461908 0.728248 0.500026 0.152969
C218  C     C_R   0.728382 0.537978 0.500011 0.153386
C219  C     C_R   0.538091 0.271752 0.500058 0.152968
C220  C     C_R   0.771752 0.038091 0.999919 0.152974
C221  C     C_R   0.962020 0.771618 0.999982 0.153386
C222  C     C_R   0.228248 0.961909 0.999947 0.152975
C223  C     C_R   0.037974 0.228382 0.000307 0.153386
C224  C     C_R   0.771618 0.962022 0.000079 0.153385
C225  C     C_R   0.961913 0.228248 0.999693 0.152973
C226  C     C_R   0.228382 0.037978 0.000055 0.153385
C227  C     C_R   0.999974 0.419311 0.000000 0.914064
C228  C     C_R   0.038092 0.771752 0.000019 0.152973
C229  C     C_R   0.293481 0.500048 0.500000 0.024402
C230  C     C_R   0.500048 0.293481 0.500000 0.024398
C231  C     C_R   0.706519 0.499952 0.499999 0.024402
C232  C     C_R   0.499952 0.706518 0.500000 0.024397
C233  C     C_R   0.793481 0.000048 0.999999 0.024401
C234  C     C_R   0.000048 0.793481 0.000000 0.024397
C235  C     C_R   0.206519 0.999952 0.000001 0.024401
C236  C     C_R   0.999952 0.206518 1.000000 0.024402
C237  C     C_R   0.228168 0.462257 0.499998 -0.197066
C238  C     C_R   0.500001 0.580493 0.500000 0.902171
C239  C     C_R   0.537890 0.228301 0.500057 -0.193872
C240  C     C_R   0.771832 0.537743 0.500011 -0.197066
C241  C     C_R   0.462110 0.771699 0.500026 -0.193873
C242  C     C_R   0.228301 0.537889 0.500003 -0.193872
C243  C     C_R   0.537744 0.771832 0.499974 -0.197074
C244  C     C_R   0.771699 0.462111 0.499988 -0.193871
C245  C     C_R   0.462256 0.228168 0.499943 -0.197074
C246  C     C_R   0.728168 0.962257 0.000078 -0.197046
C247  C     C_R   0.037890 0.728301 0.000018 -0.193876
C248  C     C_R   0.271832 0.037743 0.000055 -0.197045
H1    H     H_    0.081343 0.568517 0.267843 0.147132
H2    H     H_    0.068296 0.581535 0.767843 0.147121
H3    H     H_    0.418675 0.931458 0.767844 0.147130
H4    H     H_    0.931712 0.418455 0.767843 0.147125
H5    H     H_    0.418176 0.932062 0.232157 0.147136
H6    H     H_    0.931431 0.418699 0.232157 0.147129
H7    H     H_    0.581827 0.067936 0.232156 0.147132
H8    H     H_    0.068565 0.581303 0.232156 0.147131
H9    H     H_    0.080861 0.567280 0.310362 0.193447
H10   H     H_    0.567895 0.080343 0.310361 0.193448
H11   H     H_    0.919137 0.432721 0.310363 0.193446
H12   H     H_    0.569141 0.080812 0.267842 0.147134
H13   H     H_    0.432108 0.919655 0.310362 0.193449
H14   H     H_    0.919367 0.432436 0.689638 0.193442
H15   H     H_    0.432694 0.919159 0.689638 0.193447
H16   H     H_    0.080628 0.567563 0.689636 0.193441
H17   H     H_    0.567302 0.080843 0.689637 0.193448
H18   H     H_    0.580839 0.067307 0.810362 0.193450
H19   H     H_    0.067063 0.581046 0.810362 0.193439
H20   H     H_    0.419158 0.932695 0.810363 0.193445
H21   H     H_    0.932947 0.418942 0.810362 0.193444
H22   H     H_    0.418671 0.933291 0.189638 0.193450
H23   H     H_    0.918653 0.431485 0.267844 0.147129
H24   H     H_    0.932668 0.419181 0.189638 0.193443
H25   H     H_    0.581332 0.066708 0.189636 0.193445
H26   H     H_    0.067328 0.580821 0.189637 0.193447
H27   H     H_    0.014558 0.434477 0.379317 0.151363
H28   H     H_    0.565441 0.985087 0.379321 0.151468
H29   H     H_    0.985441 0.565524 0.379318 0.151362
H30   H     H_    0.434561 0.014912 0.379321 0.151469
H31   H     H_    0.985242 0.565480 0.620680 0.151388
H32   H     H_    0.565519 0.985428 0.620682 0.151366
H33   H     H_    0.014750 0.434520 0.620681 0.151385
H34   H     H_    0.430863 0.919185 0.267843 0.147135
H35   H     H_    0.434478 0.014573 0.620682 0.151365
H36   H     H_    0.514574 0.934480 0.879318 0.151365
H37   H     H_    0.065558 0.485583 0.879316 0.151333
H38   H     H_    0.485425 0.065521 0.879318 0.151362
H39   H     H_    0.934447 0.514408 0.879316 0.151336
H40   H     H_    0.485776 0.065595 0.120686 0.151276
H41   H     H_    0.065516 0.485412 0.120682 0.151371
H42   H     H_    0.514225 0.934404 0.120686 0.151273
H43   H     H_    0.934482 0.514589 0.120682 0.151368
H44   H     H_    0.014194 0.434116 0.423273 0.168182
H45   H     H_    0.918891 0.431195 0.732157 0.147125
H46   H     H_    0.565803 0.985459 0.423277 0.168147
H47   H     H_    0.985805 0.565884 0.423274 0.168181
H48   H     H_    0.434198 0.014540 0.423277 0.168147
H49   H     H_    0.985610 0.565841 0.576724 0.168162
H50   H     H_    0.565881 0.985791 0.576726 0.168180
H51   H     H_    0.014386 0.434159 0.576725 0.168162
H52   H     H_    0.434118 0.014209 0.576726 0.168179
H53   H     H_    0.514210 0.934119 0.923273 0.168178
H54   H     H_    0.065916 0.485947 0.923272 0.168216
H55   H     H_    0.485790 0.065881 0.923274 0.168176
H56   H     H_    0.431457 0.918677 0.732157 0.147131
H57   H     H_    0.934086 0.514050 0.923271 0.168216
H58   H     H_    0.486132 0.065954 0.076730 0.168245
H59   H     H_    0.065877 0.485776 0.076726 0.168176
H60   H     H_    0.513869 0.934045 0.076730 0.168243
H61   H     H_    0.934122 0.514224 0.076726 0.168176
H62   H     H_    0.211455 0.567149 0.500005 0.175183
H63   H     H_    0.433007 0.211218 0.499898 0.173875
H64   H     H_    0.788545 0.432851 0.499979 0.175183
H65   H     H_    0.566994 0.788782 0.499954 0.173875
H66   H     H_    0.211218 0.433009 0.499996 0.173878
H67   H     H_    0.081110 0.568799 0.732155 0.147122
H68   H     H_    0.432848 0.788545 0.500045 0.175183
H69   H     H_    0.788782 0.566991 0.500020 0.173878
H70   H     H_    0.567151 0.211455 0.500102 0.175183
H71   H     H_    0.711455 0.067150 0.999858 0.175175
H72   H     H_    0.933006 0.711218 0.999968 0.173879
H73   H     H_    0.288545 0.932850 0.999906 0.175175
H74   H     H_    0.066984 0.288782 0.000542 0.173880
H75   H     H_    0.711218 0.933008 0.000140 0.173882
H76   H     H_    0.932857 0.288545 0.999458 0.175178
H77   H     H_    0.288782 0.066992 0.000096 0.173882
H78   H     H_    0.568539 0.081326 0.732156 0.147132
H79   H     H_    0.067152 0.711455 0.000033 0.175176
H80   H     H_    0.581321 0.068544 0.767843 0.147133
I1    I     I_    0.302772 0.596609 0.500007 -0.279993
I2    I     I_    0.903475 0.802430 0.999954 -0.285211
I3    I     I_    0.197228 0.903390 0.999864 -0.280003
I4    I     I_    0.096511 0.197570 0.000777 -0.285216
I5    I     I_    0.802430 0.903478 0.000201 -0.285206
I6    I     I_    0.903400 0.197228 0.999222 -0.280006
I7    I     I_    0.197570 0.096522 0.000138 -0.285213
I8    I     I_    0.096613 0.802771 0.000047 -0.280001
I9    I     I_    0.403476 0.302430 0.499854 -0.285235
I10   I     I_    0.697228 0.403391 0.499970 -0.279993
I11   I     I_    0.596524 0.697570 0.499935 -0.285234
I12   I     I_    0.302430 0.403479 0.499994 -0.285232
I13   I     I_    0.403388 0.697228 0.500065 -0.279989
I14   I     I_    0.697570 0.596521 0.500029 -0.285232
I15   I     I_    0.596612 0.302772 0.500146 -0.279990
I16   I     I_    0.802772 0.096610 0.999797 -0.280009
N1    N     N_R   0.999999 0.500000 0.350655 -0.355026
N2    N     N_R   0.500002 0.999999 0.350655 -0.354988
N3    N     N_R   0.999995 0.500000 0.649344 -0.355024
N4    N     N_R   0.499998 0.000001 0.649345 -0.355026
N5    N     N_R   0.499999 0.000000 0.850655 -0.355025
N6    N     N_R   0.000004 0.499995 0.850654 -0.355041
N7    N     N_R   0.500001 1.000000 0.149346 -0.355050
N8    N     N_R   0.999998 0.500001 0.149345 -0.355023
O1    O     O_R   0.060960 0.465600 0.500010 -0.614389
O2    O     O_R   0.034400 0.560960 0.000010 -0.608969
O3    O     O_R   0.439040 0.034400 0.000010 -0.614354
O4    O     O_R   0.965600 0.439040 0.000010 -0.608968
O5    O     O_R   0.560960 0.034400 0.999990 -0.608980
O6    O     O_R   0.034400 0.439040 0.999990 -0.614368
O7    O     O_R   0.439040 0.965600 0.999990 -0.608980
O8    O     O_R   0.965600 0.560960 0.999990 -0.614368
O9    O     O_R   0.999990 0.465600 0.464400 -0.621874
O10   O     O_R   0.534400 0.999990 0.464400 -0.621841
O11   O     O_R   0.000010 0.534400 0.464400 -0.621874
O12   O     O_R   0.534400 0.060960 0.500010 -0.608940
O13   O     O_R   0.465600 0.000010 0.464400 -0.621841
O14   O     O_R   0.999990 0.534400 0.535600 -0.621860
O15   O     O_R   0.534400 0.000010 0.535600 -0.621875
O16   O     O_R   0.000010 0.465600 0.535600 -0.621859
O17   O     O_R   0.465600 0.999990 0.535600 -0.621875
O18   O     O_R   0.499990 0.965600 0.964400 -0.621875
O19   O     O_R   0.034400 0.499990 0.964400 -0.621894
O20   O     O_R   0.500010 0.034400 0.964400 -0.621875
O21   O     O_R   0.965600 0.500010 0.964400 -0.621899
O22   O     O_R   0.499990 0.034400 0.035600 -0.621918
O23   O     O_R   0.939040 0.534400 0.500010 -0.614389
O24   O     O_R   0.034400 0.500010 0.035600 -0.621877
O25   O     O_R   0.500010 0.965600 0.035600 -0.621918
O26   O     O_R   0.965600 0.499990 0.035600 -0.621871
O27   O     O_2   0.057144 0.546106 0.350994 -0.554648
O28   O     O_2   0.546525 0.056804 0.350992 -0.554713
O29   O     O_2   0.942854 0.453895 0.350995 -0.554649
O30   O     O_2   0.453479 0.943195 0.350993 -0.554712
O31   O     O_2   0.943007 0.453697 0.649006 -0.554654
O32   O     O_2   0.453876 0.942869 0.649006 -0.554650
O33   O     O_2   0.056983 0.546304 0.649005 -0.554661
O34   O     O_R   0.465600 0.939040 0.500010 -0.608940
O35   O     O_2   0.546120 0.057133 0.649006 -0.554650
O36   O     O_2   0.557130 0.046124 0.850994 -0.554643
O37   O     O_2   0.045956 0.557266 0.850994 -0.554635
O38   O     O_2   0.442868 0.953877 0.850994 -0.554658
O39   O     O_2   0.954052 0.442723 0.850994 -0.554627
O40   O     O_2   0.442547 0.954283 0.149005 -0.554605
O41   O     O_2   0.953858 0.442883 0.149006 -0.554660
O42   O     O_2   0.557455 0.045715 0.149004 -0.554619
O43   O     O_2   0.046138 0.557119 0.149005 -0.554654
O44   O     O_R   0.500000 0.560980 0.479880 -0.607943
O45   O     O_R   0.060960 0.534400 0.499990 -0.608950
O46   O     O_R   0.439020 0.500000 0.479880 -0.607934
O47   O     O_R   0.500000 0.439020 0.479880 -0.607937
O48   O     O_R   0.560980 0.500000 0.479880 -0.607944
O49   O     O_R   0.500000 0.439020 0.520120 -0.607942
O50   O     O_R   0.439020 0.500000 0.520120 -0.607945
O51   O     O_R   0.500000 0.560980 0.520120 -0.607936
O52   O     O_R   0.560980 0.500000 0.520120 -0.607935
O53   O     O_R   0.000000 0.060980 0.979880 -0.607937
O54   O     O_R   0.939020 0.000000 0.979880 -0.607891
O55   O     O_R   0.000000 0.939020 0.979880 -0.607943
O56   O     O_R   0.534400 0.939040 0.499990 -0.614401
O57   O     O_R   0.060980 0.000000 0.979880 -0.607990
O58   O     O_R   0.000000 0.939020 0.020120 -0.607935
O59   O     O_R   0.939020 0.000000 0.020120 -0.607986
O60   O     O_R   1.000000 0.060980 0.020120 -0.607938
O61   O     O_R   0.060980 0.000000 0.020120 -0.607887
O62   O     O_R   0.939040 0.465600 0.499990 -0.608950
O63   O     O_R   0.465600 0.060960 0.499990 -0.614401
O64   O     O_R   0.560960 0.965600 0.000010 -0.614355
Zn1   Zn    Zn3+2 0.000000 0.454050 0.500000 0.991166
Zn2   Zn    Zn3+2 0.500000 0.500000 0.526830 1.030673
Zn3   Zn    Zn3+2 0.000000 0.000000 0.973170 1.030673
Zn4   Zn    Zn3+2 0.000000 0.000000 0.026830 1.030684
Zn5   Zn    Zn3+2 0.545950 0.000000 0.500000 0.991178
Zn6   Zn    Zn3+2 0.000000 0.545950 0.500000 0.991166
Zn7   Zn    Zn3+2 0.454050 0.000000 0.500000 0.991178
Zn8   Zn    Zn3+2 0.500000 0.954050 0.000000 0.991128
Zn9   Zn    Zn3+2 0.045950 0.500000 0.000000 0.991141
Zn10  Zn    Zn3+2 0.500000 0.045950 0.000000 0.991128
Zn11  Zn    Zn3+2 0.954050 0.500000 0.000000 0.991141
Zn12  Zn    Zn3+2 0.500000 0.500000 0.473170 1.030672

loop_
_geom_bond_atom_site_label_1
_geom_bond_atom_site_label_2
_ccdc_geom_bond_type
O12   Zn5   S    
C151  O28   S    
C221  C234  A    
C215  I12   S    
C173  C210  A    
C85   C148  A    
C218  C240  A    
O19   Zn9   S    
C116  H19   S    
C228  C247  A    
C179  C195  A    
C185  H53   S    
O46   Zn12  S    
C187  H55   S    
C122  H26   S    
C98   H3    S    
C171  C209  A    
C92   C109  A    
C216  O3    A    
O49   Zn2   S    
C24   C54   S    
C68   O61   A    
C167  C185  A    
C94   C111  A    
C218  I14   S    
C94   H67   S    
C105  C123  A    
C91   H34   S    
C175  C210  A    
C219  C239  A    
O62   Zn1   S    
C240  H69   S    
C83   C145  A    
C66   C72   A    
C5    H74   S    
C67   C94   A    
C168  C208  A    
C176  H44   S    
C25   C60   T    
C4    C12   A    
C180  C196  A    
C128  C154  A    
C174  C191  A    
C157  H35   S    
C118  H21   S    
C76   C103  A    
C90   C177  A    
C177  H46   S    
C215  C237  A    
C179  H48   S    
C24   O48   A    
C57   O55   A    
C17   C52   T    
C178  C193  A    
C1    O45   A    
C169  H38   S    
C169  C187  A    
C47   C183  S    
C171  H40   S    
C18   C230  S    
C78   C141  A    
C99   H4    S    
C74   C100  A    
C116  C133  A    
C35   O53   A    
C203  N2    S    
C241  H68   S    
C62   C88   A    
C92   H45   S    
C35   C60   S    
C131  C158  A    
O23   Zn6   S    
C224  C233  A    
C169  C207  A    
C66   C82   A    
O21   Zn11  S    
C75   C86   A    
C123  C141  A    
C30   O20   A    
C146  H33   S    
C2    C52   S    
C162  O39   S    
C135  C206  A    
C247  H79   S    
C44   C112  S    
C113  C179  A    
C80   C142  A    
C186  C199  A    
C36   C44   T    
C120  C138  A    
C219  C230  A    
C37   C45   T    
C103  C121  A    
C45   C172  S    
C190  H59   S    
C118  C136  A    
C158  N4    A    
C84   C147  A    
C101  H29   S    
C177  C195  A    
C206  N4    S    
C6    H73   S    
C69   C95   A    
C22   C58   T    
C153  O30   S    
C245  H63   S    
C126  C141  A    
C120  H24   S    
C133  C160  A    
C189  H58   S    
C86   C149  A    
C113  C203  A    
C69   C70   A    
C117  H20   S    
C158  O35   S    
C205  O2    A    
C35   O60   A    
C156  O33   S    
C24   O52   A    
C1    O1    A    
C178  H47   S    
C96   H80   S    
C90   H28   S    
C204  N3    S    
C64   C91   A    
C109  H14   S    
C113  H30   S    
C162  N6    A    
C6    C222  A    
C11   C243  A    
C137  C148  A    
C170  H39   S    
C181  C197  A    
O56   Zn5   S    
C228  I8    S    
C129  C144  A    
C23   C59   T    
O54   Zn3   S    
C71   C97   A    
C106  C125  A    
C132  C145  A    
C62   C80   A    
C150  N1    A    
C156  N3    A    
C7    C221  A    
C104  C122  A    
O22   Zn10  S    
C40   C49   T    
C136  C162  A    
C212  C230  A    
C110  C129  A    
C107  H11   S    
C30   O18   A    
C139  C165  A    
C146  C204  A    
C101  C178  A    
C61   C87   A    
O2    Zn9   S    
C126  C152  A    
C1    C43   S    
C61   C77   A    
C26   O11   A    
C9    C36   S    
C133  C147  A    
C157  C184  A    
C8    C242  A    
C176  C193  A    
C2    O50   A    
C125  C142  A    
C213  C231  A    
C115  H18   S    
C23   C235  S    
O6    Zn9   S    
C123  C150  A    
O7    Zn8   S    
O44   Zn12  S    
C22   C234  S    
O4    Zn11  S    
C211  C242  A    
C153  N2    A    
C186  H54   S    
C244  H64   S    
C121  H25   S    
C115  C132  A    
C13   O47   A    
C138  C149  A    
C139  C148  A    
C132  C159  A    
C168  C186  A    
C187  C198  A    
C238  O51   A    
C220  C233  A    
C191  C200  A    
C165  N7    A    
C239  H70   S    
C82   C144  A    
C175  C192  A    
C137  C163  A    
C212  I9    S    
C191  H60   S    
C163  O40   S    
C70   C96   A    
C170  C208  A    
C130  C143  A    
C112  O63   A    
C87   C105  A    
C213  I10   S    
C63   C89   A    
C238  O44   A    
C100  C119  A    
C8    C34   S    
C15   C248  A    
C246  H75   S    
C194  O5    A    
C110  H15   S    
O8    Zn11  S    
C19   C54   T    
C224  C246  A    
C30   C198  S    
C67   C81   A    
C66   C93   A    
C243  H65   S    
C135  C181  A    
C14   C247  A    
C87   H1    S    
O25   Zn8   S    
C31   O21   A    
C79   H27   S    
C112  O12   A    
C225  C236  A    
C79   C176  A    
C213  C244  A    
C34   C43   T    
C130  C156  A    
C226  C248  A    
O59   Zn4   S    
C93   C110  A    
C134  C161  A    
C175  H43   S    
C121  C139  A    
C194  O64   A    
C122  C140  A    
C184  H52   S    
O14   Zn6   S    
C224  I5    S    
C63   C75   A    
C12   C246  A    
C76   C85   A    
C26   O9    A    
C28   C196  S    
O63   Zn7   S    
O64   Zn8   S    
C74   C85   A    
C111  H16   S    
O11   Zn6   S    
C223  C236  A    
C208  N6    S    
C182  C196  A    
O60   Zn4   S    
C170  C188  A    
C223  I4    S    
C140  C149  A    
C3    C16   A    
C63   C78   A    
C163  N7    A    
C174  C209  A    
C103  H7    S    
C114  C131  A    
C93   H56   S    
C214  C232  A    
C31   C199  S    
O45   Zn6   S    
O57   Zn3   S    
O58   Zn4   S    
C46   O54   A    
O47   Zn12  S    
C154  O31   S    
C217  C232  A    
C226  I7    S    
C95   C114  A    
C173  C190  A    
C166  N8    A    
C205  O8    A    
C18   C53   T    
O34   Zn7   S    
C21   C233  S    
C25   C236  S    
C4    C220  A    
C9    C239  A    
C192  C201  A    
C159  O36   S    
C9    C245  A    
C183  O34   A    
C150  O27   S    
C159  N5    A    
C64   C80   A    
C62   C76   A    
C117  C134  A    
C207  N5    S    
C13   C53   S    
C165  O42   S    
C140  C166  A    
C7    H72   S    
C222  C235  A    
C146  C182  A    
C10   C244  A    
C15   C41   S    
C125  C151  A    
C129  C155  A    
C17   C229  S    
C222  I3    S    
C242  H62   S    
C135  H32   S    
C214  C243  A    
C102  H6    S    
C11   C38   S    
C109  C128  A    
C65   C81   A    
C50   C216  S    
C211  I1    S    
C79   C202  A    
C89   C107  A    
O20   Zn10  S    
O5    Zn10  S    
C97   C116  A    
C70   C83   A    
C68   O57   A    
C49   C205  S    
O1    Zn1   S    
C51   C227  S    
O9    Zn1   S    
C27   C195  S    
C100  H5    S    
C41   C50   T    
C102  C120  A    
C217  I13   S    
C90   C203  A    
C134  C145  A    
C173  H41   S    
C105  H9    S    
C211  C229  A    
C48   C194  S    
C154  N3    A    
C91   C108  A    
C157  C206  A    
C212  C245  A    
O51   Zn2   S    
C21   C56   T    
C97   H2    S    
C164  N8    A    
O52   Zn2   S    
C12   C39   S    
C151  N2    A    
C155  N4    A    
C32   C200  S    
C67   C71   A    
C55   C238  S    
C160  O37   S    
C128  C143  A    
C217  C241  A    
C72   C83   A    
C88   H12   S    
C216  O7    A    
C214  I11   S    
C184  C197  A    
C64   C74   A    
C77   C104  A    
C27   O10   A    
C28   O14   A    
C188  H57   S    
C26   C193  S    
C131  C144  A    
C39   C48   T    
C161  N5    A    
C65   C92   A    
C166  O43   S    
C10   C240  A    
C20   C232  S    
C164  O41   S    
C127  C153  A    
C248  H77   S    
C57   C58   S    
C4    H71   S    
O3    Zn10  S    
C72   C98   A    
C8    C237  A    
O16   Zn1   S    
O50   Zn2   S    
C181  H50   S    
C124  C204  A    
C10   C37   S    
C192  H61   S    
C101  C202  A    
C33   O26   A    
C2    O46   A    
O24   Zn9   S    
C227  O6    A    
C65   C73   A    
C171  C189  A    
C33   C201  S    
C29   O17   A    
C5    C16   A    
C111  C130  A    
C6    C15   A    
C32   O25   A    
C29   O15   A    
C7    C14   A    
C75   C102  A    
C160  N6    A    
C96   C115  A    
O15   Zn5   S    
C69   C82   A    
C185  C198  A    
O13   Zn7   S    
C57   O58   A    
C3    C225  A    
C73   C84   A    
C228  C234  A    
C167  H36   S    
C152  N1    A    
C11   C241  A    
C20   C55   T    
C202  N1    S    
C124  H31   S    
C209  N7    S    
C119  C137  A    
O10   Zn5   S    
C108  H13   S    
C27   O13   A    
C33   O24   A    
C114  H17   S    
C32   O22   A    
C188  C199  A    
C226  C235  A    
C127  C142  A    
C167  C207  A    
C180  H49   S    
C46   O59   A    
C59   C68   S    
C88   C106  A    
C3    H76   S    
C13   O49   A    
C61   C78   A    
C28   O16   A    
C221  I2    S    
O61   Zn4   S    
C38   C47   T    
O26   Zn11  S    
C95   H78   S    
O53   Zn3   S    
C89   H23   S    
C189  C200  A    
C5    C223  A    
C77   C86   A    
C29   C197  S    
C225  I6    S    
C210  N8    S    
C46   C56   S    
C16   C42   S    
C98   C117  A    
C71   C84   A    
C73   C99   A    
C119  H22   S    
C219  I15   S    
C172  O23   A    
C215  C229  A    
C182  H51   S    
C107  C126  A    
O17   Zn7   S    
C190  C201  A    
O18   Zn8   S    
C42   C51   T    
C237  H66   S    
C172  O62   A    
C155  O32   S    
O48   Zn12  S    
O55   Zn3   S    
C227  O4    A    
C104  H8    S    
C183  O56   A    
C99   C118  A    
C31   O19   A    
C220  I16   S    
C108  C127  A    
C152  O29   S    
C218  C231  A    
C124  C180  A    
C136  C147  A    
C14   C40   S    
C168  H37   S    
C81   C143  A    
C174  H42   S    
C106  H10   S    
C138  C164  A    
C19   C231  S    
C161  O38   S    
