data_mof_unit_28274.cif
_audit_creation_date              2012-12-11T17:01:17-0500
_audit_creation_method            fapswitch 2.2
_symmetry_space_group_name_H-M    P1
_symmetry_Int_Tables_number       1
_space_group_crystal_system       triclinic
_cell_length_a                    19.398829
_cell_length_b                    7.088573
_cell_length_c                    17.620775
_cell_angle_alpha                 90.000016
_cell_angle_beta                  108.81132
_cell_angle_gamma                 90.000019
_cell_volume                      2293.60811707

loop_
_atom_site_label
_atom_site_type_symbol
_atom_type_description
_atom_site_fract_x
_atom_site_fract_y
_atom_site_fract_z
_atom_type_partial_charge
O1    O     O_R   0.413720 0.494330 0.415730 -0.532064
O2    O     O_R   0.586280 0.994330 0.584270 -0.532064
O3    O     O_R   0.560210 0.819300 0.430070 -0.542478
O4    O     O_R   0.439790 0.319300 0.569930 -0.542479
C1    C     C_R   0.579490 0.655395 0.412204 0.693789
C2    C     C_R   0.420510 0.155395 0.587796 0.693788
O5    O     O_R   0.412670 0.823730 0.406310 -0.549613
O6    O     O_R   0.587330 0.323730 0.593690 -0.549613
O7    O     O_R   0.437690 0.998790 0.560340 -0.529034
O8    O     O_R   0.562310 0.498790 0.439660 -0.529034
C3    C     C_R   0.385312 0.655425 0.383755 0.708309
C4    C     C_R   0.614688 0.155425 0.616245 0.708308
O9    O     O_3   0.508380 0.662350 0.550560 -0.365865
O10   O     O_3   0.491620 0.162350 0.449440 -0.365864
V1    V     V_3+5 0.498450 0.935370 0.490620 1.497798
V2    V     V_3+5 0.501550 0.435370 0.509380 1.497797
C5    C     C_R   0.744611 0.052661 0.677980 0.079236
C6    C     C_R   0.255389 0.552661 0.322019 0.079237
C7    C     C_R   0.683621 0.148942 0.683742 -0.129402
C8    C     C_R   0.316379 0.648942 0.316258 -0.129403
C9    C     C_R   0.691509 0.248145 0.755318 -0.147856
C10   C     C_R   0.308491 0.748146 0.244682 -0.147856
H1    H     H_    0.646046 0.328493 0.761305 0.153809
H2    H     H_    0.353954 0.828493 0.238695 0.153809
C11   C     C_R   0.755869 0.232777 0.821881 0.187002
C12   C     C_R   0.244130 0.732777 0.178119 0.187003
C13   C     C_R   0.815327 0.122194 0.817004 -0.167373
C14   C     C_R   0.184673 0.622194 0.182996 -0.167373
C15   C     C_R   0.808334 0.038538 0.742735 0.131312
C16   C     C_R   0.191666 0.538538 0.257265 0.131313
C17   C     C_3   0.822634 0.841923 0.718918 -0.073398
C18   C     C_3   0.177365 0.341923 0.281082 -0.073401
C19   C     C_3   0.752888 0.861199 0.646740 -0.462134
C20   C     C_3   0.247112 0.361199 0.353260 -0.462130
H3    H     H_    0.708001 0.764150 0.647441 0.197134
H4    H     H_    0.291999 0.264149 0.352559 0.197133
H5    H     H_    0.762188 0.869674 0.587743 0.182156
H6    H     H_    0.237812 0.369673 0.412256 0.182157
C21   C     C_R   0.323396 0.004602 0.631544 -0.111603
C22   C     C_R   0.676604 0.504603 0.368456 -0.111603
C23   C     C_R   0.374672 0.149772 0.641417 -0.145317
C24   C     C_R   0.625328 0.649772 0.358583 -0.145317
C25   C     C_R   0.378897 0.293708 0.698849 -0.042870
C26   C     C_R   0.621103 0.793709 0.301152 -0.042869
C27   C     C_R   0.329757 0.292504 0.743745 0.059317
C28   C     C_R   0.670243 0.792505 0.256255 0.059316
C29   C     C_R   0.278137 0.145342 0.732564 0.035446
C30   C     C_R   0.721863 0.645342 0.267437 0.035447
C31   C     C_R   0.274889 0.000318 0.676049 0.066855
C32   C     C_R   0.725111 0.500318 0.323951 0.066855
C33   C     C_R   0.329896 0.437598 0.798333 -0.116616
C34   C     C_R   0.670105 0.937599 0.201668 -0.116617
C35   C     C_R   0.280751 0.439753 0.841621 -0.039181
C36   C     C_R   0.719249 0.939754 0.158380 -0.039179
C37   C     C_R   0.234609 0.281792 0.837681 0.032611
C38   C     C_R   0.765391 0.781792 0.162319 0.032612
C39   C     C_R   0.230087 0.141802 0.778662 0.081993
C40   C     C_R   0.769914 0.641803 0.221338 0.081993
C41   C     C_R   0.177754 0.996862 0.765959 0.068218
C42   C     C_R   0.822247 0.496863 0.234042 0.068219
C43   C     C_R   0.174181 0.856320 0.708998 -0.204802
C44   C     C_R   0.825820 0.356321 0.291003 -0.204801
C45   C     C_R   0.222400 0.855577 0.664798 0.164810
C46   C     C_R   0.777601 0.355578 0.335203 0.164810
C47   C     C_R   0.193190 0.257668 0.890843 -0.107208
C48   C     C_R   0.806810 0.757667 0.109157 -0.107208
C49   C     C_R   0.135338 0.124805 0.871542 -0.122805
C50   C     C_R   0.864662 0.624805 0.128458 -0.122806
C51   C     C_R   0.129064 0.994414 0.809830 -0.152346
C52   C     C_R   0.870937 0.494415 0.190170 -0.152346
H7    H     H_    0.320725 0.897231 0.587141 0.168201
H8    H     H_    0.679275 0.397231 0.412859 0.168202
H9    H     H_    0.366392 0.556041 0.805670 0.207666
H10   H     H_    0.633609 0.056043 0.194331 0.207666
H11   H     H_    0.087047 0.887079 0.797209 0.154529
H12   H     H_    0.912953 0.387080 0.202791 0.154526
H13   H     H_    0.134136 0.744575 0.699381 0.155108
H14   H     H_    0.865865 0.244577 0.300620 0.155107
O11   O     O_R   0.937800 0.775460 0.060470 -0.555947
O12   O     O_R   0.062200 0.275460 0.939530 -0.555947
O13   O     O_R   0.087350 0.441340 0.093710 -0.537548
O14   O     O_R   0.912650 0.941340 0.906290 -0.537547
C53   C     C_R   0.115458 0.609916 0.115439 0.732180
C54   C     C_R   0.884542 0.109916 0.884561 0.732183
O15   O     O_R   0.939820 0.446010 0.069950 -0.532522
O16   O     O_R   0.060180 0.946010 0.930050 -0.532521
O17   O     O_R   0.913690 0.271230 0.915700 -0.533798
O18   O     O_R   0.086310 0.771230 0.084300 -0.533798
C55   C     C_R   0.916802 0.614392 0.082562 0.731477
C56   C     C_R   0.083198 0.114392 0.917438 0.731480
O19   O     O_3   0.991670 0.603050 0.949510 -0.382263
O20   O     O_3   0.008330 0.103050 0.050490 -0.382264
V3    V     V_3+5 0.001550 0.329940 0.009370 1.460832
V4    V     V_3+5 0.998450 0.829940 0.990630 1.460834
C57   C     C_2   0.272393 0.618942 0.881793 0.510995
H15   H     H_    0.222310 0.648404 0.894371 0.017604
O21   O     O_2   0.320535 0.737864 0.899537 -0.489964
C58   C     C_2   0.727608 0.118943 0.118208 0.510996
H16   H     H_    0.777690 0.148403 0.105629 0.017605
O22   O     O_2   0.679467 0.237866 0.100465 -0.489965
C59   C     C_2   0.219413 0.338779 0.973411 0.432438
H17   H     H_    0.182194 0.380669 0.004572 0.068854
O23   O     O_2   0.284574 0.352331 0.009360 -0.470487
C60   C     C_2   0.780587 0.838776 0.026588 0.432437
H18   H     H_    0.817805 0.880657 0.995425 0.068857
O24   O     O_2   0.715425 0.852334 0.990641 -0.470488
I1    I     I_    0.210870 0.629665 0.581955 -0.426179
I2    I     I_    0.789131 0.129666 0.418046 -0.426182
I3    I     I_    0.754230 0.354413 0.931237 -0.271578
I4    I     I_    0.245770 0.854413 0.068763 -0.271575
C61   C     C_2   0.817394 0.690062 0.776894 0.401591
H19   H     H_    0.855449 0.572848 0.790373 0.038872
O25   O     O_2   0.769661 0.695550 0.808153 -0.504761
C62   C     C_2   0.182605 0.190062 0.223106 0.401588
H20   H     H_    0.144550 0.072849 0.209626 0.038872
O26   O     O_2   0.230339 0.195550 0.191846 -0.504759
C63   C     C_2   0.890542 0.825509 0.695312 0.328542
H21   H     H_    0.897680 0.703629 0.661326 0.073327
O27   O     O_2   0.937970 0.946204 0.714343 -0.530183
C64   C     C_2   0.109458 0.325508 0.304688 0.328544
H22   H     H_    0.102318 0.203623 0.338671 0.073324
O28   O     O_2   0.062032 0.446209 0.285661 -0.530180
C65   C     C_2   0.437055 0.438953 0.713788 0.435197
H23   H     H_    0.493501 0.395261 0.728719 0.041422
O29   O     O_2   0.422002 0.606425 0.704366 -0.521441
C66   C     C_2   0.562945 0.938953 0.286212 0.435196
H24   H     H_    0.506500 0.895261 0.271279 0.041422
O30   O     O_2   0.577999 0.106425 0.295636 -0.521440

loop_
_geom_bond_atom_site_label_1
_geom_bond_atom_site_label_2
_ccdc_geom_bond_type
C48   C50   A    
C1    C24   S    
C66   H24   S    
C31   C45   A    
C35   C57   S    
C5    C15   A    
C61   H19   S    
O1    C3    A    
C54   O17   A    
C47   C59   S    
O2    C4    A    
C2    O7    A    
C60   O24   D    
C62   H20   S    
C65   H23   S    
C21   C23   A    
O5    C3    A    
C26   C66   S    
C59   H17   S    
C5    C19   S    
O14   V4    S    
C13   C54   S    
C7    C9    A    
C30   C32   A    
C34   H10   S    
C63   O27   D    
C38   C48   A    
C39   C41   A    
C13   C15   A    
C27   C33   A    
C40   C42   A    
C28   C34   A    
C32   C46   A    
C42   C44   A    
O6    V2    S    
C43   C45   A    
C17   C63   S    
C44   C46   A    
O16   V4    S    
C37   C47   A    
O15   V3    S    
C57   H15   S    
C64   O28   D    
C47   C49   A    
C2    C23   S    
C17   C19   S    
C6    C16   A    
C12   I4    S    
C6    C8    A    
C11   I3    S    
C27   C29   A    
C53   O18   A    
C59   O23   D    
C14   C53   S    
C23   C25   A    
C24   C26   A    
C18   C64   S    
C60   H18   S    
O13   C53   A    
C34   C36   A    
C46   I2    S    
C28   C30   A    
C35   C37   A    
C36   C38   A    
C3    C8    S    
C41   C43   A    
C48   C60   S    
O11   V4    S    
C29   C31   A    
O16   C56   A    
C43   H13   S    
O15   C55   A    
C5    C7    A    
O5    V1    S    
C26   C28   A    
O19   V3    S    
C49   C56   S    
C19   H5    S    
C49   C51   A    
C18   C20   S    
O4    V2    S    
C29   C39   A    
O13   V3    S    
C42   C52   A    
O6    C4    A    
O20   V4    S    
C50   C55   S    
C61   O25   D    
O1    V2    S    
O2    V1    S    
C25   C27   A    
C41   C51   A    
O4    C2    A    
C21   C31   A    
C8    C10   A    
O14   C54   A    
C9    H1    S    
C52   H12   S    
C10   H2    S    
C45   I1    S    
C25   C65   S    
O3    V1    S    
C64   H22   S    
C9    C11   A    
C66   O30   D    
C22   H8    S    
C20   H6    S    
C12   C14   A    
C44   H14   S    
C33   H9    S    
O3    C1    A    
C62   O26   D    
C57   O21   D    
C30   C40   A    
C11   C13   A    
C58   O22   D    
C37   C39   A    
O7    V1    S    
C14   C16   A    
C15   C17   S    
O8    V2    S    
C63   H21   S    
O19   V4    S    
C16   C18   S    
C6    C20   S    
C22   C32   A    
O17   V3    S    
C4    C7    S    
C22   C24   A    
O20   V3    S    
C19   H3    S    
C38   C40   A    
C51   H11   S    
C17   C61   S    
C20   H4    S    
O12   C56   A    
O11   C55   A    
C65   O29   D    
C33   C35   A    
C1    O8    A    
C50   C52   A    
C58   H16   S    
C10   C12   A    
O9    V2    S    
O18   V4    S    
C21   H7    S    
O10   V1    S    
C36   C58   S    
C18   C62   S    
O12   V3    S    
