data_mof_unit_39196.cif
_audit_creation_date              2012-12-11T16:43:11-0500
_audit_creation_method            fapswitch 2.2
_symmetry_space_group_name_H-M    P1
_symmetry_Int_Tables_number       1
_space_group_crystal_system       triclinic
_cell_length_a                    6.921784
_cell_length_b                    23.283207
_cell_length_c                    25.843324
_cell_angle_alpha                 104.767902
_cell_angle_beta                  90.311685
_cell_angle_gamma                 90.475515
_cell_volume                      4027.09946517

loop_
_atom_site_label
_atom_site_type_symbol
_atom_type_description
_atom_site_fract_x
_atom_site_fract_y
_atom_site_fract_z
_atom_type_partial_charge
O1    O     O_R   0.505750 0.453350 0.547660 -0.539479
O2    O     O_R   0.170990 0.432220 0.437590 -0.541396
O3    O     O_R   0.005600 0.546650 0.452340 -0.541711
C1    C     C_R   0.339649 0.415847 0.417070 0.717341
O4    O     O_R   0.175720 0.446240 0.546340 -0.541361
O5    O     O_R   0.010370 0.560770 0.561860 -0.540372
C2    C     C_R   0.344788 0.434085 0.562779 0.698590
O6    O     O_R   0.500990 0.439230 0.438140 -0.534432
O7    O     O_3   0.340820 0.537560 0.504970 -0.372439
V1    V     V_3+5 0.064050 0.493030 0.499080 1.415448
O8    O     O_R   0.680940 0.567780 0.562410 -0.543302
C3    C     C_R   0.850911 0.584506 0.582423 0.711243
O9    O     O_R   0.676210 0.553760 0.453660 -0.544579
C4    C     C_R   0.845129 0.565884 0.437191 0.684170
V2    V     V_3+5 0.564640 0.506970 0.500920 1.409242
O10   O     O_3   0.837740 0.462440 0.495030 -0.362921
C5    C     C_R   0.772658 0.875567 0.114809 -0.134769
H1    H     H_    0.639929 0.887536 0.097983 0.129854
C6    C     C_R   0.761182 0.839883 0.150868 -0.137741
H2    H     H_    0.620251 0.824908 0.160245 0.101861
C7    C     C_R   0.929281 0.823035 0.173865 0.092754
C8    C     C_R   0.109420 0.842562 0.159436 -0.132635
H3    H     H_    0.241745 0.831238 0.176886 0.099980
C9    C     C_R   0.120996 0.878099 0.123183 -0.148104
H4    H     H_    0.262013 0.892658 0.113405 0.120326
C10   C     C_R   0.952668 0.895259 0.100512 -0.052467
C11   C     C_R   0.054394 0.741412 0.212816 -0.145811
H5    H     H_    0.170361 0.733391 0.183994 0.114316
C12   C     C_R   0.042153 0.706179 0.249273 -0.151314
H6    H     H_    0.149112 0.672066 0.247431 0.109621
C13   C     C_R   0.891718 0.714001 0.286791 0.079874
C14   C     C_R   0.753778 0.758044 0.286755 -0.147186
H7    H     H_    0.637835 0.766078 0.315584 0.113205
C15   C     C_R   0.766008 0.793272 0.250293 -0.146584
H8    H     H_    0.659058 0.827388 0.252132 0.112968
C16   C     C_R   0.916487 0.785465 0.212791 0.081949
C17   C     C_R   0.699050 0.657049 0.340341 -0.140167
H9    H     H_    0.566626 0.668359 0.322929 0.099030
C18   C     C_R   0.687671 0.621627 0.376696 -0.162085
H10   H     H_    0.546706 0.607137 0.386582 0.116603
C19   C     C_R   0.856120 0.604501 0.399339 -0.054310
C20   C     C_R   0.036053 0.624074 0.384872 -0.161312
H11   H     H_    0.168886 0.612099 0.401641 0.120450
C21   C     C_R   0.047333 0.659651 0.348722 -0.141718
H12   H     H_    0.188224 0.674558 0.339241 0.100615
C22   C     C_R   0.879110 0.676494 0.325777 0.095344
C23   C     C_R   0.713414 0.643232 0.668996 -0.220808
C24   C     C_R   0.864382 0.633646 0.631731 -0.084528
C25   C     C_R   0.030657 0.670109 0.642541 -0.220122
C26   C     C_R   0.045759 0.716008 0.689757 0.091474
C27   C     C_R   0.894925 0.724707 0.727432 0.076956
C28   C     C_R   0.729042 0.687824 0.717028 0.096096
C29   C     C_R   0.209270 0.753275 0.700045 -0.194268
C30   C     C_R   0.223715 0.798661 0.747290 -0.160285
C31   C     C_R   0.075710 0.807329 0.785360 0.090956
C32   C     C_R   0.910284 0.770193 0.775585 -0.002019
C33   C     C_R   0.760776 0.778187 0.813804 0.019083
C34   C     C_R   0.597569 0.740168 0.802806 -0.127133
C35   C     C_R   0.581992 0.695801 0.755035 -0.206277
C36   C     C_R   0.090093 0.852947 0.832634 -0.246052
C37   C     C_R   0.941607 0.862528 0.870700 -0.150219
C38   C     C_R   0.777848 0.823830 0.861824 0.319653
H13   H     H_    0.585670 0.614973 0.661216 0.124827
H14   H     H_    0.147570 0.663129 0.613919 0.128609
H15   H     H_    0.326458 0.747243 0.671585 0.133656
H16   H     H_    0.351642 0.826810 0.754214 0.133796
H17   H     H_    0.216048 0.881993 0.839335 0.155913
H18   H     H_    0.478802 0.744611 0.830502 0.192930
H19   H     H_    0.453864 0.667735 0.747769 0.139079
C39   C     C_R   0.601658 0.176297 0.148548 -0.224120
C40   C     C_R   0.455651 0.132767 0.133045 -0.081342
C41   C     C_R   0.290194 0.136226 0.165325 -0.178215
C42   C     C_R   0.269337 0.182187 0.212113 0.020616
C43   C     C_R   0.413820 0.226335 0.226746 0.066511
C44   C     C_R   0.580569 0.223439 0.194769 0.129078
C45   C     C_R   0.106523 0.184414 0.244627 -0.224138
C46   C     C_R   0.085160 0.230104 0.291442 0.389192
C47   C     C_R   0.226195 0.275765 0.305965 0.009677
C48   C     C_R   0.391813 0.273351 0.273429 0.014962
C49   C     C_R   0.536793 0.317615 0.287692 0.153338
C50   C     C_R   0.700765 0.314740 0.255336 -0.143047
C51   C     C_R   0.722736 0.268017 0.209459 -0.175315
C52   C     C_R   0.207610 0.323297 0.352276 -0.162557
C53   C     C_R   0.353088 0.367085 0.367053 -0.110082
C54   C     C_R   0.517059 0.363685 0.334360 -0.172319
H20   H     H_    0.729343 0.174260 0.124064 0.122863
H21   H     H_    0.177420 0.102647 0.154249 0.122543
H22   H     H_    0.995722 0.150184 0.233874 0.166281
H23   H     H_    0.082390 0.326037 0.377645 0.183246
H24   H     H_    0.629916 0.397274 0.345142 0.117142
H25   H     H_    0.813635 0.348300 0.265923 0.115562
H26   H     H_    0.851604 0.266646 0.185570 0.119956
C55   C     C_R   0.274433 0.123950 0.884849 -0.161137
H27   H     H_    0.141756 0.111729 0.901518 0.118786
C56   C     C_R   0.263041 0.159546 0.848737 -0.142352
H28   H     H_    0.122311 0.174210 0.839207 0.099945
C57   C     C_R   0.430948 0.176708 0.825884 0.094906
C58   C     C_R   0.610900 0.157588 0.840543 -0.139201
H29   H     H_    0.743050 0.169178 0.823220 0.099366
C59   C     C_R   0.622411 0.122123 0.876872 -0.161272
H30   H     H_    0.763206 0.107877 0.886836 0.115396
C60   C     C_R   0.454192 0.104652 0.899390 -0.054311
C61   C     C_R   0.557314 0.258575 0.786954 -0.148821
H31   H     H_    0.674789 0.266820 0.815812 0.111180
C62   C     C_R   0.544560 0.293849 0.750546 -0.149741
H32   H     H_    0.652695 0.328205 0.752456 0.109861
C63   C     C_R   0.392182 0.285763 0.712996 0.080981
C64   C     C_R   0.252874 0.241396 0.712943 -0.144821
H33   H     H_    0.135396 0.233150 0.684086 0.115658
C65   C     C_R   0.265626 0.206124 0.749350 -0.150057
H34   H     H_    0.157487 0.171769 0.747441 0.111171
C66   C     C_R   0.417983 0.214216 0.786906 0.080041
C67   C     C_R   0.199112 0.342400 0.659405 -0.135357
H35   H     H_    0.067007 0.330785 0.676733 0.098868
C68   C     C_R   0.187477 0.377878 0.623092 -0.151375
H36   H     H_    0.046636 0.392107 0.613145 0.118013
C69   C     C_R   0.355625 0.395383 0.600567 -0.055298
C70   C     C_R   0.535447 0.376107 0.615087 -0.149957
H37   H     H_    0.668070 0.388357 0.598411 0.123733
C71   C     C_R   0.546964 0.340495 0.651185 -0.136022
H38   H     H_    0.687735 0.325846 0.660698 0.101619
C72   C     C_R   0.379120 0.323295 0.674040 0.093668
O11   O     O_R   0.308350 0.060850 0.061810 -0.546507
O12   O     O_R   0.633860 0.053770 0.953650 -0.547082
O13   O     O_R   0.798960 0.939210 0.938150 -0.509203
C73   C     C_R   0.464860 0.065956 0.937185 0.682546
O14   O     O_R   0.638360 0.067800 0.062400 -0.545821
O15   O     O_R   0.803500 0.953330 0.047670 -0.535000
C74   C     C_R   0.469656 0.084175 0.082922 0.690113
O16   O     O_R   0.303810 0.046730 0.952290 -0.545277
O17   O     O_3   0.468430 0.962490 0.995010 -0.332606
V3    V     V_3+5 0.745300 0.006960 0.000930 1.457344
O18   O     O_R   0.132880 0.946160 0.046390 -0.543059
C75   C     C_R   0.963873 0.934006 0.062783 0.702146
O19   O     O_R   0.128380 0.932130 0.937650 -0.531338
C76   C     C_R   0.957615 0.914021 0.918590 0.780372
V4    V     V_3+5 0.244670 0.992930 0.999140 1.473081
O20   O     O_3   0.971670 0.037510 0.005000 -0.384080
Cl1   Cl    Cl    0.599268 0.829957 0.911914 -0.663335
Cl2   Cl    Cl    0.881239 0.227120 0.331307 -0.653504

loop_
_geom_bond_atom_site_label_1
_geom_bond_atom_site_label_2
_ccdc_geom_bond_type
C31   C32   A    
O18   V4    S    
C55   H27   S    
C11   C12   A    
C19   C20   A    
C2    C69   S    
C56   H28   S    
C46   Cl2   S    
C1    O6    A    
C50   C51   A    
C33   C38   A    
C18   C19   A    
C7    C16   S    
C46   C47   A    
C64   H33   S    
C62   C63   A    
C12   H6    S    
O17   V4    S    
C5    C10   A    
C6    C7    A    
C17   H9    S    
C9    C10   A    
C27   C32   A    
C23   H13   S    
C73   O16   A    
V3    O20   S    
C68   H36   S    
C51   H26   S    
C32   C33   A    
O12   V3    S    
C15   H8    S    
C42   C43   A    
C70   H37   S    
O14   V3    S    
O8    V2    S    
C47   C52   A    
C67   C72   A    
C23   C24   A    
C36   H17   S    
C71   C72   A    
C68   C69   A    
C13   C22   S    
C63   C64   A    
C39   C40   A    
O1    V2    S    
O9    C4    A    
C38   Cl1   S    
C29   H15   S    
O7    V1    S    
C45   H22   S    
C3    C24   S    
C55   C56   A    
C25   H14   S    
C31   C36   A    
O11   C74   A    
C20   C21   A    
O15   V3    S    
C21   C22   A    
C57   C58   A    
C70   C71   A    
C45   C46   A    
C52   H23   S    
C26   C29   A    
C43   C44   A    
C27   C28   A    
O19   C76   A    
C9    H4    S    
C18   H10   S    
O4    C2    A    
C57   C66   S    
C47   C48   A    
C41   C42   A    
C26   C27   A    
C34   C35   A    
C29   C30   A    
C65   H34   S    
C61   C66   A    
C14   C15   A    
O2    C1    A    
O14   C74   A    
C49   C54   A    
C10   C75   S    
C28   C35   A    
O15   C75   A    
C40   C74   S    
C52   C53   A    
C1    C53   S    
C54   H24   S    
C59   C60   A    
C5    H1    S    
C61   C62   A    
C53   C54   A    
O3    C4    A    
C35   H19   S    
C4    C19   S    
O13   C76   A    
C34   H18   S    
C24   C25   A    
C58   H29   S    
O6    V2    S    
C58   C59   A    
C43   C48   A    
O9    V2    S    
O18   C75   A    
C42   C45   A    
C8    C9    A    
C20   H11   S    
O17   V3    S    
C39   H20   S    
C39   C44   A    
C41   H21   S    
C71   H38   S    
O12   C73   A    
C67   H35   S    
V4    O20   S    
O19   V4    S    
C30   C31   A    
O1    C2    A    
C13   C14   A    
C21   H12   S    
C49   C50   A    
C60   C73   S    
C55   C60   A    
O5    V1    S    
O8    C3    A    
C56   C57   A    
C44   C51   A    
C23   C28   A    
C30   H16   S    
C11   C16   A    
C62   H32   S    
O11   V4    S    
C14   H7    S    
C6    H2    S    
O7    V2    S    
O4    V1    S    
C12   C13   A    
O3    V1    S    
V1    O10   S    
C69   C70   A    
O5    C3    A    
O13   V3    S    
C33   C34   A    
C59   H30   S    
C5    C6    A    
C64   C65   A    
C15   C16   A    
C37   C38   A    
C65   C66   A    
C48   C49   A    
C50   H25   S    
C40   C41   A    
C17   C18   A    
C25   C26   A    
C61   H31   S    
C8    H3    S    
C36   C37   A    
C63   C72   S    
C67   C68   A    
C17   C22   A    
C7    C8    A    
O16   V4    S    
V2    O10   S    
C37   C76   S    
C11   H5    S    
O2    V1    S    
