data_mof_unit_23829.cif
_audit_creation_date              2012-12-11T14:25:57-0500
_audit_creation_method            fapswitch 2.2
_symmetry_space_group_name_H-M    P1
_symmetry_Int_Tables_number       1
_space_group_crystal_system       triclinic
_cell_length_a                    6.988671
_cell_length_b                    14.85429
_cell_length_c                    16.069441
_cell_angle_alpha                 90.582804
_cell_angle_beta                  90.237396
_cell_angle_gamma                 90.21377
_cell_volume                      1668.08422909

loop_
_atom_site_label
_atom_site_type_symbol
_atom_type_description
_atom_site_fract_x
_atom_site_fract_y
_atom_site_fract_z
_atom_type_partial_charge
O1    O     O_R   0.494490 0.416160 0.413410 -0.547826
O2    O     O_R   0.823830 0.407240 0.585990 -0.501020
O3    O     O_R   0.994160 0.583840 0.586590 -0.548877
C1    C     C_R   0.654540 0.383702 0.612277 0.791676
O4    O     O_R   0.824200 0.405280 0.414020 -0.507190
O5    O     O_R   0.994530 0.581860 0.413390 -0.544686
C2    C     C_R   0.655159 0.382920 0.385907 0.760532
O6    O     O_R   0.494110 0.418140 0.586610 -0.550546
O7    O     O_3   0.660810 0.557940 0.500000 -0.389903
V1    V     V_3+5 0.935650 0.489250 0.500000 1.505160
O8    O     O_R   0.324250 0.592760 0.414010 -0.545773
C3    C     C_R   0.155513 0.614170 0.385734 0.736795
O9    O     O_R   0.323880 0.594720 0.585980 -0.533480
C4    C     C_R   0.156442 0.612703 0.617885 0.795200
V2    V     V_3+5 0.435660 0.510750 0.500000 1.440782
O10   O     O_3   0.160630 0.442060 0.500000 -0.363055
C5    C     C_3   0.945373 0.672435 0.732733 0.250633
H1    H     H_    0.836816 0.689784 0.684618 0.035711
C6    C     C_3   0.928992 0.738925 0.810083 0.749121
H2    H     H_    0.057131 0.788279 0.611405 0.047802
H3    H     H_    0.059090 0.899699 0.711530 0.112223
C7    C     C_3   0.175027 0.776436 0.657188 0.219189
C8    C     C_3   0.298597 0.661301 0.761625 0.337223
C9    C     C_3   0.146173 0.679564 0.691142 -0.143697
H4    H     H_    0.440204 0.669369 0.732016 0.113786
C10   C     C_3   0.114759 0.801991 0.813860 -0.118758
C11   C     C_3   0.159540 0.846652 0.728901 -0.466561
C12   C     C_3   0.284251 0.737669 0.830901 -0.464535
H5    H     H_    0.273112 0.714559 0.895831 0.140523
H6    H     H_    0.417940 0.776909 0.831307 0.201418
H7    H     H_    0.291382 0.886831 0.734915 0.178985
C13   C     C_2   0.986981 0.706364 0.279850 -0.133104
C14   C     C_2   0.150319 0.681392 0.318281 -0.316361
H8    H     H_    0.852316 0.676922 0.299561 0.136008
H9    H     H_    0.286591 0.710051 0.300484 0.126027
C15   C     C_2   0.974692 0.773381 0.211338 -0.142496
C16   C     C_2   0.126728 0.812410 0.174833 -0.308625
H10   H     H_    0.831772 0.790537 0.190119 0.133351
H11   H     H_    0.270802 0.795538 0.193947 0.127852
C17   C     C_2   0.774862 0.190554 0.765011 0.398139
C18   C     C_2   0.620801 0.178718 0.815024 -0.449128
H12   H     H_    0.499247 0.223640 0.811058 0.096677
C19   C     C_2   0.793718 0.271063 0.709396 0.371481
C20   C     C_2   0.639965 0.310500 0.673926 -0.466767
H13   H     H_    0.496975 0.286556 0.687719 0.110009
C21   C     C_2   0.777192 0.202078 0.216809 -0.238172
C22   C     C_2   0.613430 0.174967 0.179593 -0.371439
H14   H     H_    0.911907 0.176276 0.193217 0.157935
H15   H     H_    0.476172 0.197222 0.202985 0.141408
C23   C     C_2   0.789693 0.263338 0.291528 0.446637
C24   C     C_2   0.642421 0.316555 0.316261 -0.389920
H16   H     H_    0.505716 0.312945 0.284419 0.112379
O11   O     O_R   0.770850 0.076180 0.907410 -0.502888
O12   O     O_R   0.440600 0.088970 0.079950 -0.547102
O13   O     O_R   0.270430 0.912340 0.080550 -0.546393
C25   C     C_R   0.609260 0.110125 0.108955 0.760380
O14   O     O_R   0.441120 0.087010 0.907980 -0.542333
O15   O     O_R   0.270950 0.910370 0.907350 -0.541883
C26   C     C_R   0.610267 0.107987 0.879338 0.809845
O16   O     O_R   0.770320 0.078150 0.080620 -0.541772
O17   O     O_3   0.604200 0.936340 0.994000 -0.385676
V3    V     V_3+5 0.329300 0.004970 0.993950 1.421260
O18   O     O_R   0.941240 0.899420 0.907920 -0.532829
C27   C     C_R   0.108795 0.874911 0.881468 0.739080
O19   O     O_R   0.940720 0.901380 0.079890 -0.553346
C28   C     C_R   0.110034 0.879674 0.107854 0.715999
V4    V     V_3+5 0.829310 0.983370 0.993880 1.437206
O20   O     O_3   0.104280 0.052120 0.993920 -0.362740
O21   O     O_3   0.357310 0.782969 0.618914 -0.543964
C29   C     C_3   0.353802 0.846334 0.554115 -0.265058
H17   H     H_    0.301731 0.913084 0.576237 0.125098
H18   H     H_    0.264483 0.821249 0.501265 0.132444
H19   H     H_    0.501784 0.855587 0.530933 0.151551
O22   O     O_3   0.930576 0.133393 0.772919 -0.531491
C30   C     C_3   0.966912 0.090307 0.695963 -0.239732
H20   H     H_    0.994625 0.138154 0.644760 0.166852
H21   H     H_    0.846963 0.044481 0.678376 0.100818
H22   H     H_    0.099071 0.050118 0.702595 0.141994
O23   O     O_3   0.975440 0.298044 0.685363 -0.540900
C31   C     C_3   0.075047 0.333138 0.754719 -0.161566
H23   H     H_    0.129727 0.278227 0.794603 0.151670
H24   H     H_    0.986076 0.380625 0.791903 0.138287
H25   H     H_    0.200072 0.371621 0.731790 0.177764
O24   O     O_3   0.924517 0.580907 0.756873 -0.517274
C32   C     C_3   0.733408 0.553318 0.754883 -0.096736
H26   H     H_    0.669984 0.559604 0.691691 0.120169
H27   H     H_    0.655051 0.592506 0.801523 0.149956
H28   H     H_    0.726238 0.481667 0.772597 0.122186
O25   O     O_3   0.964434 0.270750 0.332415 -0.538227
C33   C     C_3   0.005364 0.188878 0.372655 0.090867
H29   H     H_    0.050689 0.136903 0.326545 0.107885
H30   H     H_    0.879490 0.163493 0.408074 0.097713
C34   C     C_3   0.168487 0.203983 0.434297 -0.674773
H31   H     H_    0.125697 0.254094 0.482426 0.242436
H32   H     H_    0.204007 0.139697 0.465377 0.148432
H33   H     H_    0.297347 0.228935 0.401433 0.212046
O26   O     O_3   0.934231 0.682234 0.882051 -0.560973
C35   C     C_3   0.806365 0.703768 0.947286 0.134078
H34   H     H_    0.655962 0.706603 0.925424 0.138177
H35   H     H_    0.846480 0.767890 0.977922 0.156868
C36   C     C_3   0.817954 0.630729 0.012673 -0.801038
H36   H     H_    0.965675 0.627135 0.038197 0.225544
H37   H     H_    0.717725 0.646185 0.064295 0.184039
H38   H     H_    0.778719 0.564517 0.984575 0.233900
O27   O     O_3   0.750638 0.785981 0.807417 -0.594583
C37   C     C_3   0.729943 0.850909 0.744673 -0.360225
H39   H     H_    0.790221 0.831693 0.683776 0.122520
H40   H     H_    0.778947 0.917720 0.767505 0.176712
H41   H     H_    0.578437 0.858699 0.731532 0.198159
O28   O     O_3   0.282370 0.569266 0.788064 -0.539155
C38   C     C_3   0.320376 0.552977 0.873459 0.166259
H42   H     H_    0.192947 0.569824 0.911371 0.191871
H43   H     H_    0.444836 0.591624 0.897332 0.077027
C39   C     C_3   0.363169 0.453751 0.887145 -0.787648
H44   H     H_    0.450602 0.425696 0.835710 0.215231
H45   H     H_    0.442598 0.445518 0.946584 0.187569
H46   H     H_    0.227874 0.415153 0.891879 0.207674

loop_
_geom_bond_atom_site_label_1
_geom_bond_atom_site_label_2
_ccdc_geom_bond_type
O15   V3    S    
C34   H31   S    
C18   H12   S    
C38   H42   S    
C30   H20   S    
C39   H44   S    
O11   C26   A    
O14   V3    S    
C22   H15   S    
C32   H26   S    
C10   C11   S    
C36   H36   S    
C6    O26   S    
C13   C15   S    
C12   H5    S    
O5    C3    A    
O14   C26   A    
C37   H39   S    
C19   O23   S    
V2    O10   S    
O13   V3    S    
C4    C9    S    
C6    C10   S    
C10   C27   S    
O28   C38   S    
C5    C6    S    
O8    V2    S    
C17   C19   S    
O16   V4    S    
O19   V4    S    
C8    C9    S    
C29   H17   S    
O1    V2    S    
O7    V1    S    
C7    O21   S    
C1    O6    A    
H3    C11   S    
C36   H37   S    
O9    C4    A    
O17   V3    S    
C31   H25   S    
O26   C35   S    
O18   V4    S    
C32   H27   S    
O15   C27   A    
O12   C25   A    
C5    C9    S    
O22   C30   S    
C11   H7    S    
V4    O20   S    
O24   C32   S    
C18   C26   S    
C31   H24   S    
O25   C33   S    
O4    C2    A    
O12   V3    S    
C23   C24   D    
O18   C27   A    
C24   H16   S    
C13   H8    S    
O2    C1    A    
C19   C20   D    
O17   V4    S    
C23   O25   S    
C33   H30   S    
C16   C28   S    
C29   H19   S    
C5    H1    S    
C38   H43   S    
C8    C12   S    
C30   H21   S    
O3    C4    A    
C6    O27   S    
C17   C18   D    
H2    C7    S    
C35   H34   S    
C34   H33   S    
C35   H35   S    
C7    C11   S    
O9    V2    S    
C7    C9    S    
O2    V1    S    
O13   C28   A    
C20   H13   S    
C33   C34   S    
C32   H28   S    
C8    O28   S    
C21   C22   D    
C15   C16   D    
O1    C2    A    
C31   H23   S    
O5    V1    S    
C39   H45   S    
O8    C3    A    
O6    V2    S    
C35   C36   S    
C1    C20   S    
O27   C37   S    
C21   C23   S    
C10   C12   S    
V3    O20   S    
C5    O24   S    
C13   C14   D    
C12   H6    S    
O7    V2    S    
C2    C24   S    
O4    V1    S    
C16   H11   S    
O3    V1    S    
V1    O10   S    
C33   H29   S    
C37   H40   S    
C15   H10   S    
C14   H9    S    
C17   O22   S    
C38   C39   S    
C8    H4    S    
O21   C29   S    
O11   V4    S    
C30   H22   S    
C39   H46   S    
O23   C31   S    
C21   H14   S    
C25   O16   A    
C34   H32   S    
O19   C28   A    
C29   H18   S    
C36   H38   S    
C3    C14   S    
C22   C25   S    
C37   H41   S    
