data_mof_unit_8330.cif
_audit_creation_date              2012-12-11T15:27:22-0500
_audit_creation_method            fapswitch 2.2
_symmetry_space_group_name_H-M    P1
_symmetry_Int_Tables_number       1
_space_group_crystal_system       triclinic
_cell_length_a                    13.840049
_cell_length_b                    13.953028
_cell_length_c                    27.447224
_cell_angle_alpha                 89.917548
_cell_angle_beta                  90.020451
_cell_angle_gamma                 119.944931
_cell_volume                      4592.7773504

loop_
_atom_site_label
_atom_site_type_symbol
_atom_type_description
_atom_site_fract_x
_atom_site_fract_y
_atom_site_fract_z
_atom_type_partial_charge
C1    C     C_R   0.233300 0.787229 0.568396 0.538206
C2    C     C_1   0.708763 0.869626 0.858457 -0.061844
C3    C     C_3   0.920872 0.459406 0.689053 -0.363955
C4    C     C_3   0.419656 0.439188 0.702162 0.021538
C5    C     C_3   0.535873 0.472484 0.683705 -0.366006
C6    C     C_3   0.699518 0.108650 0.829244 -0.009154
C7    C     C_3   0.743360 0.210483 0.796499 -0.381107
C8    C     C_3   0.876190 0.615695 0.828856 -0.005800
C9    C     C_3   0.772952 0.546819 0.797674 -0.385974
C10   C     C_3   0.389439 0.280647 0.828835 -0.008096
C11   C     C_3   0.459236 0.248455 0.797060 -0.382611
C12   C     C_1   0.109434 0.870248 0.851950 -0.064417
C13   C     C_1   0.124970 0.239218 0.851776 -0.064761
C14   C     C_1   0.634824 0.821253 0.657316 -0.053273
C15   C     C_1   0.171523 0.814746 0.655275 -0.054622
C16   C     C_1   0.179580 0.355386 0.655002 -0.053641
C17   C     C_1   0.605163 0.799464 0.615520 -0.016318
C18   C     C_1   0.196682 0.805210 0.614374 -0.016591
C19   C     C_1   0.191874 0.390378 0.614091 -0.015238
C20   C     C_R   0.071828 0.164105 0.941501 0.530761
C21   C     C_R   0.212048 0.445564 0.568267 0.540116
C22   C     C_R   0.780099 0.887416 0.948730 0.528616
C23   C     C_R   0.091783 0.927581 0.941518 0.528500
C24   C     C_R   0.581310 0.787321 0.380293 0.042860
C25   C     C_R   0.196997 0.800533 0.383269 0.023819
C26   C     C_R   0.197494 0.394013 0.383802 0.021930
C27   C     C_R   0.685911 0.870261 0.364566 -0.140358
C28   C     C_R   0.131582 0.705338 0.355296 -0.128789
C29   C     C_R   0.292728 0.418630 0.356288 -0.140224
C30   C     C_R   0.706740 0.887866 0.314695 -0.127804
C31   C     C_R   0.118804 0.714365 0.305899 -0.129554
C32   C     C_R   0.553678 0.765982 0.568582 0.536665
C33   C     C_R   0.283630 0.396884 0.306887 -0.137623
C34   C     C_R   0.622473 0.823126 0.281048 0.059557
C35   C     C_R   0.168253 0.818629 0.283980 0.067004
C36   C     C_R   0.178837 0.345992 0.284577 0.066620
C37   C     C_R   0.233555 0.786611 0.431164 0.541659
C38   C     C_R   0.212910 0.446488 0.431259 0.538859
C39   C     C_R   0.552526 0.765497 0.431176 0.532753
C40   C     C_R   0.516826 0.743323 0.297293 -0.059253
C41   C     C_R   0.225743 0.914421 0.312486 -0.073965
C42   C     C_R   0.082424 0.311233 0.312893 -0.077846
C43   C     C_3   0.763832 0.822523 0.781399 -0.286199
C44   C     C_R   0.496544 0.725356 0.346725 -0.113906
C45   C     C_R   0.241709 0.905404 0.361949 -0.130373
C46   C     C_R   0.091805 0.337081 0.362240 -0.137147
C47   C     C_R   0.633341 0.743966 0.201654 0.262742
C48   C     C_R   0.254055 0.897394 0.203305 0.267333
C49   C     C_R   0.100682 0.353474 0.203425 0.267159
C50   C     C_R   0.667648 0.760774 0.152887 -0.155618
C51   C     C_R   0.239310 0.909758 0.153598 -0.154422
C52   C     C_R   0.090004 0.327923 0.153591 -0.153192
C53   C     C_R   0.723389 0.955962 0.158743 0.242748
C54   C     C_3   0.161229 0.957964 0.772088 -0.289200
C55   C     C_R   0.041563 0.773307 0.159515 0.244625
C56   C     C_R   0.226262 0.266650 0.160034 0.243931
C57   C     C_R   0.689384 0.939345 0.207470 -0.152121
C58   C     C_R   0.055362 0.763141 0.209188 -0.157582
C59   C     C_R   0.235006 0.289153 0.209790 -0.156052
C60   C     C_R   0.646356 0.834983 0.228929 0.005221
C61   C     C_R   0.159738 0.826455 0.231232 0.008719
C62   C     C_R   0.171266 0.329854 0.231712 0.007593
C63   C     C_R   0.718723 0.866965 0.132419 -0.008983
C64   C     C_R   0.132762 0.854120 0.132701 -0.007400
C65   C     C_3   0.035511 0.198164 0.771635 -0.289339
C66   C     C_R   0.146155 0.277756 0.132849 -0.008564
C67   C     C_R   0.107227 0.222320 0.085956 0.592102
C68   C     C_R   0.778892 0.885345 0.086412 0.583605
C69   C     C_R   0.115552 0.893286 0.085957 0.591812
C70   C     C_3   0.546208 0.762239 0.738534 -0.228982
C71   C     C_3   0.226176 0.797890 0.739541 -0.229408
C72   C     C_3   0.191224 0.425896 0.739060 -0.229020
C73   C     C_3   0.706771 0.963616 0.725801 0.228286
C74   C     C_3   0.023522 0.751597 0.721724 0.230338
C75   C     C_3   0.245919 0.276757 0.722089 0.229914
C76   C     C_3   0.741418 0.803818 0.725932 -0.276595
C77   C     C_3   0.716096 0.975417 0.782789 0.225126
C78   C     C_3   0.007970 0.757483 0.778108 0.222701
C79   C     C_3   0.241361 0.258492 0.778550 0.224404
C80   C     C_1   0.735069 0.875581 0.900675 -0.035736
C81   C     C_1   0.102494 0.895496 0.893195 -0.029954
C82   C     C_1   0.102492 0.206823 0.893119 -0.032001
C83   C     C_3   0.655871 0.838933 0.710087 0.037052
C84   C     C_3   0.150022 0.824266 0.706944 0.037228
C85   C     C_3   0.168892 0.324884 0.706719 0.036035
C86   C     C_3   0.565096 0.775455 0.794256 -0.206297
C87   C     C_3   0.183378 0.945908 0.717883 -0.276081
C88   C     C_3   0.209312 0.812418 0.794242 -0.201885
C89   C     C_3   0.173923 0.394121 0.793759 -0.200205
C90   C     C_3   0.687927 0.861640 0.805572 0.058301
C91   C     C_3   0.120690 0.848325 0.800448 0.056455
C92   C     C_3   0.144831 0.272390 0.800273 0.056109
C93   C     C_3   0.650343 0.589132 0.215769 -0.008012
C94   C     C_3   0.621697 0.500861 0.254482 -0.384654
C95   C     C_3   0.425131 0.059053 0.211406 -0.021459
C96   C     C_3   0.515129 0.119319 0.249591 -0.383295
C97   C     C_3   0.936785 0.360309 0.210615 -0.022038
C98   C     C_3   0.047214 0.233041 0.717411 -0.275144
C99   C     C_3   0.874400 0.389755 0.247815 -0.389506
C100  C     C_3   0.697882 0.101160 0.137897 -0.016448
C101  C     C_3   0.737057 0.194302 0.100810 -0.364944
C102  C     C_3   0.895996 0.600148 0.141976 -0.016861
C103  C     C_3   0.807235 0.540657 0.103234 -0.366921
C104  C     C_3   0.400812 0.297406 0.141479 -0.014709
C105  C     C_3   0.461339 0.263779 0.105118 -0.367296
C106  C     C_3   0.551139 0.981971 0.700205 0.023388
C107  C     C_3   0.524198 0.068818 0.681754 -0.364463
C108  C     C_3   0.008020 0.576142 0.703886 0.024670
Cr1   Cr    Cr6+3 0.164410 0.584450 0.499910 1.018611
Cr2   Cr    Cr6+3 0.415550 0.579960 0.499910 1.018427
Cr3   Cr    Cr6+3 0.420040 0.835590 0.499910 1.025268
Cr4   Cr    Cr6+3 0.156760 0.076070 0.017830 1.035227
Cr5   Cr    Cr6+3 0.923930 0.080690 0.017830 1.027472
Cr6   Cr    Cr6+3 0.919310 0.843240 0.017830 1.034667
H1    H     H_    0.508006 0.800925 0.810794 0.151356
H2    H     H_    0.852833 0.885798 0.787459 0.088210
H3    H     H_    0.408168 0.192757 0.767144 0.162388
H4    H     H_    0.530367 0.323665 0.781049 0.154963
H5    H     H_    0.492385 0.205131 0.819557 0.089554
H6    H     H_    0.821145 0.851845 0.705594 0.104133
H7    H     H_    0.135531 0.972790 0.694450 0.106923
H8    H     H_    0.023064 0.159622 0.693838 0.109181
H9    H     H_    0.749090 0.744305 0.798726 0.129892
H10   H     H_    0.239807 0.023086 0.788879 0.126876
H11   H     H_    0.966152 0.205279 0.788212 0.125483
H12   H     H_    0.097309 0.983900 0.774693 0.085940
H13   H     H_    0.013567 0.109946 0.774175 0.086776
H14   H     H_    0.750792 0.919646 0.390548 0.104290
H15   H     H_    0.097132 0.623101 0.370641 0.144717
H16   H     H_    0.375570 0.462847 0.371920 0.139237
H17   H     H_    0.659008 0.692030 0.131345 0.123303
H18   H     H_    0.309710 0.965481 0.131318 0.117534
H19   H     H_    0.034960 0.343138 0.131017 0.117417
H20   H     H_    0.788782 0.950005 0.302283 0.109312
H21   H     H_    0.183598 0.733673 0.814043 0.154882
H22   H     H_    0.074462 0.639695 0.284453 0.127582
H23   H     H_    0.359023 0.424282 0.285774 0.121324
H24   H     H_    0.700224 0.008700 0.229254 0.105369
H25   H     H_    0.983190 0.709275 0.231089 0.103175
H26   H     H_    0.288250 0.270071 0.231783 0.103932
H27   H     H_    0.450670 0.694376 0.271710 0.157054
H28   H     H_    0.260920 0.995778 0.296197 0.125740
H29   H     H_    0.000374 0.267270 0.296558 0.126947
H30   H     H_    0.476729 0.775997 0.728312 0.087396
H31   H     H_    0.213543 0.714170 0.732990 0.087358
H32   H     H_    0.250553 0.450574 0.814548 0.155131
H33   H     H_    0.275702 0.497646 0.733411 0.090873
H34   H     H_    0.805294 0.034603 0.791280 0.050403
H35   H     H_    0.945815 0.785248 0.782920 0.053409
H36   H     H_    0.218792 0.171264 0.784481 0.053449
H37   H     H_    0.709943 0.715384 0.717488 0.134382
H38   H     H_    0.272944 0.002424 0.709683 0.136106
H39   H     H_    0.987954 0.262674 0.709113 0.138377
H40   H     H_    0.741535 0.649483 0.218236 0.150065
H41   H     H_    0.630459 0.547624 0.179703 0.120859
H42   H     H_    0.532337 0.436514 0.251782 0.137316
H43   H     H_    0.516860 0.674695 0.728744 0.099145
H44   H     H_    0.673308 0.461195 0.249099 0.083881
H45   H     H_    0.638405 0.538716 0.291312 0.166630
H46   H     H_    0.375218 0.101595 0.208617 0.142995
H47   H     H_    0.467151 0.064971 0.176153 0.118187
H48   H     H_    0.567262 0.079756 0.253281 0.157552
H49   H     H_    0.569130 0.207012 0.238557 0.080272
H50   H     H_    0.476403 0.116733 0.285354 0.153052
H51   H     H_    0.894391 0.268284 0.208340 0.145192
H52   H     H_    0.931411 0.395170 0.174977 0.120334
H53   H     H_    0.911103 0.480840 0.249625 0.141668
H54   H     H_    0.314752 0.855261 0.729955 0.098903
H55   H     H_    0.785496 0.352021 0.236981 0.084252
H56   H     H_    0.879117 0.358092 0.284357 0.151854
H57   H     H_    0.695179 0.134769 0.174242 0.113857
H58   H     H_    0.612042 0.035774 0.127326 0.124388
H59   H     H_    0.738194 0.162624 0.063838 0.156671
H60   H     H_    0.679538 0.228176 0.100798 0.076880
H61   H     H_    0.822278 0.261563 0.110014 0.141997
H62   H     H_    0.857289 0.569304 0.178298 0.112023
H63   H     H_    0.962781 0.578692 0.136063 0.127062
H64   H     H_    0.844461 0.567414 0.066412 0.156044
H65   H     H_    0.133028 0.455513 0.728539 0.099651
H66   H     H_    0.772209 0.449952 0.106705 0.076978
H67   H     H_    0.738954 0.559844 0.107551 0.143911
H68   H     H_    0.433371 0.297252 0.178497 0.112040
H69   H     H_    0.420314 0.383137 0.132108 0.129599
H70   H     H_    0.432788 0.266262 0.067556 0.156597
H71   H     H_    0.552553 0.321711 0.107501 0.077714
H72   H     H_    0.444210 0.178710 0.113064 0.140556
H73   H     H_    0.414195 0.663455 0.358980 0.116387
H74   H     H_    0.292103 0.979603 0.383019 0.121867
H75   H     H_    0.017370 0.316596 0.382987 0.119968
H76   H     H_    0.543838 0.694110 0.810548 0.111983
H77   H     H_    0.794956 0.003857 0.713073 0.094052
H78   H     H_    0.983119 0.795962 0.705354 0.093106
H79   H     H_    0.203475 0.191548 0.706633 0.094569
H80   H     H_    0.511279 0.953071 0.736326 0.173740
H81   H     H_    0.514748 0.913236 0.673573 0.132888
H82   H     H_    0.571390 0.107202 0.647758 0.174790
H83   H     H_    0.433992 0.029536 0.673513 0.095141
H84   H     H_    0.546339 0.134085 0.709620 0.143609
H85   H     H_    0.036782 0.572227 0.741142 0.174290
H86   H     H_    0.077928 0.604376 0.677651 0.130767
H87   H     H_    0.290078 0.875901 0.810280 0.114472
H88   H     H_    0.885934 0.460642 0.652769 0.172854
H89   H     H_    0.959433 0.406575 0.686719 0.088344
H90   H     H_    0.852281 0.423364 0.716187 0.147649
H91   H     H_    0.427544 0.473238 0.739326 0.175149
H92   H     H_    0.385805 0.477196 0.676976 0.130000
H93   H     H_    0.530271 0.429623 0.648853 0.177595
H94   H     H_    0.583229 0.562735 0.676865 0.095630
H95   H     H_    0.581068 0.450557 0.710897 0.141131
H96   H     H_    0.767729 0.111979 0.852086 0.116406
H97   H     H_    0.638783 0.110521 0.855088 0.144673
H98   H     H_    0.105277 0.405366 0.808489 0.111464
H99   H     H_    0.672744 0.212497 0.778375 0.154140
H100  H     H_    0.789885 0.286563 0.818725 0.089316
H101  H     H_    0.799949 0.209417 0.768174 0.163560
H102  H     H_    0.870789 0.683554 0.847719 0.116350
H103  H     H_    0.877810 0.561573 0.858156 0.148619
H104  H     H_    0.772299 0.594934 0.765586 0.165830
H105  H     H_    0.772130 0.471060 0.784806 0.149083
H106  H     H_    0.696615 0.522045 0.819594 0.090801
H107  H     H_    0.324688 0.207632 0.849254 0.116483
H108  H     H_    0.445215 0.339873 0.856804 0.147042
O1    O     O_R   0.137310 0.468260 0.552980 -0.511295
O2    O     O_R   0.139940 0.470480 0.446230 -0.520575
O3    O     O_R   0.529520 0.669460 0.446230 -0.517433
O4    O     O_R   0.330540 0.860060 0.446230 -0.510703
O5    O     O_R   0.176560 0.690850 0.450770 -0.508987
O6    O     O_R   0.309150 0.485710 0.450770 -0.509174
O7    O     O_R   0.514290 0.823440 0.450770 -0.494294
O8    O     O_3   0.333333 0.666667 0.499990 -0.268722
O9    O     O_3   0.000000 0.000000 0.017910 -0.269448
O10   O     O_R   0.149710 0.171070 0.967700 -0.511701
O11   O     O_R   0.828930 0.978640 0.967700 -0.526535
O12   O     O_R   0.531740 0.669050 0.552980 -0.509671
O13   O     O_R   0.021360 0.850290 0.967700 -0.494966
O14   O     O_R   0.178510 0.985930 0.071830 -0.501512
O15   O     O_R   0.014070 0.192580 0.071830 -0.500979
O16   O     O_R   0.807420 0.821490 0.071830 -0.503418
O17   O     O_R   0.147830 0.173300 0.066650 -0.435804
O18   O     O_R   0.826700 0.974530 0.066650 -0.441320
O19   O     O_R   0.025470 0.852170 0.066650 -0.433522
O20   O     O_3   0.585276 0.640057 0.223458 -0.567312
O21   O     O_3   0.358876 0.946847 0.225147 -0.551234
O22   O     O_3   0.049646 0.407282 0.224963 -0.556780
O23   O     O_R   0.330950 0.862690 0.552980 -0.512017
O24   O     O_3   0.773665 0.061075 0.138488 -0.535416
O25   O     O_3   0.936786 0.715197 0.138360 -0.534075
O26   O     O_3   0.285162 0.220870 0.139170 -0.535296
O27   O     O_3   0.668025 0.029534 0.702419 -0.553106
O28   O     O_3   0.959285 0.643888 0.701201 -0.551767
O29   O     O_3   0.354613 0.322729 0.701300 -0.553720
O30   O     O_3   0.642784 0.010296 0.801520 -0.563244
O31   O     O_3   0.974355 0.653656 0.800710 -0.562193
O32   O     O_3   0.344492 0.334431 0.800812 -0.563903
O33   O     O_R   0.180530 0.983530 0.965090 -0.516580
O34   O     O_R   0.016470 0.197000 0.965090 -0.507260
O35   O     O_R   0.803000 0.819470 0.965090 -0.524663
O36   O     O_R   0.174120 0.688790 0.549730 -0.496266
O37   O     O_R   0.311210 0.485330 0.549730 -0.495927
O38   O     O_R   0.514670 0.825880 0.549730 -0.497318

loop_
_geom_bond_atom_site_label_1
_geom_bond_atom_site_label_2
_ccdc_geom_bond_type
C58   H25   S    
C9    H104  S    
C65   C92   S    
C104  H68   S    
C94   H45   S    
C3    H90   S    
C20   C82   S    
C100  H58   S    
C3    H89   S    
C6    C7    S    
C12   C91   S    
C36   C42   A    
C95   C96   S    
C24   C27   A    
C11   H5    S    
C24   C39   S    
C72   C85   S    
Cr1   O5    S    
C4    H91   S    
C106  H80   S    
C99   H56   S    
C32   O12   A    
C25   C28   A    
Cr5   O11   S    
C56   O26   S    
C1    C18   S    
C76   H6    S    
Cr4   O9    S    
Cr2   O37   S    
C34   C40   A    
C65   H13   S    
C106  O27   S    
C38   O6    A    
C93   H40   S    
C19   C21   S    
C69   O14   A    
C102  H63   S    
C65   C98   S    
C39   O7    A    
C93   O20   S    
C95   H47   S    
C54   C87   S    
C75   O29   S    
C106  C107  S    
C25   C45   A    
C102  H62   S    
C97   H52   S    
C29   C33   A    
C8    O31   S    
C31   H22   S    
C33   C36   A    
C98   H8    S    
C103  H66   S    
C42   C46   A    
C1    O36   A    
C38   O2    A    
Cr1   O36   S    
C2    C90   S    
C53   O24   S    
C104  C105  S    
C85   C98   S    
Cr2   O8    S    
C10   H107  S    
C74   O28   S    
C47   C60   A    
C101  H59   S    
C75   C85   S    
Cr5   O18   S    
C33   H23   S    
C8    C9    S    
C104  O26   S    
C25   C37   S    
C57   H24   S    
C84   C87   S    
Cr5   O9    S    
C8    H103  S    
C5    H94   S    
C88   H87   S    
C89   H98   S    
C23   C81   S    
C10   H108  S    
C99   H53   S    
Cr1   O1    S    
Cr6   O16   S    
C23   O13   A    
C9    H105  S    
C58   C61   A    
Cr5   O15   S    
C66   C67   S    
Cr2   O6    S    
C98   H39   S    
C94   H44   S    
Cr5   O34   S    
C55   O25   S    
C40   H27   S    
C27   C30   A    
C34   C60   S    
C52   H19   S    
C78   O31   S    
C14   C17   T    
Cr6   O35   S    
C101  H60   S    
C56   C66   A    
C14   C83   S    
C48   O21   S    
C36   C62   S    
Cr3   O8    S    
C76   C83   S    
C107  H82   S    
C97   C99   S    
C20   O34   A    
C47   C50   A    
C73   O27   S    
C48   C51   A    
C22   O35   A    
C89   H32   S    
C15   C18   T    
C77   C90   S    
C86   H76   S    
C43   C90   S    
C17   C32   S    
C30   C34   A    
C95   H46   S    
C7    H100  S    
C93   H41   S    
C2    C80   T    
C88   H21   S    
C23   O33   A    
C68   O18   A    
Cr6   O9    S    
C107  H83   S    
C53   C57   A    
C21   O37   A    
Cr4   O33   S    
C6    H97   S    
C76   H37   S    
C30   H20   S    
Cr4   O14   S    
C27   H14   S    
C13   C82   T    
C67   O15   A    
C96   H50   S    
C108  O28   S    
C86   H1    S    
C65   H11   S    
C105  H72   S    
C108  H86   S    
C43   H2    S    
C5    H93   S    
C22   O11   A    
C54   H12   S    
Cr1   O8    S    
C29   H16   S    
C88   C91   S    
C32   O38   A    
Cr3   O23   S    
C49   C52   A    
C55   C64   A    
Cr6   O19   S    
C51   C64   A    
C35   C61   S    
C77   O30   S    
C73   H77   S    
C64   C69   S    
C89   C92   S    
C70   C83   S    
C77   H34   S    
C79   C92   S    
C7    H99   S    
Cr1   O2    S    
C79   H36   S    
C74   H78   S    
C71   H54   S    
C75   H79   S    
C9    H106  S    
C37   O4    A    
C71   H31   S    
C24   C44   A    
C40   C44   A    
C20   O10   A    
C13   C92   S    
C86   C90   S    
C16   C85   S    
Cr3   O7    S    
C31   C35   A    
C101  H61   S    
Cr6   O13   S    
C54   C91   S    
C11   H3    S    
C43   H9    S    
Cr3   O38   S    
C49   O22   S    
C52   C66   A    
C87   H7    S    
C71   C84   S    
C43   C76   S    
C28   H15   S    
C54   H10   S    
C63   C68   S    
C59   C62   A    
C73   C77   S    
C49   C62   A    
C21   O1    A    
C103  H67   S    
Cr3   O4    S    
C70   H30   S    
C28   C31   A    
C26   C38   S    
C102  O25   S    
C4    O29   S    
C74   C84   S    
C4    C5    S    
C8    H102  S    
Cr2   O3    S    
C47   O20   S    
C51   H18   S    
C96   H49   S    
C45   H74   S    
C4    H92   S    
C15   C84   S    
C6    H96   S    
C3    C108  S    
C72   H33   S    
C5    H95   S    
C93   C94   S    
C105  H71   S    
Cr4   O10   S    
C56   C59   A    
C6    O30   S    
C87   H38   S    
C70   H43   S    
C10   C11   S    
C103  H64   S    
C108  H85   S    
C57   C60   A    
C106  H81   S    
C22   C80   S    
C41   H28   S    
C68   O16   A    
C97   O22   S    
C72   C89   S    
C53   C63   A    
C69   O19   A    
C48   C61   A    
C59   H26   S    
C16   C19   T    
C97   H51   S    
C67   O17   A    
C100  C101  S    
C79   O32   S    
C96   H48   S    
C12   C81   T    
C50   C63   A    
C105  H70   S    
C102  C103  S    
C35   C41   A    
Cr4   O17   S    
C39   O3    A    
C107  H84   S    
C100  O24   S    
C50   H17   S    
C26   C46   A    
C44   H73   S    
C71   C88   S    
C99   H55   S    
C37   O5    A    
C104  H69   S    
C26   C29   A    
C94   H42   S    
C74   C78   S    
C55   C58   A    
C42   H29   S    
C3    H88   S    
C41   C45   A    
C78   C91   S    
C1    O23   A    
C46   H75   S    
C72   H65   S    
C10   O32   S    
C11   H4    S    
C75   C79   S    
C73   C83   S    
C7    H101  S    
Cr2   O12   S    
C78   H35   S    
C95   O21   S    
C100  H57   S    
C70   C86   S    
