data_mof_unit_64447.cif
_audit_creation_date              2012-12-11T15:15:58-0500
_audit_creation_method            fapswitch 2.2
_symmetry_space_group_name_H-M    P1
_symmetry_Int_Tables_number       1
_space_group_crystal_system       triclinic
_cell_length_a                    14.101345
_cell_length_b                    14.101359
_cell_length_c                    28.045109
_cell_angle_alpha                 89.999962
_cell_angle_beta                  89.999975
_cell_angle_gamma                 120.000164
_cell_volume                      4829.57098337

loop_
_atom_site_label
_atom_site_type_symbol
_atom_type_description
_atom_site_fract_x
_atom_site_fract_y
_atom_site_fract_z
_atom_type_partial_charge
C1    C     C_R   0.566947 0.452921 0.567132 0.554593
C2    C     C_3   0.488883 0.967289 0.207019 0.057415
C3    C     C_3   0.478410 0.511112 0.207017 0.057413
C4    C     C_3   0.032706 0.521596 0.207018 0.057411
C5    C     C_3   0.908716 0.403338 0.774365 -0.122154
C6    C     C_3   0.596678 0.505425 0.774363 -0.122152
C7    C     C_3   0.494581 0.091269 0.774365 -0.122150
C8    C     C_3   0.403322 0.908724 0.274365 -0.122153
C9    C     C_3   0.505378 0.596661 0.274364 -0.122155
C10   C     C_3   0.091262 0.494587 0.274363 -0.122153
C11   C     C_3   0.880682 0.477368 0.743514 -0.133099
C12   C     C_R   0.547079 0.114026 0.567132 0.554593
C13   C     C_3   0.522680 0.403342 0.743517 -0.133103
C14   C     C_3   0.596663 0.119351 0.743518 -0.133103
C15   C     C_3   0.477333 0.880660 0.243517 -0.133103
C16   C     C_3   0.403313 0.522632 0.243515 -0.133101
C17   C     C_3   0.119337 0.596666 0.243516 -0.133103
C18   C     C_1   0.023892 0.516301 0.850073 -0.047520
C19   C     C_1   0.483699 0.507589 0.850074 -0.047517
C20   C     C_1   0.492416 0.976121 0.850076 -0.047518
C21   C     C_1   0.516297 0.023882 0.350075 -0.047520
C22   C     C_1   0.507589 0.483697 0.350073 -0.047521
C23   C     C_R   0.885974 0.433053 0.567132 0.554593
C24   C     C_1   0.976112 0.492413 0.350074 -0.047519
C25   C     C_1   0.949952 0.477012 0.655784 -0.003047
C26   C     C_1   0.522985 0.472934 0.655784 -0.003050
C27   C     C_1   0.527065 0.050057 0.655786 -0.003044
C28   C     C_1   0.477010 0.949945 0.155785 -0.003045
C29   C     C_1   0.472939 0.522987 0.155784 -0.003048
C30   C     C_1   0.050051 0.527065 0.155784 -0.003049
C31   C     C_R   0.566165 0.454005 0.434700 0.554374
C32   C     C_R   0.545994 0.112159 0.434700 0.554375
C33   C     C_R   0.887840 0.433835 0.434700 0.554374
C34   C     C_R   0.452922 0.566947 0.067132 0.554593
C35   C     C_R   0.454006 0.566165 0.934700 0.554375
C36   C     C_R   0.112160 0.545995 0.934700 0.554374
C37   C     C_R   0.433835 0.887841 0.934700 0.554375
C38   C     C_3   0.055390 0.591024 0.732396 0.129681
C39   C     C_3   0.408955 0.464307 0.732399 0.129677
C40   C     C_3   0.535692 0.944657 0.732402 0.129687
C41   C     C_3   0.591032 0.055359 0.232400 0.129688
C42   C     C_3   0.464361 0.408973 0.232396 0.129684
C43   C     C_3   0.944642 0.535683 0.232399 0.129681
C44   C     C_3   0.969982 0.580610 0.769711 -0.091649
C45   C     C_R   0.114026 0.547078 0.067132 0.554593
C46   C     C_3   0.419422 0.389348 0.769716 -0.091648
C47   C     C_3   0.610656 0.030085 0.769718 -0.091647
C48   C     C_3   0.580586 0.969938 0.269716 -0.091650
C49   C     C_3   0.389368 0.419389 0.269712 -0.091651
C50   C     C_3   0.030066 0.610650 0.269715 -0.091650
C51   C     C_1   0.057609 0.527529 0.890097 -0.003094
C52   C     C_1   0.472471 0.530080 0.890098 -0.003093
C53   C     C_1   0.469924 0.942398 0.890099 -0.003094
C54   C     C_1   0.527526 0.057604 0.390099 -0.003095
C55   C     C_1   0.530080 0.472471 0.390097 -0.003095
C56   C     C_R   0.433052 0.885974 0.067132 0.554593
C57   C     C_1   0.942393 0.469921 0.390098 -0.003094
C58   C     C_1   0.927864 0.461497 0.614240 0.024041
C59   C     C_1   0.538502 0.466365 0.614240 0.024039
C60   C     C_1   0.533635 0.072140 0.614241 0.024042
C61   C     C_1   0.461495 0.927861 0.114241 0.024041
C62   C     C_1   0.466367 0.538503 0.114240 0.024040
C63   C     C_1   0.072137 0.533634 0.114240 0.024039
C64   C     C_3   0.083836 0.517714 0.762934 -0.067305
C65   C     C_3   0.482232 0.566082 0.762933 -0.067306
C66   C     C_3   0.433919 0.916163 0.762936 -0.067305
C67   C     C_3   0.967298 0.488886 0.707017 0.057413
C68   C     C_3   0.517741 0.083835 0.262936 -0.067304
C69   C     C_3   0.566118 0.482282 0.262934 -0.067304
C70   C     C_3   0.916155 0.433912 0.262934 -0.067304
C71   C     C_3   0.997492 0.506167 0.799570 0.022445
C72   C     C_3   0.493832 0.491321 0.799570 0.022447
C73   C     C_3   0.508684 0.002525 0.799573 0.022445
C74   C     C_3   0.506163 0.997480 0.299572 0.022444
C75   C     C_3   0.491323 0.493831 0.299570 0.022444
C76   C     C_3   0.002513 0.508681 0.299571 0.022446
C77   C     C_3   0.994672 0.414733 0.737026 -0.099307
C78   C     C_3   0.511110 0.478404 0.707018 0.057409
C79   C     C_3   0.585230 0.579949 0.737022 -0.099303
C80   C     C_3   0.420052 0.005294 0.737025 -0.099301
C81   C     C_3   0.414750 0.994692 0.237026 -0.099305
C82   C     C_3   0.579937 0.585263 0.237026 -0.099308
C83   C     C_3   0.005292 0.420054 0.237023 -0.099305
C84   C     C_3   0.521596 0.032715 0.707020 0.057415
Cr1   Cr    Cr6+3 0.504830 0.254570 0.500510 1.053700
Cr2   Cr    Cr6+3 0.745430 0.250260 0.500510 1.053702
Cr3   Cr    Cr6+3 0.749740 0.495170 0.500510 1.053697
Cr4   Cr    Cr6+3 0.254570 0.504830 0.000510 1.053697
Cr5   Cr    Cr6+3 0.250260 0.745430 0.000510 1.053699
Cr6   Cr    Cr6+3 0.495170 0.749740 0.000510 1.053701
H1    H     H_    0.959864 0.648566 0.783829 0.127503
H2    H     H_    0.460419 0.796871 0.234629 0.107959
H3    H     H_    0.336422 0.539522 0.234627 0.107964
H4    H     H_    0.203130 0.663536 0.234629 0.107959
H5    H     H_    0.848250 0.326390 0.792315 0.117243
H6    H     H_    0.673642 0.521951 0.792310 0.117249
H7    H     H_    0.478059 0.151710 0.792312 0.117246
H8    H     H_    0.326364 0.848274 0.292313 0.117244
H9    H     H_    0.521863 0.673609 0.292314 0.117243
H10   H     H_    0.151706 0.478070 0.292312 0.117246
H11   H     H_    0.004341 0.346488 0.722950 0.153185
H12   H     H_    0.351494 0.311260 0.783837 0.127500
H13   H     H_    0.653450 0.657876 0.722943 0.153204
H14   H     H_    0.342123 0.995585 0.722947 0.153190
H15   H     H_    0.346521 0.004388 0.222948 0.153181
H16   H     H_    0.657853 0.653507 0.222950 0.153180
H17   H     H_    0.995591 0.342129 0.222945 0.153193
H18   H     H_    0.167807 0.535386 0.771905 0.150129
H19   H     H_    0.464519 0.632354 0.771900 0.150125
H20   H     H_    0.367646 0.832178 0.771906 0.150127
H21   H     H_    0.535440 0.167815 0.271907 0.150131
H22   H     H_    0.632415 0.464607 0.271905 0.150131
H23   H     H_    0.688744 0.040244 0.783838 0.127502
H24   H     H_    0.832171 0.367635 0.271903 0.150128
H25   H     H_    0.648524 0.959794 0.283835 0.127502
H26   H     H_    0.311293 0.351435 0.283830 0.127502
H27   H     H_    0.040218 0.688735 0.283836 0.127499
H28   H     H_    0.796901 0.460480 0.734627 0.107963
H29   H     H_    0.539611 0.336477 0.734631 0.107958
H30   H     H_    0.663529 0.203145 0.734630 0.107955
I1    I     I_    0.170151 0.737612 0.696709 -0.394402
I2    I     I_    0.262331 0.432390 0.696719 -0.394404
I3    I     I_    0.567597 0.829940 0.696722 -0.394420
I4    I     I_    0.737642 0.170091 0.196718 -0.394404
I5    I     I_    0.432527 0.262384 0.196709 -0.394390
I6    I     I_    0.829925 0.567582 0.196717 -0.394394
O1    O     O_R   0.479630 0.139450 0.552170 -0.503717
O2    O     O_R   0.360080 0.516200 0.048600 -0.496862
O3    O     O_R   0.156120 0.639920 0.048600 -0.496858
O4    O     O_R   0.483800 0.843880 0.048600 -0.496860
O5    O     O_R   0.478560 0.139320 0.448720 -0.504808
O6    O     O_R   0.860680 0.339240 0.448720 -0.504806
O7    O     O_R   0.660760 0.521440 0.448720 -0.504806
O8    O     O_R   0.139320 0.478560 0.948720 -0.504806
O9    O     O_R   0.339240 0.860680 0.948720 -0.504807
O10   O     O_R   0.521440 0.660760 0.948720 -0.504806
O11   O     O_R   0.515210 0.359960 0.452710 -0.496604
O12   O     O_R   0.860550 0.340180 0.552170 -0.503714
O13   O     O_R   0.640040 0.155250 0.452710 -0.496602
O14   O     O_R   0.844750 0.484790 0.452710 -0.496603
O15   O     O_R   0.359960 0.515210 0.952710 -0.496603
O16   O     O_R   0.155250 0.640040 0.952710 -0.496603
O17   O     O_R   0.484790 0.844750 0.952710 -0.496603
O18   O     O_3   0.666667 0.333333 0.499990 -0.266132
O19   O     O_3   0.333333 0.666667 0.999990 -0.266132
O20   O     O_R   0.659820 0.520370 0.552170 -0.503718
O21   O     O_R   0.139450 0.479630 0.052170 -0.503718
O22   O     O_R   0.340180 0.860550 0.052170 -0.503716
O23   O     O_R   0.520370 0.659820 0.052170 -0.503716
O24   O     O_R   0.516200 0.360080 0.548600 -0.496858
O25   O     O_R   0.639920 0.156120 0.548600 -0.496858
O26   O     O_R   0.843880 0.483800 0.548600 -0.496862

loop_
_geom_bond_atom_site_label_1
_geom_bond_atom_site_label_2
_ccdc_geom_bond_type
C23   C58   S    
C23   O26   A    
C3    C42   S    
C45   O3    A    
Cr5   O9    S    
Cr3   O20   S    
Cr5   O22   S    
C50   H27   S    
C64   C77   S    
C40   C84   S    
C23   O12   A    
C77   H11   S    
C67   C77   S    
C14   C84   S    
Cr3   O14   S    
C31   O7    A    
C1    O20   A    
Cr2   O18   S    
C7    C73   S    
C12   O1    A    
C70   H24   S    
C6    C72   S    
C46   H12   S    
C16   H3    S    
C26   C78   S    
C39   I2    S    
C80   H14   S    
C65   C79   S    
C68   C81   S    
C22   C75   S    
C41   I4    S    
C27   C84   S    
C9    C16   S    
C5    C11   S    
Cr6   O19   S    
C27   C60   T    
C1    C59   S    
C21   C54   T    
C69   H22   S    
C33   O14   A    
C68   C74   S    
Cr5   O16   S    
C10   C83   S    
C34   C62   S    
Cr5   O3    S    
Cr1   O18   S    
C44   C71   S    
C64   C71   S    
C3    C29   S    
C8    H8    S    
Cr1   O24   S    
C36   O16   A    
C69   C82   S    
C42   I5    S    
C13   H29   S    
C15   H2    S    
C13   C78   S    
C10   C76   S    
Cr3   O7    S    
C41   C48   S    
C7    C14   S    
C24   C57   T    
C25   C67   S    
Cr4   O19   S    
C37   O9    A    
C9    C75   S    
Cr3   O18   S    
C31   O11   A    
C7    H7    S    
C26   C59   T    
C46   C72   S    
Cr6   O17   S    
C80   C84   S    
C9    C82   S    
C37   C53   S    
C28   C61   T    
C9    H9    S    
C40   C66   S    
C30   C63   T    
C39   C65   S    
C12   O25   A    
C79   H13   S    
C19   C72   S    
C15   C48   S    
Cr4   O2    S    
Cr6   O23   S    
C19   C52   T    
C43   I6    S    
C32   C54   S    
C5    H5    S    
C34   O23   A    
C11   C67   S    
C18   C51   T    
C64   H18   S    
C41   C68   S    
C38   C64   S    
C81   H15   S    
C8    C81   S    
C39   C78   S    
C48   C74   S    
C11   C44   S    
C16   C49   S    
C47   C73   S    
C32   O13   A    
C78   C79   S    
C24   C76   S    
C40   C47   S    
C21   C74   S    
C45   C63   S    
C42   C69   S    
C68   H21   S    
Cr6   O4    S    
C56   O22   A    
Cr5   O19   S    
C38   C44   S    
C2    C15   S    
C50   C76   S    
Cr6   O10   S    
C3    C82   S    
C8    C74   S    
C1    O24   A    
C66   H20   S    
C10   H10   S    
C70   C83   S    
C36   C51   S    
C65   H19   S    
C49   C75   S    
C14   C47   S    
C44   H1    S    
Cr2   O13   S    
C35   O15   A    
C39   C46   S    
C4    C17   S    
C33   O6    A    
C8    C15   S    
C6    H6    S    
Cr3   O26   S    
C48   H25   S    
C70   C76   S    
Cr1   O1    S    
C25   C58   T    
C5    C77   S    
Cr1   O11   S    
Cr4   O15   S    
C18   C71   S    
C47   H23   S    
C40   I3    S    
C29   C62   T    
C33   C57   S    
C37   O17   A    
C45   O21   A    
C20   C53   T    
C36   O8    A    
C17   C50   S    
C43   C50   S    
C22   C55   T    
C4    C43   S    
C43   C70   S    
C65   C72   S    
C66   C80   S    
C14   H30   S    
Cr4   O8    S    
C2    C41   S    
C5    C71   S    
Cr2   O25   S    
Cr1   O5    S    
C6    C13   S    
C66   C73   S    
Cr2   O6    S    
C6    C79   S    
C13   C46   S    
C4    C83   S    
Cr4   O21   S    
C83   H17   S    
C20   C73   S    
C69   C75   S    
C35   O10   A    
C82   H16   S    
C4    C30   S    
C38   I1    S    
Cr2   O12   S    
C42   C49   S    
C12   C60   S    
C49   H26   S    
C38   C67   S    
C34   O2    A    
C35   C52   S    
C56   C61   S    
C2    C81   S    
C2    C28   S    
C17   H4    S    
C10   C17   S    
C31   C55   S    
C11   H28   S    
C32   O5    A    
C56   O4    A    
C3    C16   S    
C7    C80   S    
