data_mof_unit_36297.cif
_audit_creation_date              2012-12-10T18:57:40-0500
_audit_creation_method            fapswitch 2.2
_symmetry_space_group_name_H-M    P1
_symmetry_Int_Tables_number       1
_space_group_crystal_system       triclinic
_cell_length_a                    10.926778
_cell_length_b                    10.866303
_cell_length_c                    9.541213
_cell_angle_alpha                 89.687929
_cell_angle_beta                  89.831073
_cell_angle_gamma                 90.0096
_cell_volume                      1132.84158987

loop_
_atom_site_label
_atom_site_type_symbol
_atom_type_description
_atom_site_fract_x
_atom_site_fract_y
_atom_site_fract_z
_atom_type_partial_charge
C1    C     C_R   0.498924 0.262619 0.500110 0.792276
C2    C     C_R   0.497416 0.129854 0.498408 -0.116396
C3    C     C_R   0.512077 0.065263 0.371269 -0.215615
C4    C     C_R   0.513140 0.936141 0.370720 -0.221909
C5    C     C_R   0.500772 0.869748 0.497497 -0.089447
C6    C     C_R   0.486787 0.936704 0.619619 0.108654
C7    C     C_3   0.470555 0.924344 0.773958 -0.497647
C8    C     C_3   0.463933 0.066320 0.775691 -0.198717
C9    C     C_R   0.560341 0.589986 0.072819 0.256793
C10   C     C_R   0.429112 0.420203 0.075205 -0.079698
C11   C     C_R   0.428604 0.420877 0.926271 -0.078727
C12   C     C_R   0.265338 0.497141 0.500306 0.849473
C13   C     C_R   0.560521 0.589794 0.925499 0.263200
C14   C     C_3   0.693790 0.618497 0.918762 -0.509449
C15   C     C_3   0.693677 0.618690 0.077839 -0.505572
C16   C     C_R   0.500612 0.737248 0.499504 0.807078
C17   C     C_R   0.734724 0.500715 0.499957 0.851182
C18   C     C_2   0.933352 0.483371 0.386655 -0.159378
C19   C     C_2   0.866804 0.506077 0.501769 -0.321678
C20   C     C_2   0.067225 0.489915 0.385482 -0.159976
C21   C     C_2   0.133428 0.488371 0.503367 -0.326443
C22   C     C_R   0.481912 0.060625 0.620006 0.077918
Cu1   Cu    Cu3+1 0.499990 0.499980 0.640670 0.940789
Cu2   Cu    Cu3+1 0.500010 0.500020 0.359330 0.937308
H1    H     H_    0.888926 0.461334 0.288403 0.153815
H2    H     H_    0.542959 0.110341 0.828953 0.151968
H3    H     H_    0.373582 0.354015 0.131679 0.145926
H4    H     H_    0.371719 0.356776 0.870730 0.165711
H5    H     H_    0.749077 0.542263 0.874089 0.217131
H6    H     H_    0.711774 0.710681 0.872056 0.189478
H7    H     H_    0.748620 0.542399 0.122953 0.212180
H8    H     H_    0.711753 0.710930 0.123161 0.193056
H9    H     H_    0.907882 0.531397 0.600584 0.143016
H10   H     H_    0.111923 0.494402 0.283707 0.166755
H11   H     H_    0.092126 0.477238 0.605908 0.145256
H12   H     H_    0.523461 0.113761 0.272615 0.160359
H13   H     H_    0.524451 0.889095 0.271721 0.160066
H14   H     H_    0.383707 0.876364 0.801422 0.206598
H15   H     H_    0.553624 0.886928 0.825845 0.180904
N1    N     N_R   0.500780 0.500930 0.147930 -0.189253
N2    N     N_R   0.500780 0.500890 0.852020 -0.190748
O1    O     O_R   0.500000 0.319640 0.618810 -0.585165
O2    O     O_R   0.500010 0.319680 0.381230 -0.590953
O3    O     O_R   0.321940 0.499980 0.618760 -0.584661
O4    O     O_R   0.321950 0.500020 0.381180 -0.581953
O5    O     O_R   0.499990 0.680320 0.618770 -0.579537
O6    O     O_R   0.500000 0.680360 0.381190 -0.586845
O7    O     O_R   0.678050 0.499980 0.618820 -0.587988
O8    O     O_R   0.678060 0.500020 0.381240 -0.579649
C23   C     C_R   0.340753 0.112506 0.826800 0.160745
C24   C     C_R   0.316162 0.107834 0.971433 -0.183960
C25   C     C_R   0.205313 0.152054 0.024575 -0.158002
C26   C     C_R   0.117726 0.201316 0.933924 -0.120574
C27   C     C_R   0.140561 0.205864 0.789868 -0.161063
C28   C     C_R   0.251190 0.161571 0.736060 -0.114744
H16   H     H_    0.383530 0.070735 0.043231 0.129239
H17   H     H_    0.187647 0.148704 0.136231 0.135206
H18   H     H_    0.032142 0.235946 0.975305 0.124779
H19   H     H_    0.072546 0.244021 0.719747 0.131949
H20   H     H_    0.266037 0.166700 0.624157 0.116942

loop_
_geom_bond_atom_site_label_1
_geom_bond_atom_site_label_2
_ccdc_geom_bond_type
C10   H3    S    
C2    C22   A    
C8    C22   S    
C26   H18   S    
C15   H7    S    
C6    C7    S    
C21   H11   S    
C13   C14   S    
C8    H2    S    
C23   C28   A    
Cu1   N2    S    
C17   O7    A    
C7    H15   S    
Cu1   Cu2   S    
C20   H10   S    
C13   N2    A    
C23   C24   A    
C9    C15   S    
C15   H8    S    
C12   O3    A    
Cu1   O5    S    
C28   H20   S    
C4    H13   S    
Cu1   O1    S    
C18   H1    S    
C3    H12   S    
C14   H6    S    
Cu2   O4    S    
C11   H4    S    
C16   O6    A    
C17   C19   S    
C7    H14   S    
C11   N2    A    
C18   C20   S    
C27   H19   S    
C19   H9    S    
C5    C6    A    
C25   H17   S    
C14   H5    S    
C16   O5    A    
C24   C25   A    
C6    C22   A    
C8    C23   S    
C1    O1    A    
C7    C8    S    
C20   C21   D    
C3    C4    A    
C10   N1    A    
C1    C2    S    
C10   C11   A    
C17   O8    A    
Cu2   O8    S    
C12   O4    A    
Cu2   O2    S    
C9    C13   A    
C27   C28   A    
C18   C19   D    
C5    C16   S    
C2    C3    A    
Cu1   O7    S    
Cu2   N1    S    
C14   C15   S    
Cu2   O6    S    
C12   C21   S    
C1    O2    A    
C9    N1    A    
Cu1   O3    S    
C24   H16   S    
C26   C27   A    
C25   C26   A    
C4    C5    A    
