data_mof_unit_36564.cif
_audit_creation_date              2012-12-11T14:44:04-0500
_audit_creation_method            fapswitch 2.2
_symmetry_space_group_name_H-M    P1
_symmetry_Int_Tables_number       1
_space_group_crystal_system       triclinic
_cell_length_a                    18.940704
_cell_length_b                    10.860933
_cell_length_c                    18.815572
_cell_angle_alpha                 89.895827
_cell_angle_beta                  90.014677
_cell_angle_gamma                 90.131133
_cell_volume                      3870.60459787

loop_
_atom_site_label
_atom_site_type_symbol
_atom_type_description
_atom_site_fract_x
_atom_site_fract_y
_atom_site_fract_z
_atom_type_partial_charge
C1    C     C_R   0.730410 0.377324 0.146074 0.563923
C2    C     C_R   0.271669 0.373410 0.855981 0.558021
C3    C     C_R   0.230500 0.877104 0.146039 0.553932
C4    C     C_R   0.772554 0.871067 0.856692 0.559646
C5    C     C_R   0.523813 0.383659 0.923169 -0.087904
C6    C     C_R   0.503738 0.397298 0.069555 -0.085271
C7    C     C_R   0.036370 0.885456 0.907991 -0.085293
C8    C     C_R   0.044377 0.899565 0.055079 -0.096003
C9    C     C_R   0.042277 0.999425 0.940621 -0.125019
C10   C     C_R   0.043975 0.006567 0.014012 -0.149169
C11   C     C_R   0.528471 0.496826 0.957606 -0.134111
C12   C     C_R   0.516372 0.504095 0.030298 -0.142219
C13   C     C_R   0.691255 0.882902 0.037464 -0.138273
C14   C     C_R   0.294733 0.852469 0.960217 -0.143106
C15   C     C_R   0.194770 0.369580 0.039138 -0.144571
C16   C     C_R   0.797084 0.356925 0.960951 -0.136935
C17   C     C_R   0.697078 0.870862 0.964273 -0.151076
C18   C     C_R   0.292530 0.836265 0.033387 -0.138239
C19   C     C_R   0.198585 0.361151 0.965491 -0.148944
C20   C     C_R   0.794915 0.341593 0.034175 -0.130391
C21   C     C_R   0.762320 0.892025 0.931849 0.030778
C22   C     C_R   0.251213 0.915386 0.075477 0.029333
C23   C     C_R   0.260103 0.399414 0.930587 0.031646
C24   C     C_R   0.750338 0.416348 0.075434 0.030707
C25   C     C_R   0.822520 0.916184 0.973397 -0.127872
C26   C     C_R   0.217099 0.015797 0.045000 -0.126486
C27   C     C_R   0.318147 0.442252 0.970023 -0.128934
C28   C     C_R   0.712151 0.511526 0.043960 -0.122447
C29   C     C_R   0.816952 0.926467 0.045957 -0.135596
C30   C     C_R   0.218099 0.030139 0.972376 -0.110793
C31   C     C_R   0.314701 0.448605 0.042595 -0.137209
C32   C     C_R   0.713256 0.525071 0.971395 -0.117178
C33   C     C_R   0.750866 0.915779 0.077998 0.030361
C34   C     C_R   0.255030 0.946651 0.929390 0.038131
C35   C     C_R   0.252037 0.418176 0.077462 0.031167
C36   C     C_R   0.754240 0.446000 0.929232 0.033773
C37   C     C_R   0.525666 0.054474 0.470672 -0.109118
C38   C     C_R   0.519420 0.057609 0.543254 -0.107975
C39   C     C_R   0.025804 0.554506 0.470714 -0.109784
C40   C     C_R   0.019534 0.557647 0.543296 -0.107521
C41   C     C_R   0.500222 0.166977 0.576934 0.026041
C42   C     C_R   0.516168 0.161887 0.430142 0.025663
C43   C     C_R   0.000271 0.666995 0.576960 0.026569
C44   C     C_R   0.016243 0.661890 0.430171 0.023374
C45   C     C_R   0.530487 0.156270 0.147129 0.542691
C46   C     C_R   0.468509 0.155100 0.853568 0.535292
C47   C     C_R   0.062305 0.652740 0.138439 0.558408
C48   C     C_R   0.971863 0.655227 0.850826 0.536645
C49   C     C_R   0.495025 0.276613 0.537655 -0.141133
C50   C     C_R   0.502304 0.273904 0.464046 -0.146693
C51   C     C_R   0.995049 0.776617 0.537673 -0.140849
C52   C     C_R   0.002335 0.773899 0.464065 -0.146725
C53   C     C_R   0.819927 0.945139 0.456573 -0.157530
C54   C     C_R   0.177930 0.934258 0.545350 -0.155799
C55   C     C_R   0.319929 0.445142 0.456571 -0.158327
C56   C     C_R   0.677931 0.434257 0.545349 -0.155659
C57   C     C_R   0.829680 0.918545 0.527270 -0.128571
C58   C     C_R   0.167507 0.906772 0.474591 -0.120289
C59   C     C_R   0.329680 0.418551 0.527270 -0.128532
C60   C     C_R   0.667506 0.406764 0.474591 -0.119911
C61   C     C_R   0.779762 0.848646 0.564141 -0.005914
C62   C     C_R   0.220082 0.846728 0.436004 -0.006668
C63   C     C_R   0.279762 0.348646 0.564140 -0.005863
C64   C     C_R   0.720083 0.346728 0.436003 -0.005978
C65   C     C_R   0.722814 0.795823 0.527323 -0.104716
C66   C     C_R   0.280295 0.802753 0.471144 -0.099769
C67   C     C_R   0.222822 0.295808 0.527317 -0.104757
C68   C     C_R   0.780300 0.302765 0.471140 -0.099446
C69   C     C_R   0.711800 0.823804 0.455660 0.142075
C70   C     C_R   0.291893 0.831316 0.542473 0.150916
C71   C     C_R   0.211813 0.323780 0.455651 0.141571
C72   C     C_R   0.791901 0.331334 0.542467 0.151082
C73   C     C_R   0.758698 0.905740 0.420994 0.039522
C74   C     C_R   0.241983 0.904715 0.579009 0.034748
C75   C     C_R   0.258704 0.405732 0.420989 0.038324
C76   C     C_R   0.741988 0.404724 0.579005 0.034893
C77   C     C_R   0.741555 0.967274 0.148170 0.551078
C78   C     C_R   0.259778 0.973885 0.854348 0.545729
C79   C     C_R   0.241799 0.467209 0.148180 0.541690
C80   C     C_R   0.759702 0.473912 0.854328 0.546565
C81   C     C_R   0.710611 0.330055 0.359582 0.564649
C82   C     C_R   0.289307 0.330427 0.640375 0.568433
C83   C     C_R   0.210611 0.830056 0.359581 0.566587
C84   C     C_R   0.789308 0.830426 0.640376 0.568878
C85   C     C_R   0.534732 0.156507 0.355370 0.539036
C86   C     C_R   0.469202 0.157691 0.647203 0.540441
C87   C     C_R   0.034761 0.656504 0.355386 0.550223
C88   C     C_R   0.969213 0.657694 0.647212 0.538059
C89   C     C_R   0.742532 0.967305 0.353484 0.557925
C90   C     C_R   0.257658 0.967761 0.646272 0.557794
C91   C     C_R   0.242534 0.467299 0.353480 0.558816
C92   C     C_R   0.757661 0.467767 0.646269 0.557990
C93   C     C_R   0.493831 0.161615 0.926961 0.002708
C94   C     C_R   0.500148 0.167806 0.075732 -0.000090
C95   C     C_R   0.013903 0.662745 0.916281 -0.000182
C96   C     C_R   0.045418 0.665417 0.062041 0.002357
C97   C     C_R   0.507124 0.275179 0.961385 0.023578
C98   C     C_R   0.503474 0.280231 0.036544 0.031376
C99   C     C_R   0.030601 0.776223 0.948637 0.020329
C100  C     C_R   0.040824 0.780439 0.023523 0.024702
C101  C     C_R   0.487777 0.057240 0.040183 -0.155306
C102  C     C_R   0.485421 0.053944 0.967451 -0.149133
C103  C     C_R   0.040487 0.554552 0.024712 -0.153481
C104  C     C_R   0.024610 0.552971 0.953572 -0.147550
Cr1   Cr    Cr6+3 0.772000 0.169640 0.250110 1.029429
Cr2   Cr    Cr6+3 0.228000 0.169640 0.749890 1.016072
Cr3   Cr    Cr6+3 0.272000 0.669640 0.250110 1.015391
Cr4   Cr    Cr6+3 0.728000 0.669640 0.749890 1.019047
Cr5   Cr    Cr6+3 0.614960 0.323350 0.249260 1.030525
Cr6   Cr    Cr6+3 0.385040 0.323350 0.750740 1.025165
Cr7   Cr    Cr6+3 0.114960 0.823350 0.249260 1.021667
Cr8   Cr    Cr6+3 0.885040 0.823350 0.750740 1.022003
Cr9   Cr    Cr6+3 0.616670 0.010620 0.250840 1.061130
Cr10  Cr    Cr6+3 0.383330 0.010620 0.749160 1.065511
Cr11  Cr    Cr6+3 0.116670 0.510620 0.250840 1.058514
Cr12  Cr    Cr6+3 0.883330 0.510620 0.749160 1.065914
H1    H     H_    0.483279 0.970601 0.068535 0.137444
H2    H     H_    0.474577 0.965493 0.943186 0.143339
H3    H     H_    0.045772 0.466613 0.051269 0.132587
H4    H     H_    0.015992 0.464006 0.929041 0.139413
H5    H     H_    0.858656 0.004507 0.431486 0.154456
H6    H     H_    0.137197 0.986464 0.572113 0.152401
H7    H     H_    0.358656 0.504516 0.431486 0.153944
H8    H     H_    0.637197 0.486459 0.572112 0.152632
H9    H     H_    0.875027 0.958121 0.553726 0.167132
H10   H     H_    0.119370 0.937697 0.449300 0.167508
H11   H     H_    0.375024 0.458132 0.553727 0.167190
H12   H     H_    0.619366 0.437681 0.449302 0.167448
H13   H     H_    0.685941 0.735646 0.554498 0.161758
H14   H     H_    0.319639 0.750019 0.442694 0.163454
H15   H     H_    0.185953 0.235621 0.554489 0.161769
H16   H     H_    0.819646 0.250037 0.442689 0.163542
H17   H     H_    0.534696 0.381894 0.866783 0.134428
H18   H     H_    0.491741 0.408585 0.125272 0.135000
H19   H     H_    0.037703 0.883769 0.850571 0.135209
H20   H     H_    0.046089 0.917165 0.110894 0.173235
H21   H     H_    0.045324 0.082501 0.908875 0.113463
H22   H     H_    0.047108 0.095808 0.039430 0.102584
H23   H     H_    0.540369 0.579420 0.927584 0.110560
H24   H     H_    0.517322 0.592721 0.056519 0.105631
H25   H     H_    0.639508 0.874153 0.061483 0.133612
H26   H     H_    0.325718 0.790406 0.927822 0.122629
H27   H     H_    0.146303 0.343462 0.065638 0.115519
H28   H     H_    0.830890 0.298409 0.929221 0.127173
H29   H     H_    0.650845 0.847594 0.933110 0.116950
H30   H     H_    0.319420 0.757663 0.056244 0.136179
H31   H     H_    0.154064 0.324603 0.936108 0.111587
H32   H     H_    0.824707 0.266913 0.057749 0.139291
H33   H     H_    0.874474 0.926742 0.950035 0.152497
H34   H     H_    0.185903 0.078508 0.076806 0.127569
H35   H     H_    0.367443 0.469087 0.945226 0.151992
H36   H     H_    0.678095 0.570894 0.074946 0.134588
H37   H     H_    0.863634 0.950163 0.076390 0.135783
H38   H     H_    0.189570 0.106950 0.949857 0.137657
H39   H     H_    0.359827 0.485455 0.070867 0.133169
H40   H     H_    0.682222 0.598801 0.948520 0.137860
H41   H     H_    0.539076 0.967127 0.446669 0.191616
H42   H     H_    0.525186 0.972056 0.572414 0.173331
H43   H     H_    0.039265 0.467179 0.446716 0.191441
H44   H     H_    0.025327 0.472112 0.572468 0.173106
H45   H     H_    0.482395 0.362676 0.563398 0.129852
H46   H     H_    0.497200 0.358436 0.433876 0.129822
H47   H     H_    0.982381 0.862671 0.563407 0.129739
H48   H     H_    0.997194 0.858415 0.433888 0.130619
O1    O     O_R   0.787540 0.042690 0.170470 -0.523549
O2    O     O_R   0.212460 0.042690 0.829530 -0.531109
O3    O     O_R   0.287540 0.542690 0.170470 -0.529253
O4    O     O_R   0.712460 0.542690 0.829530 -0.531795
O5    O     O_R   0.556540 0.252920 0.323970 -0.527276
O6    O     O_R   0.443460 0.252920 0.676030 -0.528596
O7    O     O_R   0.056540 0.752920 0.323970 -0.519299
O8    O     O_R   0.943460 0.752920 0.676030 -0.530555
O9    O     O_R   0.545870 0.051100 0.330840 -0.499766
O10   O     O_R   0.454130 0.051100 0.669160 -0.489795
O11   O     O_R   0.045870 0.551100 0.330840 -0.493797
O12   O     O_R   0.954130 0.551100 0.669160 -0.491137
O13   O     O_R   0.681340 0.959300 0.325510 -0.454996
O14   O     O_R   0.318660 0.959300 0.674490 -0.445171
O15   O     O_R   0.181340 0.459300 0.325510 -0.453940
O16   O     O_R   0.818660 0.459300 0.674490 -0.445244
O17   O     O_3   0.667880 0.167870 0.250070 -0.277880
O18   O     O_3   0.332120 0.167870 0.749930 -0.275655
O19   O     O_3   0.167880 0.667870 0.250070 -0.294228
O20   O     O_3   0.832120 0.667870 0.749930 -0.275729
O21   O     O_R   0.765660 0.292160 0.175050 -0.499457
O22   O     O_R   0.234340 0.292160 0.824950 -0.503194
O23   O     O_R   0.265660 0.792160 0.175050 -0.501773
O24   O     O_R   0.734340 0.792160 0.824950 -0.501894
O25   O     O_R   0.670190 0.408980 0.168550 -0.511168
O26   O     O_R   0.329810 0.408980 0.831450 -0.517715
O27   O     O_R   0.170190 0.908980 0.168550 -0.532895
O28   O     O_R   0.829810 0.908980 0.831450 -0.516386
O29   O     O_R   0.556580 0.251450 0.175160 -0.509284
O30   O     O_R   0.443420 0.251450 0.824840 -0.511233
O31   O     O_R   0.056580 0.751450 0.175160 -0.520151
O32   O     O_R   0.943420 0.751450 0.824840 -0.515321
O33   O     O_R   0.545920 0.049510 0.170320 -0.517772
O34   O     O_R   0.454080 0.049510 0.829680 -0.520263
O35   O     O_R   0.045920 0.549510 0.170320 -0.507251
O36   O     O_R   0.954080 0.549510 0.829680 -0.518327
O37   O     O_R   0.681390 0.957840 0.176710 -0.499880
O38   O     O_R   0.318610 0.957840 0.823290 -0.497147
O39   O     O_R   0.181390 0.457840 0.176710 -0.514083
O40   O     O_R   0.818610 0.457840 0.823290 -0.494500
O41   O     O_R   0.787500 0.044280 0.330990 -0.544085
O42   O     O_R   0.212500 0.044280 0.669010 -0.545159
O43   O     O_R   0.287500 0.544280 0.330990 -0.543532
O44   O     O_R   0.712500 0.544280 0.669010 -0.544757
O45   O     O_R   0.765610 0.293630 0.323860 -0.497258
O46   O     O_R   0.234390 0.293630 0.676140 -0.498231
O47   O     O_R   0.265610 0.793630 0.323860 -0.495962
O48   O     O_R   0.734390 0.793630 0.676140 -0.497600
O49   O     O_R   0.670140 0.410570 0.329080 -0.482059
O50   O     O_R   0.329860 0.410570 0.670920 -0.491744
O51   O     O_R   0.170140 0.910570 0.329080 -0.480755
O52   O     O_R   0.829860 0.910570 0.670920 -0.491202
Br1   Br    Br    0.632900 0.746580 0.409447 -0.527771
Br2   Br    Br    0.377339 0.769254 0.584332 -0.518290
Br3   Br    Br    0.132937 0.246513 0.409422 -0.527079
Br4   Br    Br    0.877359 0.269301 0.584317 -0.517994

loop_
_geom_bond_atom_site_label_1
_geom_bond_atom_site_label_2
_ccdc_geom_bond_type
C58   C62   A    
C81   O45   A    
C62   C83   S    
C14   H26   S    
Cr7   O27   S    
C101  C102  A    
C56   C76   A    
C48   C95   S    
C55   C59   A    
C50   H46   S    
C14   C18   A    
Cr9   O13   S    
C72   C76   A    
C33   C77   S    
C90   O14   A    
C97   C98   A    
C71   Br3   S    
Cr8   O20   S    
C71   C75   A    
C66   C70   A    
C5    H17   S    
C8    H20   S    
C70   Br2   S    
C57   C61   A    
C7    C99   A    
C48   O36   A    
C88   O8    A    
C43   C88   S    
C56   H8    S    
C47   O31   A    
C16   H28   S    
Cr7   O51   S    
C5    C11   A    
Cr5   O49   S    
C64   C68   A    
C6    C12   A    
C84   O48   A    
Cr12  O36   S    
C95   C99   A    
C46   O34   A    
Cr3   O47   S    
C94   C98   A    
C59   H11   S    
Cr2   O46   S    
C29   C33   A    
Cr1   O45   S    
C25   H33   S    
C37   H41   S    
C37   C42   A    
C68   H16   S    
C4    O28   A    
C53   C73   A    
Cr8   O32   S    
Cr11  O11   S    
C92   O16   A    
Cr1   O17   S    
Cr12  O40   S    
C15   C19   A    
Cr9   O33   S    
C9    H21   S    
C40   C43   A    
C89   O41   A    
C20   C24   A    
C94   C101  A    
Cr5   O25   S    
Cr7   O31   S    
Cr10  O14   S    
C91   O15   A    
Cr7   O19   S    
C70   C74   A    
C85   O9    A    
Cr4   O44   S    
Cr10  O38   S    
C51   H47   S    
Cr9   O37   S    
C44   C87   S    
C66   H14   S    
C9    C10   A    
C3    C22   S    
Cr3   O43   S    
C102  H2    S    
C75   C91   S    
C55   C75   A    
C44   C52   A    
C54   H6    S    
C14   C34   A    
C54   C74   A    
C48   O32   A    
C45   O29   A    
Cr5   O29   S    
C77   O37   A    
C47   O35   A    
C45   C94   S    
C41   C49   A    
Cr4   O48   S    
C83   O47   A    
Cr5   O5    S    
C46   O30   A    
Cr3   O3    S    
C23   C27   A    
C25   C29   A    
C72   Br4   S    
C81   O49   A    
C78   O2    A    
C30   C34   A    
C63   C82   S    
C27   C31   A    
C51   C52   A    
C6    C98   A    
C2    O26   A    
C28   C32   A    
C62   C66   A    
Cr2   O22   S    
C38   C41   A    
C82   O50   A    
C47   C96   S    
C39   C40   A    
Cr12  O12   S    
C78   O38   A    
Cr10  O18   S    
Cr11  O35   S    
Cr6   O26   S    
C85   O5    A    
C56   C60   A    
Cr11  O39   S    
C68   C72   A    
C86   O10   A    
C32   H40   S    
C19   C23   A    
C17   C21   A    
C2    O22   A    
C63   C67   A    
Cr6   O30   S    
C37   C38   A    
C92   O44   A    
C3    O27   A    
C65   H13   S    
Cr8   O28   S    
C45   O33   A    
C93   C97   A    
C83   O51   A    
C99   C100  A    
C60   H12   S    
C16   C20   A    
C26   H34   S    
C87   O7    A    
C40   H44   S    
C12   H24   S    
C42   C85   S    
C69   C73   A    
C38   H42   S    
C22   C26   A    
C67   H15   S    
C76   C92   S    
C15   H27   S    
Cr6   O6    S    
C42   C50   A    
C26   C30   A    
C30   H38   S    
C13   H25   S    
C89   O13   A    
Cr12  O16   S    
C36   C80   S    
C17   H29   S    
C49   C50   A    
C31   C35   A    
C31   H39   S    
Cr9   O17   S    
Cr11  O15   S    
C55   H7    S    
Cr2   O2    S    
C64   C81   S    
C103  C104  A    
C95   C104  A    
Cr9   O9    S    
C54   C58   A    
Cr5   O17   S    
C59   C63   A    
C52   H48   S    
C21   C25   A    
C53   C57   A    
C39   H43   S    
C86   O6    A    
C49   H45   S    
Cr4   O24   S    
C103  H3    S    
C24   C28   A    
C27   H35   S    
C18   H30   S    
C61   C84   S    
C3    O23   A    
C93   C102  A    
Cr2   O42   S    
Cr11  O19   S    
C11   C12   A    
C32   C36   A    
C58   H10   S    
C39   C44   A    
C84   O52   A    
Cr1   O41   S    
C1    O21   A    
C87   O11   A    
C96   C100  A    
Cr1   O21   S    
C88   O12   A    
C13   C17   A    
C60   C64   A    
C79   O39   A    
C79   O3    A    
C4    O24   A    
C28   H36   S    
C18   C22   A    
Cr4   O20   S    
C8    C100  A    
C29   H37   S    
C101  H1    S    
C6    H18   S    
C53   H5    S    
C16   C36   A    
C57   H9    S    
C4    C21   S    
C43   C51   A    
C20   H32   S    
Cr8   O8    S    
C46   C93   S    
C65   C69   A    
C74   C90   S    
Cr12  O20   S    
C35   C79   S    
C91   O43   A    
Cr1   O1    S    
C5    C97   A    
C67   C71   A    
Cr8   O52   S    
C61   C65   A    
Cr4   O4    S    
Cr6   O50   S    
C19   H31   S    
C69   Br1   S    
C15   C35   A    
C41   C86   S    
C7    H19   S    
C73   C89   S    
C7    C9    A    
Cr10  O10   S    
Cr6   O18   S    
C1    C24   S    
C8    C10   A    
C13   C33   A    
Cr10  O34   S    
C96   C103  A    
Cr3   O19   S    
C2    C23   S    
C90   O42   A    
Cr3   O23   S    
C10   H22   S    
C82   O46   A    
C80   O40   A    
C77   O1    A    
C80   O4    A    
C34   C78   S    
Cr2   O18   S    
C11   H23   S    
C104  H4    S    
Cr7   O7    S    
C1    O25   A    
