data_mof_unit_16539.cif
_audit_creation_date              2012-10-26T21:06:54-0400
_audit_creation_method            fapswitch 2.2
_symmetry_space_group_name_H-M    P1
_symmetry_Int_Tables_number       1
_space_group_crystal_system       triclinic
_cell_length_a                    10.725761
_cell_length_b                    8.67906
_cell_length_c                    7.448166
_cell_angle_alpha                 102.877487
_cell_angle_beta                  94.489258
_cell_angle_gamma                 92.591725
_cell_volume                      672.431951183

loop_
_atom_site_label
_atom_site_type_symbol
_atom_type_description
_atom_site_fract_x
_atom_site_fract_y
_atom_site_fract_z
_atom_type_partial_charge
C1    C     C_R   0.495901 0.199715 0.453297 0.560743
C2    C     C_3   0.066830 0.351353 0.565961 -0.108488
C3    C     C_3   0.924197 0.361529 0.577776 -0.244681
C4    C     C_3   0.081937 0.661130 0.623437 -0.103516
C5    C     C_3   0.060466 0.488022 0.303207 -0.270709
C6    C     C_3   0.121440 0.500458 0.504601 0.002709
C7    C     C_2   0.130178 0.319602 0.741577 0.214913
C8    C     C_2   0.141916 0.706926 0.820108 0.241265
C9    C     C_3   0.877029 0.500876 0.497225 0.027569
C10   C     C_3   0.937437 0.658809 0.620161 -0.250001
C11   C     C_3   0.917284 0.483393 0.298737 -0.250282
C12   C     C_2   0.493727 0.031819 0.426983 -0.143566
C13   C     C_2   0.504827 0.968118 0.573101 -0.127827
C14   C     C_R   0.259818 0.499974 0.501742 0.575520
C15   C     C_R   0.503485 0.800261 0.546735 0.555276
C16   C     C_R   0.739747 0.500721 0.498245 0.539149
Cu1   Cu    Cu3+1 0.514070 0.517380 0.684380 1.001050
Cu2   Cu    Cu3+1 0.485930 0.482620 0.315620 0.978467
H1    H     H_    0.882182 0.580839 0.237353 0.124302
H2    H     H_    0.900751 0.378275 0.723734 0.121271
H3    H     H_    0.906969 0.674802 0.762412 0.119222
H4    H     H_    0.094095 0.590722 0.249125 0.129904
H5    H     H_    0.087432 0.379064 0.207746 0.141167
H6    H     H_    0.876580 0.369271 0.208732 0.136313
H7    H     H_    0.117404 0.393881 0.875156 0.090317
H8    H     H_    0.108033 0.652330 0.925735 0.077484
H9    H     H_    0.112494 0.756656 0.554974 0.159718
H10   H     H_    0.903325 0.760085 0.565147 0.109877
H11   H     H_    0.483227 0.960293 0.286141 0.147619
H12   H     H_    0.515184 0.039633 0.713944 0.151009
H13   H     H_    0.401423 0.378048 0.948339 0.270804
H14   H     H_    0.598766 0.621810 0.051669 0.231872
H15   H     H_    0.080319 0.245861 0.453993 0.152687
H16   H     H_    0.874832 0.247898 0.499589 0.108771
N1    N     N_2   0.464720 0.456420 0.038520 -0.252301
N2    N     N_2   0.535280 0.543580 0.961480 -0.258236
O1    O     O_R   0.509140 0.286130 0.619770 -0.498229
O2    O     O_2   0.226577 0.810738 0.863781 -0.464085
O3    O     O_R   0.485380 0.256770 0.308360 -0.491044
O4    O     O_R   0.329570 0.514650 0.655700 -0.464286
O5    O     O_R   0.305810 0.485300 0.344290 -0.510111
O6    O     O_R   0.514620 0.743230 0.691640 -0.479026
O7    O     O_R   0.490860 0.713870 0.380230 -0.510495
O8    O     O_R   0.694190 0.514700 0.655710 -0.522016
O9    O     O_R   0.670430 0.485350 0.344300 -0.520787
O10   O     O_2   0.194201 0.205978 0.734936 -0.499310

loop_
_geom_bond_atom_site_label_1
_geom_bond_atom_site_label_2
_ccdc_geom_bond_type
C16   O9    A    
Cu2   O3    S    
C7    O10   D    
C3    C9    S    
Cu1   N2    S    
C12   H11   S    
C6    C14   S    
C8    H8    S    
Cu2   N1    S    
C13   H12   S    
N1    N2    D    
C5    H5    S    
C1    O1    A    
C4    C8    S    
C2    C3    S    
Cu1   O8    S    
C15   O7    A    
C3    H2    S    
Cu1   O1    S    
Cu2   O7    S    
C9    C11   S    
C11   H1    S    
C2    C6    S    
C1    C12   S    
C8    O2    D    
C14   O5    A    
H14   N2    S    
C2    H15   S    
C4    C6    S    
C9    C16   S    
C5    C11   S    
C13   C15   S    
C10   H3    S    
C5    C6    S    
H13   N1    S    
C1    O3    A    
C14   O4    A    
Cu2   O9    S    
C11   H6    S    
C4    H9    S    
C12   C13   D    
Cu1   Cu2   S    
C9    C10   S    
Cu2   O5    S    
C10   H10   S    
C16   O8    A    
Cu1   O6    S    
C3    H16   S    
C4    C10   S    
C5    H4    S    
C2    C7    S    
C15   O6    A    
Cu1   O4    S    
C7    H7    S    
