data_mof_unit_45338.cif
_audit_creation_date              2013-03-05T16:45:09-0500
_audit_creation_method            fapswitch 2.2
_symmetry_space_group_name_H-M    P1
_symmetry_Int_Tables_number       1
_space_group_crystal_system       triclinic
_cell_length_a                    14.887723
_cell_length_b                    15.221627
_cell_length_c                    9.931069
_cell_angle_alpha                 90.823914
_cell_angle_beta                  90.747727
_cell_angle_gamma                 90.284751
_cell_volume                      2250.0785968

loop_
_atom_site_label
_atom_site_type_symbol
_atom_site_description
_atom_site_fract_x
_atom_site_fract_y
_atom_site_fract_z
_atom_type_partial_charge
O1    O     O_R   0.408400 0.908380 0.614690 -0.617292
O2    O     O_R   0.408400 0.091620 0.614690 -0.611446
O3    O     O_R   0.908400 0.408380 0.614690 -0.615868
O4    O     O_R   0.908400 0.591620 0.614690 -0.613532
O5    O     O_R   0.408370 0.908370 0.385350 -0.610837
O6    O     O_R   0.408370 0.091630 0.385350 -0.623996
O7    O     O_R   0.908370 0.408370 0.385350 -0.613215
O8    O     O_R   0.908370 0.591630 0.385350 -0.621131
C1    C     C_R   0.379487 0.881160 0.498538 0.857561
C2    C     C_R   0.379268 0.118920 0.499989 0.859630
C3    C     C_R   0.879832 0.380751 0.499092 0.860984
C4    C     C_R   0.879351 0.618953 0.500028 0.859839
Zn1   Zn    Zn3+2 0.500010 0.000000 0.653130 0.938367
Zn2   Zn    Zn3+2 0.000010 0.500000 0.653130 0.937789
Zn3   Zn    Zn3+2 0.499980 0.000000 0.346870 0.939446
Zn4   Zn    Zn3+2 0.999980 0.500000 0.346870 0.941777
O9    O     O_R   0.591610 0.091610 0.614650 -0.620701
O10   O     O_R   0.591610 0.908390 0.614650 -0.620832
O11   O     O_R   0.091610 0.591610 0.614650 -0.621940
O12   O     O_R   0.091610 0.408390 0.614650 -0.620930
O13   O     O_R   0.591590 0.091600 0.385310 -0.623325
O14   O     O_R   0.591590 0.908400 0.385310 -0.616687
O15   O     O_R   0.091590 0.591600 0.385310 -0.617341
O16   O     O_R   0.091590 0.408400 0.385310 -0.617763
C5    C     C_R   0.619802 0.119770 0.501019 0.875267
C6    C     C_R   0.619272 0.879659 0.500042 0.870527
C7    C     C_R   0.120621 0.618942 0.500934 0.870488
C8    C     C_R   0.118717 0.379122 0.500099 0.868770
C9    C     C_R   0.297721 0.232997 0.614339 0.166151
C10   C     C_R   0.339831 0.728349 0.495241 0.121830
C11   C     C_R   0.800413 0.735462 0.612819 0.160400
C12   C     C_R   0.813965 0.254675 0.599759 0.140811
C13   C     C_R   0.307865 0.179579 0.501386 -0.097421
C14   C     C_R   0.313448 0.815412 0.492863 -0.057776
C15   C     C_R   0.808460 0.680086 0.501586 -0.093584
C16   C     C_R   0.811131 0.317518 0.499924 -0.085170
C17   C     C_R   0.245389 0.182034 0.394767 -0.240816
C18   C     C_R   0.223658 0.837685 0.469915 -0.247671
C19   C     C_R   0.744774 0.681509 0.396580 -0.238165
C20   C     C_R   0.738498 0.322704 0.410068 -0.239790
H1    H     H_    0.248839 0.136673 0.310195 0.158782
H2    H     H_    0.203816 0.905347 0.455466 0.138982
H3    H     H_    0.746875 0.634836 0.313469 0.157194
H4    H     H_    0.733682 0.374949 0.337437 0.154441
C21   C     C_R   0.680212 0.746691 0.396458 -0.228754
C22   C     C_R   0.673189 0.257891 0.412212 -0.226422
C23   C     C_R   0.180437 0.246855 0.394821 -0.227580
C24   C     C_R   0.158831 0.772053 0.474918 -0.210604
H5    H     H_    0.632940 0.750391 0.312862 0.168360
H6    H     H_    0.617764 0.259573 0.340464 0.162355
H7    H     H_    0.134653 0.251842 0.309592 0.168677
H8    H     H_    0.088405 0.788516 0.463509 0.136994
C25   C     C_R   0.680144 0.808802 0.501929 -0.093743
C26   C     C_R   0.682179 0.189337 0.503964 -0.086997
C27   C     C_R   0.178442 0.307242 0.502475 -0.094069
C28   C     C_R   0.185834 0.685878 0.500685 -0.069642
C29   C     C_R   0.736090 0.798958 0.613861 0.124879
C30   C     C_R   0.749958 0.190104 0.601460 0.115599
C31   C     C_R   0.232333 0.295440 0.616210 0.124400
C32   C     C_R   0.276204 0.663303 0.497633 0.108229
C33   C     C_3   0.797984 0.864657 0.679939 -0.521552
C34   C     C_3   0.818626 0.120836 0.629478 -0.526478
C35   C     C_3   0.291957 0.360582 0.687844 -0.520333
C36   C     C_3   0.331482 0.609821 0.592446 -0.528758
C37   C     C_3   0.365223 0.292237 0.682296 -0.480570
C38   C     C_3   0.401417 0.682641 0.590294 -0.485965
C39   C     C_3   0.869571 0.794437 0.677165 -0.477620
C40   C     C_3   0.888791 0.192940 0.630151 -0.475933
H9    H     H_    0.813066 0.921245 0.614442 0.197075
H10   H     H_    0.825698 0.073331 0.544203 0.197229
H11   H     H_    0.306016 0.419079 0.626445 0.195865
H12   H     H_    0.355420 0.548387 0.543551 0.198480
H13   H     H_    0.776938 0.882020 0.783842 0.209336
H14   H     H_    0.811429 0.090735 0.729732 0.212562
H15   H     H_    0.269248 0.374665 0.792062 0.210395
H16   H     H_    0.300122 0.601907 0.692352 0.215511
H17   H     H_    0.421461 0.310296 0.615222 0.195894
H18   H     H_    0.465103 0.662561 0.541641 0.200940
H19   H     H_    0.926024 0.809644 0.608853 0.191680
H20   H     H_    0.937521 0.186784 0.546588 0.197424
H21   H     H_    0.386200 0.269482 0.783413 0.209466
H22   H     H_    0.409531 0.718170 0.688411 0.213730
H23   H     H_    0.890114 0.772735 0.779205 0.207743
H24   H     H_    0.919344 0.206023 0.731254 0.204571
C41   C     C_R   0.427187 0.969927 0.069696 0.119080
C42   C     C_R   0.927410 0.469448 0.069441 0.119452
N1    N     N_R   0.499140 1.000000 0.142800 -0.113082
N2    N     N_R   0.999140 0.500000 0.142800 -0.112530
C43   C     C_R   0.575236 0.019437 0.075220 -0.119355
C44   C     C_R   0.075165 0.519930 0.075189 -0.117029
H25   H     H_    0.635095 0.037221 0.132560 0.155941
H26   H     H_    0.134931 0.538010 0.132528 0.155669
C45   C     C_R   0.576150 0.018882 0.932013 0.222971
C46   C     C_R   0.076122 0.519465 0.931895 0.223998
N3    N     N_R   0.499160 0.000000 0.857150 -0.120273
N4    N     N_R   0.999160 0.500000 0.857150 -0.120900
C47   C     C_R   0.425541 0.972657 0.927643 0.038248
C48   C     C_R   0.925997 0.471746 0.927516 0.039236
C49   C     C_3   0.331399 0.011371 0.932190 0.395309
C50   C     C_3   0.831011 0.508031 0.929841 0.396543
C51   C     C_3   0.334511 0.002063 0.085218 -0.545775
C52   C     C_3   0.834024 0.500588 0.083339 -0.550212
H27   H     H_    0.333360 0.064518 0.143766 0.213246
H28   H     H_    0.289515 0.950066 0.124370 0.189785
H29   H     H_    0.831715 0.563749 0.140113 0.211902
H30   H     H_    0.789554 0.448519 0.123393 0.180911
C53   C     C_3   0.662177 0.043545 0.866622 -0.872907
H31   H     H_    0.720431 0.035315 0.936307 0.193788
H32   H     H_    0.674369 0.000891 0.778150 0.275937
H33   H     H_    0.659705 0.113718 0.838478 0.251117
C54   C     C_3   0.162282 0.544415 0.866306 -0.871978
H34   H     H_    0.220496 0.536936 0.936277 0.196570
H35   H     H_    0.175003 0.501367 0.778425 0.273388
H36   H     H_    0.159661 0.614411 0.837096 0.249558
N5    N     N_2   0.326208 0.102938 0.890264 -0.254621
H37   H     H_    0.386843 0.135938 0.890480 0.221446
C55   C     C_3   0.254161 0.155604 0.946168 -0.822077
H38   H     H_    0.233497 0.206087 0.873092 0.250732
H39   H     H_    0.277512 0.189716 0.039947 0.226172
H40   H     H_    0.194434 0.114749 0.969272 0.257697
N6    N     N_2   0.262838 0.954159 0.870244 -0.292002
H41   H     H_    0.276141 0.887763 0.874890 0.212984
C56   C     C_3   0.218990 0.980553 0.746274 -0.699562
H42   H     H_    0.172975 0.927393 0.710273 0.216241
H43   H     H_    0.268926 0.993992 0.667749 0.252605
H44   H     H_    0.177681 0.039949 0.762977 0.246331
N7    N     N_2   0.823457 0.598824 0.884929 -0.255861
H45   H     H_    0.882915 0.633866 0.885640 0.223274
C57   C     C_3   0.748936 0.649773 0.936848 -0.809675
H46   H     H_    0.769269 0.684312 0.031780 0.224693
H47   H     H_    0.689662 0.607568 0.956761 0.256499
H48   H     H_    0.728954 0.699879 0.862685 0.249625
N8    N     N_2   0.764656 0.448072 0.868371 -0.295115
H49   H     H_    0.779452 0.382132 0.876246 0.209716
C58   C     C_3   0.721129 0.471457 0.742519 -0.692927
H50   H     H_    0.685031 0.413414 0.699059 0.212008
H51   H     H_    0.770645 0.494608 0.668914 0.257933
H52   H     H_    0.670911 0.523756 0.759861 0.241096

loop_
_geom_bond_atom_site_label_1
_geom_bond_atom_site_label_2
_geom_bond_distance
_ccdc_geom_bond_type
C30   C34   1.498651 S    
C58   H52   1.108017 S    
C35   C37   1.512047 S    
C39   H23   1.110009 S    
C27   C31   1.391185 A    
C50   N7    1.462705 S    
C54   H34   1.111079 S    
O10   C6    1.286864 A    
C12   C30   1.366012 A    
C58   H50   1.110840 S    
O7    C3    1.287482 A    
Zn1   O10   1.991843 S    
Zn1   N3    2.026342 S    
C12   C16   1.387950 A    
Zn3   N1    2.026510 S    
C3    C16   1.401171 S    
C18   H2    1.083867 S    
C55   H39   1.110713 S    
C49   N5    1.462515 S    
C42   N2    1.361046 A    
C56   H43   1.104938 S    
N5    H37   1.030841 S    
C9    C13   1.386246 A    
C46   C54   1.495988 S    
C34   H10   1.112045 S    
C52   H29   1.108439 S    
C58   H51   1.104922 S    
O8    Zn4   1.992158 S    
O2    Zn1   1.992840 S    
C16   C20   1.396247 A    
O6    Zn3   1.992158 S    
C37   H21   1.108515 S    
Zn3   O14   1.992625 S    
C49   N6    1.462226 S    
C9    C31   1.364037 A    
N5    C55   1.453509 S    
C10   C32   1.367522 A    
C53   H31   1.111164 S    
O15   C7    1.284549 A    
C17   C23   1.384948 A    
O11   C7    1.288196 A    
C18   C24   1.387483 A    
C41   C47   1.411842 A    
C19   C21   1.384836 A    
C57   H48   1.106957 S    
C21   C25   1.400899 A    
Zn4   O16   1.992625 S    
O4    Zn2   1.992840 S    
C53   H32   1.102447 S    
C54   H36   1.108986 S    
Zn2   N4    2.026342 S    
C47   C49   1.524059 S    
C8    C27   1.413573 S    
C44   C46   1.423236 A    
C41   N1    1.359918 A    
C38   H18   1.111951 S    
C37   H17   1.112564 S    
C10   C14   1.384543 A    
C40   H24   1.111813 S    
Zn2   O12   1.991843 S    
C56   H42   1.109816 S    
C39   H19   1.112498 S    
C5    C26   1.404709 S    
C55   H40   1.110852 S    
C25   C29   1.390579 A    
C7    C28   1.403922 S    
C56   H44   1.107705 S    
C19   H3    1.082122 S    
O12   C8    1.286345 A    
C33   H13   1.110940 S    
C43   C45   1.422348 A    
C13   C17   1.401239 A    
C28   C32   1.390841 A    
N4    C48   1.372437 A    
C36   C38   1.517530 S    
C15   C19   1.400704 A    
N7    C57   1.452633 S    
O5    C1    1.282274 A    
C38   H22   1.112510 S    
C40   H20   1.112631 S    
C33   C39   1.513398 S    
C44   H26   1.082374 S    
C24   H8    1.084094 S    
O8    C4    1.287509 A    
O5    Zn3   1.990362 S    
C22   C26   1.400945 A    
C50   C52   1.530322 S    
C21   H5    1.083594 S    
C36   H16   1.109902 S    
O1    C1    1.288054 A    
C54   H35   1.102730 S    
C4    C15   1.410592 S    
C46   N4    1.385547 A    
N6    H41   1.032406 S    
C10   C38   1.489456 S    
O3    Zn2   1.975596 S    
C9    C37   1.494761 S    
O7    Zn4   1.990362 S    
C49   C51   1.528464 S    
C35   H11   1.107048 S    
Zn4   O15   1.975383 S    
C48   C50   1.521045 S    
N1    C43   1.357805 A    
C1    C14   1.399472 S    
C26   C30   1.389203 A    
C53   H33   1.108662 S    
C11   C15   1.386660 A    
O4    C4    1.288161 A    
C20   C22   1.382301 A    
N7    H45   1.031114 S    
C42   C52   1.478630 S    
C6    C25   1.412368 S    
C41   C51   1.475405 S    
C50   N8    1.463157 S    
C23   C27   1.400580 A    
C57   H46   1.110659 S    
C51   H27   1.107543 S    
C33   H9    1.110604 S    
C24   C28   1.399980 A    
O13   C5    1.285370 A    
C14   C18   1.397345 A    
Zn2   O11   1.990046 S    
O16   C8    1.290599 A    
N2    C44   1.358754 A    
O6    C2    1.287437 A    
C23   H7    1.083561 S    
N3    C47   1.374209 A    
C29   C33   1.495327 S    
Zn1   O9    1.990046 S    
C51   H28   1.112091 S    
C22   H6    1.083805 S    
C31   C35   1.493894 S    
C12   C40   1.491602 S    
C32   C36   1.495018 S    
O9    C5    1.287571 A    
C11   C29   1.363993 A    
C55   H38   1.106521 S    
C45   C53   1.492287 S    
N8    H49   1.032514 S    
Zn3   O13   1.975383 S    
C35   H15   1.111282 S    
C52   H30   1.111501 S    
C2    C13   1.411559 S    
C34   C40   1.511295 S    
C36   H12   1.109969 S    
C17   H1    1.081476 S    
C42   C48   1.410290 A    
N6    C56   1.448845 S    
O3    C3    1.283469 A    
C11   C39   1.493800 S    
C20   H4    1.083307 S    
O1    Zn1   1.975597 S    
C45   N3    1.384734 A    
C43   H25   1.082426 S    
O14   C6    1.289716 A    
Zn4   N2    2.026510 S    
N8    C58   1.450066 S    
C34   H14   1.108207 S    
C57   H47   1.110471 S    
O2    C2    1.288743 A    
