data_mof_unit_55058.cif
_audit_creation_date              2012-12-11T15:12:50-0500
_audit_creation_method            fapswitch 2.2
_symmetry_space_group_name_H-M    P1
_symmetry_Int_Tables_number       1
_space_group_crystal_system       triclinic
_cell_length_a                    22.373072
_cell_length_b                    6.937994
_cell_length_c                    19.353262
_cell_angle_alpha                 90.0
_cell_angle_beta                  99.268348
_cell_angle_gamma                 90.000053
_cell_volume                      2964.87642878

loop_
_atom_site_label
_atom_site_type_symbol
_atom_type_description
_atom_site_fract_x
_atom_site_fract_y
_atom_site_fract_z
_atom_type_partial_charge
O1    O     O_R   0.448420 0.506120 0.415750 -0.540268
O2    O     O_R   0.551580 0.006120 0.584250 -0.540269
O3    O     O_R   0.436490 0.174470 0.555610 -0.536994
O4    O     O_R   0.563510 0.674470 0.444390 -0.536993
C1    C     C_R   0.421077 0.344693 0.575837 0.719472
C2    C     C_R   0.578923 0.844693 0.424163 0.719475
O5    O     O_R   0.441310 0.176330 0.414520 -0.532243
O6    O     O_R   0.558690 0.676330 0.585480 -0.532245
O7    O     O_R   0.556430 0.007110 0.442150 -0.532955
O8    O     O_R   0.443570 0.507110 0.557850 -0.532955
C3    C     C_R   0.426613 0.344609 0.388297 0.695136
C4    C     C_R   0.573387 0.844609 0.611703 0.695137
O9    O     O_3   0.537770 0.339560 0.509230 -0.365815
O10   O     O_3   0.462230 0.839560 0.490770 -0.365814
V1    V     V_3+5 0.492990 0.064280 0.498290 1.405668
V2    V     V_3+5 0.507010 0.564280 0.501710 1.405668
C5    C     C_R   0.863035 0.030208 0.698446 -0.165363
C6    C     C_R   0.136965 0.530214 0.301554 -0.165363
H1    H     H_    0.950642 0.052512 0.761660 0.103609
H2    H     H_    0.049358 0.552517 0.238340 0.103609
H3    H     H_    0.778309 0.058930 0.586387 0.119016
H4    H     H_    0.221691 0.558938 0.413613 0.119016
H5    H     H_    0.879637 0.081966 0.652207 0.109247
H6    H     H_    0.120362 0.581975 0.347793 0.109247
C7    C     C_R   0.884154 0.945679 0.821345 -0.044352
C8    C     C_R   0.115845 0.445680 0.178655 -0.044352
C9    C     C_R   0.592365 0.771437 0.739447 0.287466
C10   C     C_R   0.407634 0.271439 0.260553 0.287463
C11   C     C_R   0.630807 0.758643 0.803608 -0.134143
C12   C     C_R   0.369193 0.258647 0.196391 -0.134141
C13   C     C_R   0.691497 0.809921 0.810142 -0.234661
C14   C     C_R   0.308502 0.309924 0.189858 -0.234659
C15   C     C_R   0.716491 0.876532 0.752092 0.082691
C16   C     C_R   0.283508 0.376534 0.247908 0.082690
C17   C     C_R   0.676728 0.898553 0.686600 0.032367
C18   C     C_R   0.323272 0.398555 0.313400 0.032366
C19   C     C_R   0.779852 0.919063 0.756763 0.087639
C20   C     C_R   0.220147 0.419065 0.243238 0.087638
C21   C     C_R   0.801532 0.985478 0.695911 0.139393
C22   C     C_R   0.198468 0.485483 0.304089 0.139393
C23   C     C_R   0.761807 0.008108 0.632827 -0.205752
C24   C     C_R   0.238192 0.508114 0.367173 -0.205751
C25   C     C_R   0.700606 0.965158 0.628097 -0.181428
C26   C     C_R   0.299394 0.465162 0.371903 -0.181429
C27   C     C_R   0.822723 0.898475 0.819454 -0.217615
C28   C     C_R   0.177276 0.398475 0.180546 -0.217614
C29   C     C_R   0.903714 0.012227 0.760646 -0.168633
C30   C     C_R   0.096285 0.512231 0.239355 -0.168633
C31   C     C_R   0.614303 0.846997 0.680431 -0.167657
C32   C     C_R   0.385696 0.346998 0.319569 -0.167659
H7    H     H_    0.809824 0.851255 0.867995 0.094923
H8    H     H_    0.190175 0.351253 0.132005 0.094923
H9    H     H_    0.717834 0.792838 0.861451 0.122147
H10   H     H_    0.282166 0.292841 0.138549 0.122147
H11   H     H_    0.613592 0.704354 0.849077 0.129772
H12   H     H_    0.386407 0.204357 0.150922 0.129769
H13   H     H_    0.672165 0.983726 0.577738 0.117468
H14   H     H_    0.327835 0.483730 0.422262 0.117469
C33   C     C_3   0.814604 0.784933 0.272192 -0.338858
C34   C     C_3   0.185386 0.285053 0.727790 -0.338882
C35   C     C_3   0.774478 0.112562 0.233040 -0.336461
C36   C     C_3   0.225555 0.612555 0.767001 -0.336477
C37   C     C_3   0.727041 0.095049 0.283254 -0.315251
C38   C     C_3   0.272988 0.595048 0.716783 -0.315251
H15   H     H_    0.786123 0.834385 0.374282 0.152320
H16   H     H_    0.213882 0.334562 0.625714 0.152328
H17   H     H_    0.857403 0.846685 0.300930 0.145310
H18   H     H_    0.142602 0.346894 0.699064 0.145326
H19   H     H_    0.755929 0.205050 0.187628 0.134913
H20   H     H_    0.244115 0.704951 0.812427 0.134926
H21   H     H_    0.815851 0.185286 0.260734 0.138197
H22   H     H_    0.184196 0.685361 0.739325 0.138205
H23   H     H_    0.747258 0.152597 0.335512 0.131603
H24   H     H_    0.252781 0.652669 0.664538 0.131605
H25   H     H_    0.687987 0.189802 0.265114 0.143468
H26   H     H_    0.312053 0.689733 0.734935 0.143482
C39   C     C_1   0.624479 0.854758 0.378404 -0.202785
C40   C     C_1   0.375522 0.354759 0.621597 -0.202777
C41   C     C_3   0.791130 0.911258 0.207059 0.264821
C42   C     C_3   0.208872 0.411258 0.792943 0.264789
C43   C     C_3   0.766768 0.772146 0.322480 -0.391978
C44   C     C_3   0.233224 0.272256 0.677505 -0.392003
C45   C     C_3   0.707794 0.881251 0.291243 0.283009
C46   C     C_3   0.292208 0.381253 0.708759 0.283013
C47   C     C_3   0.685172 0.786653 0.217742 0.045309
C48   C     C_3   0.314813 0.286558 0.782242 0.045350
C49   C     C_3   0.732358 0.818718 0.167417 -0.339730
C50   C     C_3   0.267625 0.318601 0.832566 -0.339733
C51   C     C_1   0.662020 0.865737 0.339441 -0.093345
C52   C     C_1   0.337982 0.365740 0.660561 -0.093357
C53   C     C_1   0.837700 0.927800 0.160124 -0.090405
C54   C     C_1   0.162302 0.427800 0.839878 -0.090409
C55   C     C_1   0.875583 0.939415 0.121690 -0.196185
C56   C     C_1   0.124418 0.439416 0.878311 -0.196180
H27   H     H_    0.743200 0.677613 0.144954 0.114581
H28   H     H_    0.256760 0.177490 0.854994 0.114590
H29   H     H_    0.713590 0.911513 0.122291 0.149792
H30   H     H_    0.286398 0.411296 0.877710 0.149798
H31   H     H_    0.684725 0.628070 0.227251 0.084684
H32   H     H_    0.315246 0.127997 0.772705 0.084692
H33   H     H_    0.825081 0.637316 0.255053 0.140403
H34   H     H_    0.174884 0.137445 0.744901 0.140414
H35   H     H_    0.756594 0.618082 0.331722 0.138277
H36   H     H_    0.243377 0.118199 0.668241 0.138282
O11   O     O_R   0.056480 0.288780 0.942210 -0.535941
O12   O     O_R   0.943520 0.788780 0.057790 -0.535941
O13   O     O_R   0.058700 0.616820 0.085490 -0.537699
O14   O     O_R   0.941300 0.116820 0.914510 -0.537699
C57   C     C_R   0.073148 0.448834 0.111892 0.694482
C58   C     C_R   0.926852 0.948833 0.888108 0.694482
O15   O     O_R   0.063520 0.618570 0.944410 -0.537526
O16   O     O_R   0.936480 0.118570 0.055590 -0.537526
O17   O     O_R   0.948420 0.787670 0.915740 -0.536371
O18   O     O_R   0.051580 0.287670 0.084260 -0.536371
C59   C     C_R   0.078836 0.449768 0.923894 0.726212
C60   C     C_R   0.921165 0.949768 0.076106 0.726213
O19   O     O_3   0.962260 0.453430 0.990800 -0.366381
O20   O     O_3   0.037740 0.953430 0.009200 -0.366382
V3    V     V_3+5 0.007000 0.728750 0.001710 1.418999
V4    V     V_3+5 0.993000 0.228750 0.998290 1.418998
C61   C     C_3   0.619168 0.828907 0.182335 -0.357735
C62   C     C_3   0.602953 0.040851 0.167940 -0.734779
H37   H     H_    0.595363 0.114077 0.216662 0.228391
H38   H     H_    0.638352 0.117480 0.144606 0.216441
H39   H     H_    0.559818 0.049750 0.130580 0.217723
H40   H     H_    0.610831 0.750440 0.131575 0.174337
H41   H     H_    0.587250 0.766504 0.214673 0.172775
C63   C     C_3   0.380817 0.328717 0.817657 -0.357834
C64   C     C_3   0.397049 0.540606 0.832103 -0.734909
H42   H     H_    0.404655 0.613900 0.783406 0.228419
H43   H     H_    0.361651 0.617218 0.855446 0.216481
H44   H     H_    0.440177 0.549412 0.869469 0.217732
H45   H     H_    0.389144 0.250165 0.868394 0.174376
H46   H     H_    0.412734 0.266361 0.785309 0.172810
N1    N     N_2   0.531890 0.702064 0.734885 -0.532036
H47   H     H_    0.500318 0.766768 0.697348 0.245572
C65   C     C_3   0.527186 0.493978 0.734906 -0.521666
H48   H     H_    0.478958 0.451225 0.727852 0.186142
H49   H     H_    0.550372 0.434141 0.785406 0.196126
H50   H     H_    0.547465 0.431301 0.691170 0.203130
N2    N     N_2   0.468109 0.202062 0.265116 -0.532036
H51   H     H_    0.499681 0.266761 0.302653 0.245571
C66   C     C_3   0.472810 0.993976 0.265091 -0.521656
H52   H     H_    0.521039 0.951218 0.272157 0.186138
H53   H     H_    0.449634 0.934148 0.214585 0.196122
H54   H     H_    0.452521 0.931295 0.308819 0.203127

loop_
_geom_bond_atom_site_label_1
_geom_bond_atom_site_label_2
_ccdc_geom_bond_type
C66   H54   S    
C12   C14   A    
C50   H28   S    
O4    V2    S    
O12   V3    S    
C9    C11   A    
C23   C25   A    
O14   V4    S    
O1    C3    A    
O2    C4    A    
C63   C64   S    
C2    O7    A    
C41   C49   S    
C4    C31   S    
C18   C32   A    
N1    H47   S    
C21   C23   A    
C40   C52   T    
O5    C3    A    
C65   H49   S    
C39   C51   T    
C5    H5    S    
C46   C52   S    
C6    H6    S    
C36   C42   S    
C46   C48   S    
C61   H41   S    
O19   V3    S    
C48   C50   S    
H16   C44   S    
C27   H7    S    
C66   H52   S    
C28   H8    S    
C36   H20   S    
O15   V3    S    
C5    C21   A    
O13   V3    S    
C35   C37   S    
C6    C22   A    
O20   V3    S    
C38   C46   S    
C36   C38   S    
C33   H17   S    
O17   V3    S    
C10   C32   A    
C66   H53   S    
C26   H14   S    
C49   H27   S    
C17   C31   A    
C13   C15   A    
O11   V4    S    
C47   C61   S    
C17   C25   A    
C7    C29   A    
C41   C53   S    
C8    C30   A    
C64   H44   S    
C35   H21   S    
C22   C24   A    
O6    V2    S    
O13   C57   A    
C24   C26   A    
C34   H34   S    
C14   H10   S    
C43   C45   S    
C47   C49   S    
C45   C51   S    
C65   H50   S    
C48   C63   S    
C33   H33   S    
C33   C43   S    
O4    C2    A    
O19   V4    S    
C33   C41   S    
O16   V4    S    
C8    C28   A    
C2    C39   S    
O5    V1    S    
C37   H23   S    
C12   H12   S    
C15   C19   A    
O12   C60   A    
C55   C60   S    
C14   C16   A    
C19   C21   A    
C42   C54   S    
C47   H31   S    
C63   H46   S    
C53   C55   T    
H15   C43   S    
C8    C57   S    
C50   H30   S    
O6    C4    A    
C54   C56   T    
C38   H26   S    
C36   H22   S    
O1    V2    S    
C13   H9    S    
O2    V1    S    
C58   O17   A    
C61   C62   S    
H2    C30   S    
C34   C44   S    
C57   O18   A    
H3    C23   S    
C7    C58   S    
C45   C47   S    
C44   C46   S    
O9    V1    S    
O10   V2    S    
C18   C26   A    
C19   C27   A    
C7    C27   A    
O16   C60   A    
C48   H32   S    
C64   H42   S    
C43   H35   S    
C35   H19   S    
N1    C65   S    
C34   C42   S    
C38   H24   S    
C16   C20   A    
O11   C59   A    
C5    C29   A    
O3    C1    A    
C6    C30   A    
C56   C59   S    
C11   H11   S    
C65   H48   S    
C9    N1    S    
H1    C29   S    
C62   H39   S    
N2    C66   S    
O7    V1    S    
C61   H40   S    
C42   C50   S    
C3    C32   S    
O8    V2    S    
N2    H51   S    
C20   C22   A    
H4    C24   S    
C37   H25   S    
C35   C41   S    
C10   C12   A    
C15   C17   A    
O14   C58   A    
C16   C18   A    
O20   V4    S    
C20   C28   A    
C25   H13   S    
C1    C40   S    
C1    O8    A    
C34   H18   S    
C11   C13   A    
O9    V2    S    
C37   C45   S    
C44   H36   S    
O10   V1    S    
O3    V1    S    
O15   C59   A    
C10   N2    S    
C64   H43   S    
C62   H37   S    
C63   H45   S    
C62   H38   S    
O18   V4    S    
C9    C31   A    
C49   H29   S    
