data_mof_unit_23702.cif
_audit_creation_date              2013-03-05T15:48:03-0500
_audit_creation_method            fapswitch 2.2
_symmetry_space_group_name_H-M    P1
_symmetry_Int_Tables_number       1
_space_group_crystal_system       triclinic
_cell_length_a                    8.333674
_cell_length_b                    19.174446
_cell_length_c                    27.174957
_cell_angle_alpha                 96.280457
_cell_angle_beta                  92.445701
_cell_angle_gamma                 85.647001
_cell_volume                      4301.28262651

loop_
_atom_site_label
_atom_site_type_symbol
_atom_site_description
_atom_site_fract_x
_atom_site_fract_y
_atom_site_fract_z
_atom_type_partial_charge
P1    P     P_3+3 0.082480 0.557670 0.610090 0.472575
O1    O     O_2   0.913240 0.537010 0.617740 -0.360453
O2    O     O_3   0.145240 0.536960 0.557560 -0.394466
O3    O     O_3   0.669960 0.410470 0.588880 -0.391333
O4    O     O_2   0.828198 0.445483 0.673448 -0.378532
O5    O     O_3   0.066957 0.649396 0.623138 -0.591162
O6    O     O_3   0.648883 0.341082 0.675498 -0.524024
H1    H     H_    0.785374 0.294279 0.616703 0.183025
C1    C     C_3   0.693963 0.216645 0.656575 -0.988771
H2    H     H_    0.803587 0.213841 0.681210 0.282411
H3    H     H_    0.587652 0.208663 0.678009 0.250909
P2    P     P_3+3 0.635220 0.340300 0.462910 0.437623
P3    P     P_3+3 0.107316 0.283202 0.563205 0.429473
O7    O     O_2   0.812980 0.329910 0.477500 -0.353525
O8    O     O_3   0.078660 0.374870 0.564770 -0.369371
O9    O     O_2   0.961201 0.251011 0.534715 -0.395867
O10   O     O_3   0.665297 0.326568 0.398738 -0.568335
O11   O     O_3   0.089080 0.263503 0.623904 -0.513284
C2    C     C_3   0.233194 0.278017 0.650353 0.370707
H4    H     H_    0.266334 0.332487 0.647044 0.093873
H5    H     H_    0.331448 0.239273 0.636748 0.053500
C3    C     C_3   0.212663 0.270898 0.704802 -0.853958
H6    H     H_    0.120809 0.311495 0.720286 0.272413
H7    H     H_    0.173983 0.217858 0.709309 0.239153
C4    C     C_3   0.133674 0.315410 0.419909 0.445676
H8    H     H_    0.259131 0.307678 0.433173 0.008043
H9    H     H_    0.066942 0.343950 0.450781 0.159639
C5    C     C_3   0.069449 0.243071 0.407770 -0.925309
H10   H     H_    0.141262 0.211762 0.378538 0.241237
H11   H     H_    0.077457 0.214603 0.441317 0.232105
H12   H     H_    0.941946 0.248257 0.394401 0.286305
Ba1   Ba    Ba6+2 0.854000 0.466860 0.523710 1.531095
C6    C     C_3   0.009885 0.681158 0.581248 0.331487
H13   H     H_    0.882808 0.669964 0.573444 0.087494
H14   H     H_    0.082076 0.661604 0.548515 0.123491
C7    C     C_3   0.025079 0.760766 0.590865 -0.446658
H15   H     H_    0.015250 0.783627 0.555038 0.156192
H16   H     H_    0.146329 0.771606 0.607226 0.205703
C8    C     C_3   0.520425 0.322440 0.371198 0.367054
H17   H     H_    0.534575 0.346101 0.336270 0.102643
H18   H     H_    0.421751 0.353605 0.390093 0.135292
C9    C     C_3   0.483480 0.245976 0.357728 -1.009283
H19   H     H_    0.587176 0.216190 0.338924 0.267575
H20   H     H_    0.375947 0.243416 0.332229 0.254205
H21   H     H_    0.459116 0.221166 0.391332 0.239993
P4    P     P_3+3 0.107220 0.442270 0.389900 0.476084
O12   O     O_2   0.276450 0.462960 0.382230 -0.378570
O13   O     O_3   0.044470 0.462980 0.442430 -0.408712
O14   O     O_3   0.519740 0.589470 0.411120 -0.410506
O15   O     O_3   0.126577 0.350070 0.376700 -0.568101
P5    P     P_3+3 0.087789 0.717828 0.436765 0.436690
O16   O     O_3   0.632420 0.583650 0.524140 -0.415100
O17   O     O_3   0.111040 0.625070 0.435230 -0.370361
O18   O     O_2   0.221075 0.749327 0.471588 -0.397356
O19   O     O_3   0.134096 0.742938 0.379246 -0.516750
Ba2   Ba    Ba6+2 0.335820 0.533080 0.476290 1.512136
P6    P     P_3+3 0.661004 0.423109 0.653462 0.472484
C10   C     C_3   0.674288 0.287737 0.636289 0.505602
H22   H     H_    0.569540 0.288175 0.609675 0.016696
H23   H     H_    0.706228 0.174116 0.625467 0.231633
O20   O     O_3   0.557280 0.416300 0.475860 -0.429420
C11   C     C_3   0.513456 0.643862 0.627303 0.331436
H24   H     H_    0.389516 0.631589 0.614458 0.093724
H25   H     H_    0.595978 0.595604 0.621271 0.089687
C12   C     C_3   0.515028 0.668498 0.682963 -0.423816
H26   H     H_    0.493874 0.623668 0.703700 0.129366
H27   H     H_    0.635691 0.685916 0.695541 0.199607
P7    P     P_3+3 0.559877 0.672001 0.538324 0.420258
O21   O     O_2   0.376710 0.670070 0.522470 -0.350468
O22   O     O_3   0.567562 0.697046 0.602150 -0.591710
H28   H     H_    0.329164 0.277913 0.725409 0.261758
C13   C     C_3   0.014983 0.723602 0.343073 0.657970
H29   H     H_    0.902468 0.709665 0.358810 -0.003403
C14   C     C_3   0.970795 0.784991 0.311952 -0.413903
H30   H     H_    0.075949 0.795806 0.290710 0.198394
H31   H     H_    0.874225 0.769275 0.284273 0.148883
P8    P     P_3+3 0.532486 0.587448 0.345796 0.438606
C15   C     C_3   0.513534 0.721570 0.365054 0.563176
H32   H     H_    0.643763 0.711163 0.373789 -0.023795
O23   O     O_2   0.412660 0.534855 0.321595 -0.384630
O24   O     O_3   0.452925 0.669368 0.330204 -0.511327
H33   H     H_    0.447553 0.724721 0.399949 0.152308
H34   H     H_    0.532769 0.834184 0.372512 0.224587
C16   C     C_3   0.491123 0.792322 0.344406 -1.033197
H35   H     H_    0.362356 0.804677 0.334601 0.286394
H36   H     H_    0.562307 0.790982 0.310655 0.251476
C17   C     C_R   0.009263 0.439572 0.174524 0.538334
O25   O     O_2   0.028284 0.385914 0.195162 -0.588626
N1    N     N_R   0.946508 0.501373 0.200418 -0.160219
C18   C     C_R   0.925242 0.562024 0.176267 0.514083
C19   C     C_2   0.760417 0.537170 0.267741 -0.190037
C20   C     C_3   0.744553 0.566373 0.321278 0.094088
C21   C     C_1   0.986200 0.487130 0.340283 0.286230
C22   C     C_2   0.020203 0.477381 0.292076 -0.240726
C23   C     C_2   0.902651 0.503730 0.252604 0.130411
C24   C     C_R   0.023912 0.498704 0.099177 -0.067349
C25   C     C_R   0.049473 0.437653 0.123887 -0.064918
C26   C     C_R   0.113378 0.375743 0.097254 -0.085341
C27   C     C_R   0.961297 0.561106 0.125794 -0.041483
C28   C     C_2   0.861823 0.530054 0.355758 -0.182502
H37   H     H_    0.137952 0.454155 0.281269 0.185811
H38   H     H_    0.133935 0.327649 0.114849 0.165085
C29   C     C_2   0.348675 0.483531 0.640945 -0.444372
C30   C     C_R   0.169783 0.434351 0.970823 0.040879
C31   C     C_R   0.062772 0.557961 0.971985 0.042737
C32   C     C_R   0.134848 0.495794 0.946093 0.084474
C33   C     C_R   0.245767 0.374623 0.943527 -0.202454
C34   C     C_R   0.283886 0.374964 0.894013 -0.085182
C35   C     C_R   0.247974 0.434721 0.868996 -0.057230
C36   C     C_R   0.172653 0.495180 0.894915 -0.065096
C37   C     C_R   0.135601 0.555151 0.869681 -0.053750
C38   C     C_R   0.174933 0.554145 0.819297 0.518786
N2    N     N_R   0.250103 0.494587 0.794142 -0.164117
C39   C     C_R   0.286574 0.435206 0.818634 0.528875
C40   C     C_2   0.448576 0.481136 0.728742 -0.164703
C41   C     C_3   0.494440 0.487907 0.675906 0.127166
C42   C     C_1   0.209506 0.513568 0.656264 0.296686
C43   C     C_2   0.168599 0.513656 0.703186 -0.192966
C44   C     C_2   0.293418 0.495176 0.742451 0.129657
O26   O     O_2   0.352051 0.382469 0.796565 -0.597987
C45   C     C_R   0.128677 0.434696 0.021671 0.041180
C46   C     C_R   0.061176 0.497574 0.047900 0.084628
C47   C     C_R   0.030640 0.559500 0.023465 0.042839
C48   C     C_R   0.152271 0.374201 0.047571 -0.201224
H39   H     H_    0.542839 0.470435 0.756294 0.158536
H40   H     H_    0.342422 0.327632 0.875263 0.164925
H41   H     H_    0.279865 0.326488 0.959497 0.125494
H42   H     H_    0.199133 0.323993 0.030350 0.125315
O27   O     O_2   0.875577 0.617558 0.198786 -0.624071
C49   C     C_R   0.936426 0.622095 0.101594 -0.087349
H43   H     H_    0.671276 0.555469 0.240884 0.175273
H44   H     H_    0.890020 0.671277 0.121174 0.165517
C50   C     C_R   0.024428 0.616669 0.945097 -0.204596
C51   C     C_R   0.060209 0.615202 0.895359 -0.089855
O28   O     O_2   0.144424 0.606865 0.798107 -0.601259
C52   C     C_R   0.969984 0.621439 0.051832 -0.208195
H45   H     H_    0.964157 0.664904 0.961132 0.125682
H46   H     H_    0.028243 0.661945 0.876973 0.165117
H47   H     H_    0.045150 0.527672 0.713536 0.176205
H48   H     H_    0.948988 0.671247 0.037017 0.125825
H49   H     H_    0.358464 0.456597 0.603778 0.169746
C53   C     C_R   0.395661 0.297222 0.518593 -0.488532
C54   C     C_R   0.534358 0.274538 0.492870 0.328371
C55   C     C_R   0.584283 0.202506 0.486712 -0.283593
C56   C     C_R   0.492746 0.152830 0.505585 0.036915
C57   C     C_R   0.347894 0.177030 0.529255 -0.286185
C58   C     C_R   0.298857 0.249025 0.534979 0.208396
C59   C     C_R   0.529402 0.034809 0.539082 -0.173217
C60   C     C_R   0.577940 0.962818 0.534173 -0.163446
C61   C     C_R   0.644180 0.929698 0.490038 0.168672
C62   C     C_R   0.661110 0.970910 0.451034 -0.183806
C63   C     C_R   0.613167 0.043128 0.456018 -0.166610
C64   C     C_R   0.546059 0.076060 0.500095 0.165408
C65   C     C_R   0.840565 0.826666 0.462066 -0.273836
C66   C     C_R   0.891432 0.754784 0.460205 0.237776
C67   C     C_R   0.656373 0.733471 0.503831 0.308684
C68   C     C_R   0.603355 0.804837 0.505700 -0.282114
C69   C     C_R   0.695338 0.852691 0.485043 0.026365
C70   C     C_R   0.798919 0.709446 0.481202 -0.523027
H50   H     H_    0.493223 0.823052 0.524295 0.150208
H51   H     H_    0.565741 0.933247 0.565382 0.116744
H52   H     H_    0.480880 0.058505 0.573836 0.121321
H53   H     H_    0.693273 0.185501 0.467152 0.155153
H54   H     H_    0.708533 0.946968 0.416255 0.121548
H55   H     H_    0.625699 0.072919 0.424945 0.120507
H56   H     H_    0.917106 0.862342 0.447888 0.162679
H57   H     H_    0.272088 0.140129 0.542495 0.146474
H58   H     H_    0.845986 0.656090 0.484225 0.147989
H59   H     H_    0.357274 0.352679 0.523154 0.166721
N3    N     N_2   0.899997 0.795647 0.622238 -0.088876
H60   H     H_    0.784199 0.791394 0.607903 0.208441
C71   C     C_3   0.918825 0.789232 0.674742 -0.734198
H61   H     H_    0.831183 0.827176 0.694965 0.209120
H62   H     H_    0.041667 0.801749 0.688599 0.235497
H63   H     H_    0.895681 0.735306 0.682464 0.258385
N4    N     N_2   0.390325 0.723910 0.695425 -0.071013
H64   H     H_    0.274579 0.710726 0.685980 0.220921
C72   C     C_3   0.422664 0.794768 0.687236 -0.768484
H65   H     H_    0.412840 0.801435 0.647140 0.249718
H66   H     H_    0.544306 0.807247 0.702296 0.241303
H67   H     H_    0.332933 0.832600 0.706679 0.215475
C73   C     C_3   0.081401 0.659719 0.309794 -0.867511
H68   H     H_    0.984592 0.640103 0.284324 0.232335
H69   H     H_    0.180153 0.673415 0.287314 0.277420
H70   H     H_    0.127277 0.617425 0.332549 0.275157
N5    N     N_2   0.912893 0.847531 0.343062 -0.093262
H71   H     H_    0.801869 0.868799 0.331716 0.186462
C74   C     C_3   0.028215 0.900005 0.355712 -0.846315
H72   H     H_    0.973398 0.943947 0.380953 0.225653
H73   H     H_    0.064220 0.921399 0.321767 0.241598
H74   H     H_    0.136317 0.877062 0.375019 0.281303
N6    N     N_2   0.826249 0.537653 0.405573 -0.105246
H75   H     H_    0.793365 0.588405 0.419051 0.155612
C75   C     C_3   0.726391 0.484042 0.416777 -0.446973
H76   H     H_    0.671800 0.504258 0.451569 0.289519
H77   H     H_    0.795986 0.433893 0.419346 0.233879
H78   H     H_    0.631447 0.471378 0.388050 0.190150

loop_
_geom_bond_atom_site_label_1
_geom_bond_atom_site_label_2
_geom_bond_distance
_ccdc_geom_bond_type
C75   H77   1.092001 S    
C57   H57   1.082660 S    
P8    C20   1.914082 S    
C50   H45   1.075891 S    
C21   C22   1.342176 D    
C61   C62   1.407378 A    
C42   C43   1.333643 D    
C3    H28   1.109622 S    
C2    H4    1.114282 S    
C52   H48   1.075894 S    
C30   C32   1.424381 A    
C72   H65   1.109770 S    
O8    Ba1   2.759078 S    
C8    H18   1.091449 S    
C28   N6    1.387875 S    
C34   C35   1.402016 A    
C4    C5    1.522084 S    
C26   C48   1.398548 A    
P5    C66   1.843842 S    
C68   C69   1.414518 A    
C14   H31   1.113467 S    
P3    O11   1.747286 S    
C74   H74   1.109225 S    
C74   H73   1.111006 S    
C67   C68   1.401882 A    
C2    H5    1.110171 S    
C16   H36   1.110297 S    
Ba1   O20   2.925568 S    
C65   C69   1.417143 A    
P8    O23   1.548657 D    
C75   H78   1.108793 S    
C19   H43   1.085296 S    
N3    H60   1.030818 S    
C54   C55   1.406022 A    
C24   C27   1.405431 A    
C25   C26   1.401985 A    
C6    C7    1.534126 S    
C70   H58   1.077955 S    
C11   O22   1.399668 S    
O1    Ba1   2.797049 S    
P1    O1    1.522237 D    
O10   C8    1.395854 S    
C43   C44   1.509365 S    
Ba1   O16   2.791632 S    
C45   C48   1.418354 A    
C11   H25   1.111695 S    
N2    C39   1.388441 Am   
H1    C10   1.109202 S    
N2    C44   1.466613 S    
C18   O27   1.221404 D    
C37   C38   1.419184 A    
C22   H37   1.084959 S    
P7    O21   1.570355 D    
C12   H27   1.111845 S    
P2    O10   1.760690 S    
C7    H15   1.108080 S    
C62   C63   1.405370 A    
P6    C41   1.867393 S    
C1    H2    1.110798 S    
O6    C10   1.405072 S    
O19   C13   1.407819 S    
C11   C12   1.534308 S    
C71   H63   1.109771 S    
C48   H42   1.076228 S    
C56   C64   1.498278 S    
N4    C72   1.447391 S    
C75   H76   1.086693 S    
P2    Ba1   3.388270 S    
O6    P6    1.754407 S    
Ba1   O13   2.765712 S    
C29   C42   1.318128 D    
C9    H20   1.109897 S    
C29   H49   1.086282 S    
C3    H6    1.111007 S    
C38   N2    1.386009 Am   
C71   H62   1.109974 S    
C56   C57   1.414987 A    
C8    C9    1.523112 S    
C67   C70   1.385215 A    
C63   H55   1.082760 S    
P4    O13   1.541778 S    
C14   H30   1.114058 S    
C66   C70   1.386925 A    
P1    O5    1.751784 S    
C2    C3    1.518735 S    
C59   C60   1.402296 A    
C13   C14   1.536820 S    
C8    H17   1.110211 S    
C15   H32   1.108839 S    
O11   C2    1.403486 S    
O16   Ba2   2.924785 S    
C30   C45   1.436933 A    
C4    H8    1.095911 S    
C26   H38   1.083463 S    
P1    Ba1   3.375665 S    
C36   C37   1.410103 A    
C17   C25   1.426037 A    
C74   H72   1.109489 S    
P1    O2    1.541804 S    
C73   H70   1.108449 S    
N6    C75   1.435927 S    
N1    C23   1.474612 S    
C49   H44   1.083706 S    
C11   H24   1.110048 S    
C4    O15   1.408111 S    
O2    Ba2   2.766045 S    
C15   H33   1.110015 S    
H34   C16   1.110696 S    
P8    O24   1.746429 S    
C33   C34   1.396476 A    
C24   C25   1.410182 A    
C6    H13   1.103609 S    
C45   C46   1.421734 A    
C22   C23   1.522921 S    
C62   H54   1.081493 S    
P1    C42   1.842037 S    
C16   H35   1.108819 S    
C1    H3    1.109836 S    
C21   C28   1.326875 D    
C65   C66   1.407074 A    
O3    Ba1   2.749606 S    
C35   C39   1.420368 A    
N5    H71   1.031178 S    
C53   H59   1.082272 S    
N4    H64   1.030488 S    
P2    O7    1.521109 D    
C12   H26   1.106790 S    
C68   H50   1.082595 S    
C40   C44   1.359973 D    
P3    O8    1.751876 S    
C12   N4    1.451649 S    
C50   C51   1.393371 A    
C3    H7    1.110683 S    
C60   H51   1.082768 S    
C59   C64   1.407102 A    
P3    C58   1.844316 S    
C38   O28   1.222282 D    
N5    C74   1.448125 S    
C43   H47   1.084409 S    
N1    C18   1.392968 Am   
C18   C27   1.414569 A    
C19   C20   1.508161 S    
C71   H61   1.109467 S    
C20   C28   1.509761 S    
C31   C50   1.417238 A    
C57   C58   1.403442 A    
C32   C36   1.437657 A    
O17   Ba2   2.759691 S    
O13   Ba2   2.929633 S    
P4    O12   1.522468 D    
C5    H10   1.109639 S    
C61   C69   1.498649 S    
C27   C49   1.401002 A    
C53   C54   1.392811 A    
C53   C58   1.391791 A    
C5    H12   1.108990 S    
C49   C52   1.391064 A    
O7    Ba1   2.822675 S    
C13   H29   1.109405 S    
P7    C67   1.834255 S    
O16   P7    1.762241 S    
C51   H46   1.083631 S    
C72   H66   1.110118 S    
O5    C6    1.398030 S    
C37   C51   1.399733 A    
C24   C46   1.438015 A    
C4    H9    1.098084 S    
O14   Ba2   2.748993 S    
C31   C32   1.421498 A    
P4    O15   1.761537 S    
C7    N3    1.451212 S    
C40   H39   1.085710 S    
P2    C54   1.844803 S    
O4    P6    1.547773 D    
C47   C52   1.414943 A    
C55   C56   1.415203 A    
C1    H23   1.110837 S    
C59   H52   1.082934 S    
N6    H75   1.022926 S    
P5    O18   1.543093 D    
C17   N1    1.388440 Am   
C29   C41   1.511573 S    
C10   H22   1.109734 S    
C13   C73   1.523840 S    
C55   H53   1.082669 S    
C60   C61   1.408261 A    
C7    H16   1.111411 S    
P2    O20   1.559794 S    
C15   O24   1.408000 S    
C40   C41   1.523033 S    
P4    C21   1.892374 S    
N3    C71   1.446331 S    
C5    H11   1.109805 S    
C6    H14   1.110057 S    
O14   P8    1.778897 S    
P5    O19   1.751661 S    
O2    Ba1   2.928794 S    
C73   H69   1.109169 S    
C72   H67   1.109994 S    
C9    H21   1.107696 S    
P5    O17   1.770541 S    
C19   C23   1.361575 D    
C15   C16   1.519641 S    
C63   C64   1.408659 A    
C1    C10   1.520444 S    
C17   O25   1.221518 D    
P7    O22   1.748156 S    
Ba2   O21   2.822898 S    
C9    H19   1.110410 S    
P3    O9    1.546688 D    
P4    Ba2   3.376406 S    
Ba2   O20   2.790885 S    
C65   H56   1.080797 S    
C33   H41   1.076214 S    
C31   C47   1.432291 A    
C34   H40   1.083557 S    
C46   C47   1.424015 A    
C35   C36   1.408052 A    
Ba1   Ba2   4.579217 S    
C30   C33   1.416664 A    
C39   O26   1.221237 D    
C73   H68   1.101297 S    
O3    P6    1.749206 S    
O12   Ba2   2.797706 S    
C14   N5    1.452831 S    
