data_mof_unit_10274.cif
_audit_creation_date              2012-10-26T19:18:50-0400
_audit_creation_method            fapswitch 2.2
_symmetry_space_group_name_H-M    P1
_symmetry_Int_Tables_number       1
_space_group_crystal_system       triclinic
_cell_length_a                    9.693559
_cell_length_b                    10.895285
_cell_length_c                    15.517004
_cell_angle_alpha                 89.833352
_cell_angle_beta                  73.747926
_cell_angle_gamma                 89.815193
_cell_volume                      1573.31513911

loop_
_atom_site_label
_atom_site_type_symbol
_atom_type_description
_atom_site_fract_x
_atom_site_fract_y
_atom_site_fract_z
_atom_type_partial_charge
Br1   Br    Br    0.727748 0.126573 0.450409 -0.524761
C1    C     C_R   0.001987 0.264998 0.495364 0.575292
C2    C     C_R   0.246432 0.407934 0.050990 0.025785
C3    C     C_R   0.332004 0.478360 0.094065 0.002995
C4    C     C_R   0.916895 0.502144 0.671985 0.538683
C5    C     C_R   0.095531 0.396852 0.093727 -0.011350
C6    C     C_R   0.040995 0.431018 0.183773 -0.150739
C7    C     C_R   0.271746 0.511491 0.184254 -0.119407
C8    C     C_2   0.937819 0.931927 0.441618 0.003453
C9    C     C_2   0.998431 0.867334 0.496153 -0.095674
C10   C     C_2   0.910596 0.063986 0.458832 0.093509
C11   C     C_2   0.012080 0.133127 0.479691 -0.097390
C12   C     C_R   0.677230 0.501874 0.909356 0.042460
C13   C     C_2   0.398265 0.431712 0.553568 0.008112
C14   C     C_2   0.554191 0.431039 0.553115 0.026031
C15   C     C_R   0.000658 0.734671 0.497695 0.602470
C16   C     C_R   0.083266 0.497686 0.327895 0.584862
C17   C     C_R   0.871084 0.515215 0.769728 0.010974
C18   C     C_R   0.130529 0.482615 0.230061 0.008057
C19   C     C_R   0.902021 0.607296 0.904457 -0.067518
C20   C     C_R   0.957149 0.577079 0.814229 -0.086980
C21   C     C_R   0.733215 0.476992 0.817221 -0.118245
C22   C     C_2   0.987727 0.359822 0.047113 0.190480
C23   C     C_R   0.761970 0.572507 0.951677 0.070386
C24   C     C_2   0.898146 0.876979 0.363796 0.260526
C25   C     C_2   0.255593 0.235701 0.939108 0.291995
C26   C     C_R   0.536764 0.464293 0.959039 0.004895
C27   C     C_R   0.476834 0.508944 0.047450 0.030773
C28   C     C_R   0.563734 0.583602 0.085870 -0.127102
C29   C     C_R   0.704771 0.610987 0.039781 -0.126457
C30   C     C_R   0.458081 0.378304 0.924471 -0.118377
C31   C     C_R   0.316847 0.346619 0.970094 0.035969
Cu1   Cu    Cu3+1 0.138640 0.500020 0.499980 0.973416
Cu2   Cu    Cu3+1 0.861360 0.499980 0.500020 1.023148
H1    H     H_    0.767831 0.666786 0.072373 0.120455
H2    H     H_    0.967975 0.659769 0.936979 0.123797
H3    H     H_    0.063842 0.607967 0.778178 0.135352
H4    H     H_    0.668701 0.433741 0.779537 0.118267
H5    H     H_    0.526706 0.624313 0.151367 0.111418
H6    H     H_    0.509043 0.327390 0.864435 0.152818
H7    H     H_    0.884636 0.323524 0.085552 0.114632
H8    H     H_    0.826757 0.925991 0.332912 0.149197
H9    H     H_    0.174055 0.181986 0.986079 0.117267
H10   H     H_    0.034520 0.912350 0.548293 0.075521
H11   H     H_    0.114468 0.091690 0.479181 0.089979
H12   H     H_    0.325706 0.371740 0.601173 0.161953
H13   H     H_    0.413759 0.555245 0.455191 0.209010
H14   H     H_    0.584816 0.369725 0.599851 0.165407
H15   H     H_    0.625188 0.557690 0.456879 0.210162
H16   H     H_    0.334462 0.554447 0.222818 0.127138
H17   H     H_    0.928606 0.415624 0.218303 0.130545
N1    N     N_2   0.346430 0.498660 0.500980 -0.350457
N2    N     N_2   0.652550 0.498630 0.501000 -0.339572
O1    O     O_R   0.117050 0.321960 0.499980 -0.498974
O2    O     O_2   0.950112 0.780191 0.330158 -0.510617
O3    O     O_2   0.296874 0.202014 0.861027 -0.494704
O4    O     O_R   0.882890 0.321920 0.500020 -0.441996
O5    O     O_R   0.052910 0.500040 0.629810 -0.498352
O6    O     O_R   0.818750 0.499990 0.629840 -0.510514
O7    O     O_R   0.117110 0.678080 0.499980 -0.497570
O8    O     O_R   0.882950 0.678040 0.500020 -0.459182
O9    O     O_R   0.181250 0.500010 0.370160 -0.508273
O10   O     O_R   0.947090 0.499960 0.370190 -0.467709
O11   O     O_2   0.008904 0.375661 0.966629 -0.495267

loop_
_geom_bond_atom_site_label_1
_geom_bond_atom_site_label_2
_ccdc_geom_bond_type
C24   H8    S    
C25   H9    S    
Cu2   O4    S    
C10   C11   D    
C25   C31   S    
H13   N1    S    
C7    H16   S    
C16   O9    A    
Cu1   O7    S    
C17   C20   A    
C8    C9    D    
C30   C31   A    
C22   H7    S    
Cu1   O5    S    
C3    C7    A    
C2    C5    A    
C1    C11   S    
C28   H5    S    
Cu1   Cu2   S    
C1    O4    A    
C6    H17   S    
C13   H12   S    
C9    C15   S    
C16   O10   A    
Cu1   N1    S    
C9    H10   S    
C8    C10   S    
C28   C29   A    
C29   H1    S    
C14   H14   S    
H15   N2    S    
C5    C22   S    
C4    O5    A    
C13   N1    D    
C22   O11   D    
C3    C27   A    
C12   C21   A    
Cu1   O9    S    
C5    C6    A    
C6    C18   A    
C15   O7    A    
C2    C31   A    
Cu2   O10   S    
C7    C18   A    
C15   O8    A    
C4    O6    A    
C23   C29   A    
C8    C24   S    
C2    C3    A    
C19   H2    S    
C14   N2    D    
Cu1   O1    S    
C20   H3    S    
C19   C20   A    
Cu2   N2    S    
C1    O1    A    
C26   C27   A    
C19   C23   A    
C13   C14   S    
C27   C28   A    
C4    C17   S    
C16   C18   S    
C30   H6    S    
C17   C21   A    
Cu2   O6    S    
C26   C30   A    
Cu2   O8    S    
C12   C26   A    
C24   O2    D    
C12   C23   A    
C25   O3    D    
C11   H11   S    
C21   H4    S    
Br1   C10   S    
