data_mof_unit_34431.cif
_audit_creation_date              2012-12-10T18:19:18-0500
_audit_creation_method            fapswitch 2.2
_symmetry_space_group_name_H-M    P1
_symmetry_Int_Tables_number       1
_space_group_crystal_system       triclinic
_cell_length_a                    18.39397
_cell_length_b                    18.718247
_cell_length_c                    19.005141
_cell_angle_alpha                 109.384764
_cell_angle_beta                  109.724784
_cell_angle_gamma                 108.972846
_cell_volume                      5057.53237274

loop_
_atom_site_label
_atom_site_type_symbol
_atom_type_description
_atom_site_fract_x
_atom_site_fract_y
_atom_site_fract_z
_atom_type_partial_charge
C1    C     C_R   0.625004 0.503340 0.620084 0.945270
C2    C     C_3   0.841413 0.740339 0.510993 0.230919
C3    C     C_3   0.209392 0.146404 0.428255 0.158988
C4    C     C_3   0.795518 0.852295 0.575572 0.189400
C5    C     C_3   0.732093 0.580314 0.776153 -0.530793
C6    C     C_3   0.259737 0.414332 0.226967 -0.533550
C7    C     C_3   0.807781 0.582838 0.844750 0.278151
C8    C     C_3   0.191411 0.416893 0.155788 0.242114
C9    C     C_3   0.642916 0.412328 0.685150 0.686804
C10   C     C_3   0.360859 0.581392 0.306090 0.682741
C11   C     C_3   0.767405 0.500707 0.668940 -0.403441
C12   C     C_R   0.375333 0.497020 0.379922 0.914097
C13   C     C_3   0.240184 0.512715 0.337072 -0.393669
C14   C     C_3   0.690513 0.499208 0.686367 -0.053040
C15   C     C_3   0.310353 0.501498 0.313642 -0.083100
C16   C     C_R   0.377645 0.378922 0.498453 0.915511
C17   C     C_R   0.622613 0.620914 0.501700 0.890208
C18   C     C_3   0.805815 0.494516 0.808388 -0.098866
C19   C     C_3   0.194952 0.506183 0.191257 -0.173310
C20   C     C_3   0.708872 0.413103 0.763993 0.211573
C21   C     C_3   0.292453 0.587193 0.235543 0.241128
C22   C     C_3   0.829477 0.487440 0.735361 -0.572248
C23   C     C_3   0.274822 0.217179 0.421690 0.217229
C24   C     C_3   0.172092 0.515375 0.264972 -0.544801
C25   C     C_3   0.002115 0.309974 0.813463 -0.408597
C26   C     C_3   0.999338 0.690868 0.187406 -0.431858
C27   C     C_R   0.000581 0.122305 0.620926 0.959569
C28   C     C_R   0.001247 0.879360 0.379358 0.958417
C29   C     C_R   0.121343 0.123286 0.501736 0.864146
C30   C     C_R   0.878551 0.876450 0.497924 0.874963
C31   C     C_R   0.998084 0.621542 0.119217 0.978502
C32   C     C_R   0.002331 0.378608 0.881177 0.973262
C33   C     C_R   0.877301 0.497350 0.877122 0.930876
C34   C     C_3   0.730597 0.781090 0.582046 0.213075
C35   C     C_R   0.122868 0.502524 0.122524 0.938782
C36   C     C_3   0.927378 0.213473 0.650066 0.189744
C37   C     C_3   0.078369 0.791371 0.350505 0.188269
C38   C     C_3   0.987951 0.159636 0.754300 0.057750
C39   C     C_3   0.014065 0.842114 0.245954 0.039214
C40   C     C_3   0.092072 0.350780 0.809068 0.621007
C41   C     C_3   0.910308 0.651073 0.193394 0.613444
C42   C     C_3   0.997359 0.232491 0.831006 0.077959
C43   C     C_3   0.003966 0.768349 0.169317 0.143066
C44   C     C_3   0.922420 0.277174 0.722642 0.106768
C45   C     C_3   0.308147 0.310187 0.496185 -0.131436
C46   C     C_3   0.079956 0.724022 0.277894 0.104579
C47   C     C_3   0.002865 0.192146 0.689688 -0.395616
C48   C     C_3   0.000383 0.810489 0.311376 -0.407857
C49   C     C_3   0.093904 0.276556 0.741885 0.184003
C50   C     C_3   0.909252 0.726268 0.259812 0.189731
C51   C     C_3   0.347885 0.311750 0.583156 -0.415974
C52   C     C_3   0.649923 0.691579 0.418903 -0.408413
C53   C     C_3   0.275042 0.247314 0.587827 -0.399954
C54   C     C_3   0.721929 0.756707 0.413778 -0.387616
C55   C     C_3   0.231323 0.329588 0.488548 -0.407463
C56   C     C_3   0.691930 0.689095 0.503332 -0.136325
C57   C     C_3   0.765413 0.666136 0.503755 -0.396770
C58   C     C_3   0.188141 0.190316 0.498654 -0.198156
C59   C     C_3   0.811411 0.808986 0.500373 -0.206628
C60   C     C_3   0.154928 0.254735 0.480215 0.244721
H1    H     H_    0.335151 0.210404 0.434481 0.148636
H2    H     H_    0.224324 0.360167 0.235476 0.228250
H3    H     H_    0.871894 0.634656 0.860250 0.160741
H4    H     H_    0.124897 0.365766 0.135734 0.201078
H5    H     H_    0.144026 0.262274 0.776206 0.212092
H6    H     H_    0.859772 0.740676 0.224679 0.203133
H7    H     H_    0.742484 0.449241 0.602834 0.257649
H8    H     H_    0.271852 0.573556 0.398996 0.263258
H9    H     H_    0.805144 0.564209 0.674360 0.218535
H10   H     H_    0.205633 0.457701 0.345418 0.213055
H11   H     H_    0.899081 0.536973 0.761467 0.239397
H12   H     H_    0.672624 0.791022 0.574809 0.180594
H13   H     H_    0.104881 0.461962 0.240154 0.238209
H14   H     H_    0.823684 0.422652 0.702751 0.239785
H15   H     H_    0.170800 0.577277 0.292158 0.238173
H16   H     H_    0.715787 0.354978 0.737404 0.163999
H17   H     H_    0.286589 0.643716 0.270650 0.193614
H18   H     H_    0.865012 0.150469 0.612180 0.210660
H19   H     H_    0.139462 0.854014 0.382237 0.214909
H20   H     H_    0.932900 0.336867 0.718610 0.186769
H21   H     H_    0.067896 0.665269 0.284389 0.179770
H22   H     H_    0.918270 0.106283 0.717125 0.226780
H23   H     H_    0.146113 0.103494 0.367195 0.211553
H24   H     H_    0.083655 0.895894 0.282555 0.218943
H25   H     H_    0.063114 0.260921 0.886843 0.218902
H26   H     H_    0.937802 0.739849 0.113816 0.215061
H27   H     H_    0.379069 0.378028 0.638615 0.230731
H28   H     H_    0.616597 0.626141 0.361465 0.236931
H29   H     H_    0.400545 0.293618 0.589360 0.269597
H30   H     H_    0.598162 0.710479 0.416362 0.258218
H31   H     H_    0.299074 0.207417 0.610210 0.291612
H32   H     H_    0.699263 0.799961 0.396966 0.288463
H33   H     H_    0.262548 0.284269 0.637395 0.180612
H34   H     H_    0.860160 0.892249 0.635034 0.212499
H35   H     H_    0.730579 0.720671 0.360280 0.179083
H36   H     H_    0.255406 0.390711 0.547351 0.185774
H37   H     H_    0.737512 0.605766 0.442514 0.182901
H38   H     H_    0.141584 0.284221 0.532420 0.154836
H39   H     H_    0.850314 0.711133 0.455262 0.150899
H40   H     H_    0.282451 0.361883 0.971209 0.406332
H41   H     H_    0.718445 0.633609 0.023611 0.424306
H42   H     H_    0.143742 0.229697 0.235525 0.401276
H43   H     H_    0.860859 0.753562 0.758272 0.394642
H44   H     H_    0.397442 0.136789 0.502319 0.378799
H45   H     H_    0.210294 0.343770 0.435418 0.254040
H46   H     H_    0.630001 0.919445 0.497216 0.416274
H47   H     H_    0.910806 0.141443 0.325003 0.390513
H48   H     H_    0.086079 0.840145 0.648347 0.392395
H49   H     H_    0.821013 0.666505 0.947517 0.384027
H50   H     H_    0.263498 0.425393 0.100683 0.397394
H51   H     H_    0.573137 0.452916 0.730995 0.349493
H52   H     H_    0.400911 0.521157 0.233548 0.347821
H53   H     H_    0.675264 0.348061 0.922073 0.394350
H54   H     H_    0.398568 0.589328 0.098604 0.413112
H55   H     H_    0.582982 0.287634 0.604643 0.377161
H56   H     H_    0.787743 0.649001 0.554310 0.257078
H57   H     H_    0.461339 0.670676 0.422819 0.371400
H58   H     H_    0.699402 0.106937 0.650227 0.411255
H59   H     H_    0.302530 0.887949 0.340245 0.417939
H60   H     H_    0.143575 0.266173 0.665508 0.312403
H61   H     H_    0.856335 0.737580 0.333637 0.313231
H62   H     H_    0.900669 0.358489 0.593838 0.368781
H63   H     H_    0.081458 0.638239 0.402064 0.371082
H64   H     H_    0.147010 0.443510 0.785114 0.417673
H65   H     H_    0.856766 0.560446 0.220270 0.412305
H66   H     H_    0.183374 0.122832 0.826362 0.394077
H67   H     H_    0.682105 0.581824 0.795965 0.235888
H68   H     H_    0.910906 0.912685 0.096348 0.405356
H69   H     H_    0.025372 0.223695 0.995277 0.382551
H70   H     H_    0.053153 0.788252 0.002377 0.387550
H71   H     H_    0.304783 0.397334 0.207114 0.222984
H72   H     H_    0.758931 0.641001 0.773047 0.216417
O1    O     O_R   0.592570 0.552270 0.644860 -0.610691
O2    O     O_R   0.407350 0.552250 0.459650 -0.626762
O3    O     O_R   0.407370 0.459660 0.552260 -0.630897
O4    O     O_R   0.592630 0.540340 0.447740 -0.628795
O5    O     O_R   0.407450 0.355140 0.447760 -0.567777
O6    O     O_R   0.592550 0.644860 0.552240 -0.585127
O7    O     O_R   0.052270 0.092540 0.644860 -0.577140
O8    O     O_R   0.947730 0.907460 0.355140 -0.578625
O9    O     O_R   0.947710 0.092600 0.540380 -0.546360
O10   O     O_R   0.052290 0.907400 0.459620 -0.535817
O11   O     O_R   0.144880 0.092570 0.552230 -0.594221
O12   O     O_R   0.407430 0.447730 0.355140 -0.593885
O13   O     O_R   0.855120 0.907430 0.447770 -0.599782
O14   O     O_R   0.040310 0.092630 0.447750 -0.536266
O15   O     O_R   0.959690 0.907370 0.552250 -0.539765
O16   O     O_R   0.052260 0.644880 0.092510 -0.523501
O17   O     O_R   0.947740 0.355120 0.907490 -0.518849
O18   O     O_2   0.271333 0.451381 0.896462 -0.287544
O19   O     O_2   0.199793 0.471342 0.982244 -0.194866
O20   O     O_3   0.217057 0.333686 0.936513 -0.540519
O21   O     O_2   0.801491 0.530269 0.020705 -0.180136
O22   O     O_2   0.731020 0.549241 0.107576 -0.276089
O23   O     O_R   0.947720 0.540390 0.092600 -0.570863
O24   O     O_3   0.782606 0.666505 0.066449 -0.560007
O25   O     O_2   0.307190 0.218479 0.292125 -0.234783
O26   O     O_2   0.163462 0.105364 0.248407 -0.188666
O27   O     O_3   0.189088 0.262506 0.297406 -0.581908
O28   O     O_2   0.848414 0.885661 0.755023 -0.180625
O29   O     O_2   0.705017 0.773101 0.712962 -0.243298
O30   O     O_3   0.818533 0.726699 0.696247 -0.586908
O31   O     O_2   0.197007 0.009216 0.455503 -0.286369
O32   O     O_2   0.255391 0.029594 0.362051 -0.229742
O33   O     O_3   0.357730 0.131997 0.527079 -0.526028
O34   O     O_R   0.052280 0.459610 0.907400 -0.569684
O35   O     O_2   0.760142 0.973685 0.653944 -0.205543
O36   O     O_2   0.808680 0.992326 0.553297 -0.329111
O37   O     O_3   0.647786 0.874112 0.490974 -0.555294
O38   O     O_2   0.050589 0.288164 0.370221 -0.267895
O39   O     O_2   0.049887 0.152291 0.302872 -0.220845
O40   O     O_3   0.960184 0.160160 0.381318 -0.441229
O41   O     O_2   0.957756 0.840654 0.686954 -0.214118
O42   O     O_2   0.945938 0.699919 0.612639 -0.265740
O43   O     O_3   0.034045 0.824102 0.595392 -0.442892
O44   O     O_3   0.802434 0.603578 0.919977 -0.657170
O45   O     O_R   0.959660 0.552230 0.907350 -0.643669
O46   O     O_3   0.199852 0.394760 0.082074 -0.680727
O47   O     O_3   0.562285 0.400665 0.683547 -0.762116
O48   O     O_3   0.428172 0.574779 0.288592 -0.758428
O49   O     O_2   0.651410 0.467018 0.877221 -0.218683
O50   O     O_2   0.566104 0.314117 0.766722 -0.240930
O51   O     O_3   0.711104 0.361423 0.894606 -0.448931
O52   O     O_2   0.290936 0.656270 0.125255 -0.188488
O53   O     O_2   0.431290 0.706730 0.246368 -0.213859
O54   O     O_3   0.361618 0.556252 0.116431 -0.534602
O55   O     O_3   0.621182 0.342230 0.608753 -0.727231
O56   O     O_R   0.040340 0.447770 0.092650 -0.629972
O57   O     O_3   0.401492 0.659023 0.384713 -0.712457
O58   O     O_2   0.798571 0.283354 0.772078 -0.268925
O59   O     O_2   0.756714 0.238826 0.622612 -0.297640
O60   O     O_3   0.763728 0.128034 0.672819 -0.458485
O61   O     O_2   0.247088 0.761520 0.375566 -0.238678
O62   O     O_2   0.200511 0.711606 0.224778 -0.272319
O63   O     O_3   0.239044 0.868969 0.321327 -0.446761
O64   O     O_3   0.119896 0.302878 0.689093 -0.681844
O65   O     O_3   0.881661 0.701481 0.312511 -0.696797
O66   O     O_2   0.987881 0.236993 0.539371 -0.173805
O67   O     O_R   0.855120 0.447750 0.907440 -0.517019
O68   O     O_2   0.834282 0.198017 0.495976 -0.237758
O69   O     O_3   0.956936 0.356629 0.611920 -0.473477
O70   O     O_2   0.158190 0.848108 0.522312 -0.183111
O71   O     O_2   0.007609 0.725955 0.438433 -0.198131
O72   O     O_3   0.133467 0.697002 0.432017 -0.489715
O73   O     O_3   0.090107 0.412694 0.782423 -0.674993
O74   O     O_3   0.913100 0.590382 0.221669 -0.722106
O75   O     O_2   0.064906 0.124683 0.882298 -0.209581
O76   O     O_2   0.008810 0.017962 0.735010 -0.233265
O77   O     O_3   0.158309 0.158782 0.811812 -0.528756
O78   O     O_R   0.144880 0.552250 0.092560 -0.528398
O79   O     O_2   0.853884 0.845035 0.187759 -0.260082
O80   O     O_2   0.991442 0.982757 0.265562 -0.235391
O81   O     O_3   0.937364 0.876729 0.108270 -0.460909
O82   O     O_2   0.840743 0.191125 0.840919 -0.119008
O83   O     O_2   0.899699 0.093512 0.841984 -0.161897
O84   O     O_3   0.982205 0.243872 0.978211 -0.524123
O85   O     O_2   0.104110 0.907502 0.160500 -0.155776
O86   O     O_2   0.157981 0.805036 0.154478 -0.158786
O87   O     O_3   0.015068 0.758475 0.021333 -0.561073
O88   O     O_R   0.592650 0.447750 0.540350 -0.586714
S1    S     S_3+6 0.197374 0.405189 0.909470 0.033308
S2    S     S_3+6 0.342613 0.627517 0.178253 0.124628
S3    S     S_3+6 0.808223 0.233290 0.699206 0.033025
S4    S     S_3+6 0.193483 0.764754 0.298181 0.060954
S5    S     S_3+6 0.926990 0.250352 0.571778 0.143695
S6    S     S_3+6 0.092180 0.765665 0.437645 0.147727
S7    S     S_3+6 0.055224 0.113557 0.797017 0.105023
S8    S     S_3+6 0.946515 0.887583 0.202840 0.099762
S9    S     S_3+6 0.925098 0.187274 0.870008 0.165784
S10   S     S_3+6 0.075663 0.812763 0.129431 0.147981
S11   S     S_3+6 0.804042 0.595869 0.093764 0.046702
S12   S     S_3+6 0.232819 0.199133 0.311895 0.090107
S13   S     S_3+6 0.776627 0.793184 0.689558 0.082745
S14   S     S_3+6 0.253856 0.075748 0.442599 0.032684
S15   S     S_3+6 0.754394 0.927094 0.569250 0.017525
S16   S     S_3+6 0.053114 0.212554 0.380450 0.103062
S17   S     S_3+6 0.945765 0.777359 0.605104 0.097836
S18   S     S_3+6 0.658359 0.390572 0.827728 0.125833
Zn1   Zn    Zn3+2 0.499940 0.569790 0.569780 1.085817
Zn2   Zn    Zn3+2 0.500060 0.430210 0.430220 1.104262
Zn3   Zn    Zn3+2 0.069820 0.999960 0.569760 1.194430
Zn4   Zn    Zn3+2 0.930180 0.000040 0.430240 1.204222
Zn5   Zn    Zn3+2 0.069800 0.569760 0.999940 1.216705
Zn6   Zn    Zn3+2 0.930200 0.430240 0.000060 1.221633

loop_
_geom_bond_atom_site_label_1
_geom_bond_atom_site_label_2
_ccdc_geom_bond_type
O49   S18   D    
C34   C56   S    
C36   S5    S    
C23   C45   S    
C32   O34   A    
H64   O73   S    
O2    Zn1   S    
C41   C50   S    
C3    C23   S    
C16   O5    A    
C28   O8    A    
H49   O44   S    
C30   O15   A    
O70   S6    D    
H40   O20   S    
O69   S5    S    
C3    S14   S    
C37   H19   S    
O12   Zn2   S    
H60   O64   S    
C49   H5    S    
H63   O72   S    
C55   H45   S    
C45   C51   S    
H62   O69   S    
C19   C21   S    
C35   O78   A    
O78   Zn5   S    
C38   C42   S    
C60   H38   S    
C10   C15   S    
C25   C40   S    
O63   S4    S    
O22   S11   D    
C11   C14   S    
O41   S17   D    
C24   H13   S    
C13   H10   S    
H50   O46   S    
C58   C60   S    
C40   C49   S    
C29   O11   A    
H48   O43   S    
H65   O74   S    
C46   S4    S    
C56   C57   S    
C20   H16   S    
C36   C47   S    
C41   O74   S    
O86   S10   D    
C27   O9    A    
H44   O33   S    
O30   S13   S    
C52   H30   S    
O39   S16   D    
O61   S4    D    
C32   O17   A    
C41   S11   S    
C23   H1    S    
C11   H7    S    
C35   O56   A    
C60   S16   S    
C53   H31   S    
O16   Zn5   S    
C44   S3    S    
O11   Zn3   S    
C17   O6    A    
H59   O63   S    
C23   S12   S    
C9    O47   S    
O66   S5    D    
H68   O81   S    
C54   C59   S    
O23   Zn6   S    
C25   C32   S    
C48   C50   S    
C6    C15   S    
O33   S14   S    
O83   S9    D    
C55   C60   S    
C7    O44   S    
H51   O47   S    
O34   Zn5   S    
O51   S18   S    
O14   Zn4   S    
H58   O60   S    
C1    O1    A    
O8    Zn4   S    
C25   C44   S    
C50   O65   S    
C52   C54   S    
C26   C43   S    
C57   H56   S    
H47   O40   S    
O40   S16   S    
C10   C21   S    
C4    C34   S    
C43   S10   S    
C10   O57   S    
C21   S2    S    
C33   O45   A    
C8    C19   S    
C44   H20   S    
C47   C49   S    
O42   S17   D    
C51   H27   S    
C29   O14   A    
C5    C7    S    
C38   S7    S    
C2    C59   S    
C55   H36   S    
C6    C8    S    
C5    H72   S    
H41   O24   S    
C39   S8    S    
O43   S17   S    
O32   S14   D    
O53   S2    D    
C27   O7    A    
O19   S1    D    
C13   C24   S    
C51   C53   S    
C25   C42   S    
O35   S15   D    
C9    C14   S    
C42   S9    S    
C54   H32   S    
C8    O46   S    
O85   S10   D    
C46   H21   S    
H55   O55   S    
C9    C20   S    
C31   O23   A    
C12   C15   S    
C52   H28   S    
C7    C18   S    
C57   H37   S    
C30   C59   S    
C5    H67   S    
C17   O4    A    
C11   H9    S    
O84   S9    S    
C38   C47   S    
O6    Zn1   S    
C24   H15   S    
C42   H25   S    
C26   C41   S    
C37   C48   S    
C50   H6    S    
C17   C56   S    
C7    H3    S    
C5    C14   S    
H57   O57   S    
C8    H4    S    
O36   S15   D    
C4    H34   S    
C31   O16   A    
O75   S7    D    
C37   S6    S    
O45   Zn5   S    
C2    H39   S    
C16   C45   S    
O28   S13   D    
O4    Zn2   S    
C33   O67   A    
C3    H23   S    
H46   O37   S    
C36   C44   S    
C28   O10   A    
C22   H14   S    
O87   S10   S    
O26   S12   D    
O59   S3    D    
C22   H11   S    
O50   S18   D    
C30   O13   A    
O62   S4    D    
C16   O3    A    
C2    C57   S    
C27   C47   S    
C40   O73   S    
C28   C48   S    
H43   O30   S    
O37   S15   S    
C18   C22   S    
C43   H26   S    
O21   S11   D    
O60   S3    S    
C6    H71   S    
C9    O55   S    
H66   O77   S    
H42   O27   S    
H61   O65   S    
C39   C43   S    
C53   C58   S    
C39   H24   S    
C2    S17   S    
C36   H18   S    
C49   O64   S    
O67   Zn6   S    
C1    C14   S    
O10   Zn3   S    
O1    Zn1   S    
C11   C22   S    
O9    Zn4   S    
H54   O54   S    
H52   O48   S    
C40   S1    S    
O79   S8    D    
C10   O48   S    
O27   S12   S    
C6    H2    S    
H69   O84   S    
C13   C15   S    
C19   C24   S    
O76   S7    D    
O81   S8    S    
C19   C35   S    
O58   S3    D    
C51   H29   S    
O82   S9    D    
O24   S11   S    
H53   O51   S    
O38   S16   D    
O5    Zn2   S    
O17   Zn6   S    
C20   S18   S    
C4    C59   S    
O18   S1    D    
O3    Zn1   S    
O13   Zn4   S    
C34   S13   S    
C1    O88   A    
C18   C20   S    
O68   S5    D    
O52   S2    D    
O54   S2    S    
H70   O87   S    
O7    Zn3   S    
C18   C33   S    
O56   Zn6   S    
C26   C46   S    
C34   H12   S    
O80   S8    D    
C3    C58   S    
C12   O12   A    
C26   C31   S    
O29   S13   D    
C29   C58   S    
C45   C55   S    
C21   H17   S    
O31   S14   D    
O15   Zn3   S    
O88   Zn2   S    
C12   O2    A    
C4    S15   S    
O77   S7    S    
C37   C46   S    
O20   S1    S    
C54   H35   S    
O72   S6    S    
C53   H33   S    
O71   S6    D    
C38   H22   S    
C52   C56   S    
O25   S12   D    
C39   C48   S    
C13   H8    S    
