data_mof_unit_25681.cif
_audit_creation_date              2012-12-10T18:12:39-0500
_audit_creation_method            fapswitch 2.2
_symmetry_space_group_name_H-M    P1
_symmetry_Int_Tables_number       1
_space_group_crystal_system       triclinic
_cell_length_a                    12.686043
_cell_length_b                    12.996484
_cell_length_c                    15.699292
_cell_angle_alpha                 92.066333
_cell_angle_beta                  102.139855
_cell_angle_gamma                 82.967115
_cell_volume                      2511.33910876

loop_
_atom_site_label
_atom_site_type_symbol
_atom_type_description
_atom_site_fract_x
_atom_site_fract_y
_atom_site_fract_z
_atom_type_partial_charge
C1    C     C_R   0.441159 0.689088 0.476020 0.909352
C2    C     C_3   0.501417 0.501213 0.917600 0.206165
C3    C     C_3   0.457235 0.416003 0.017408 -0.167285
C4    C     C_3   0.498056 0.500245 0.082367 0.205328
C5    C     C_3   0.560814 0.415000 0.979955 -0.165843
C6    C     C_3   0.601627 0.499240 0.046696 -0.165115
C7    C     C_1   0.502650 0.501384 0.826745 -0.074166
C8    C     C_1   0.496993 0.499701 0.173235 -0.083409
C9    C     C_R   0.732687 0.048845 0.512728 -0.334033
C10   C     C_R   0.595589 0.197322 0.500410 -0.144643
C11   C     C_R   0.299030 0.830029 0.401081 0.518802
C12   C     C_R   0.500836 0.500419 0.661805 0.927854
C13   C     C_R   0.274130 0.932188 0.368981 -0.281635
C14   C     C_R   0.353152 0.999449 0.381740 -0.268408
C15   C     C_R   0.462362 0.963376 0.416791 0.112040
C16   C     C_R   0.491384 0.856009 0.426606 0.017202
C17   C     C_R   0.543871 0.029626 0.445515 0.100482
C18   C     C_R   0.653830 0.987080 0.470678 0.119790
C19   C     C_R   0.682416 0.882099 0.456073 -0.240314
C20   C     C_R   0.601713 0.817576 0.431172 -0.161436
C21   C     C_R   0.517400 0.135074 0.458907 -0.352179
C22   C     C_R   0.704499 0.154678 0.529008 0.487888
C23   C     C_R   0.560115 0.307981 0.508428 0.891128
C24   C     C_R   0.409703 0.792354 0.433461 -0.231349
C25   C     C_R   0.087606 0.347480 0.374219 -0.309454
C26   C     C_R   0.804275 0.610535 0.618394 0.016723
C27   C     C_R   0.911997 0.605745 0.661353 -0.248354
C28   C     C_R   0.991261 0.550070 0.623392 -0.157998
C29   C     C_R   0.965067 0.509257 0.538191 0.012395
C30   C     C_R   0.853932 0.501652 0.504261 0.227891
C31   C     C_R   0.043939 0.466095 0.489859 -0.074307
C32   C     C_R   0.011742 0.396813 0.419833 0.169833
C33   C     C_R   0.903472 0.378559 0.394989 -0.306602
C34   C     C_R   0.499216 0.499475 0.338186 0.859997
C35   C     C_R   0.825422 0.432030 0.435311 -0.216748
C36   C     C_R   0.151172 0.493646 0.503161 0.249409
C37   C     C_R   0.193630 0.371390 0.394368 -0.026330
C38   C     C_3   0.438650 0.586470 0.020026 -0.160417
C39   C     C_3   0.542235 0.585465 0.982554 -0.163548
C40   C     C_1   0.502533 0.501111 0.751249 -0.166095
C41   C     C_1   0.497322 0.499428 0.248746 -0.169526
C42   C     C_3   0.397838 0.502224 0.953268 -0.156193
H1    H     H_    0.577052 0.654684 0.966159 0.134863
H2    H     H_    0.434283 0.169383 0.440903 0.181405
H3    H     H_    0.327415 0.078355 0.360577 0.148917
H4    H     H_    0.193018 0.962975 0.337233 0.138776
H5    H     H_    0.627336 0.737709 0.416646 0.188112
H6    H     H_    0.253068 0.333525 0.359647 0.133892
H7    H     H_    0.878486 0.324033 0.342905 0.154418
H8    H     H_    0.064655 0.291946 0.322502 0.144353
H9    H     H_    0.741362 0.648795 0.649377 0.144729
H10   H     H_    0.388629 0.656481 0.038569 0.136712
H11   H     H_    0.071381 0.534247 0.663477 0.172438
H12   H     H_    0.933350 0.640197 0.725539 0.153450
H13   H     H_    0.744911 0.411630 0.415223 0.212129
H14   H     H_    0.684880 0.497978 0.087088 0.135721
H15   H     H_    0.610846 0.344982 0.961439 0.136134
H16   H     H_    0.422418 0.346781 0.033800 0.134085
H17   H     H_    0.314587 0.503488 0.912870 0.138604
H18   H     H_    0.766586 0.848838 0.467610 0.155043
H19   H     H_    0.814322 0.013229 0.537281 0.152300
N1    N     N_R   0.222180 0.444680 0.455580 -0.105722
N2    N     N_R   0.776980 0.554790 0.543960 -0.135240
O1    O     O_R   0.366730 0.627160 0.478790 -0.520925
O2    O     O_R   0.544830 0.662520 0.507160 -0.639889
O3    O     O_R   0.410960 0.482330 0.609040 -0.585301
O4    O     O_R   0.589060 0.517690 0.637410 -0.615697
O5    O     O_R   0.455170 0.337480 0.492840 -0.631629
O6    O     O_R   0.633270 0.372840 0.521210 -0.586188
O7    O     O_R   0.410940 0.482310 0.362590 -0.609072
O8    O     O_R   0.589040 0.517670 0.390960 -0.655687
Zn1   Zn    Zn3+2 0.381080 0.476390 0.481050 0.988820
Zn2   Zn    Zn3+2 0.618920 0.523610 0.518950 0.933016
O9    O     O_3   0.221042 0.761755 0.396151 -0.622043
C43   C     C_3   0.114238 0.808919 0.396366 0.120946
H20   H     H_    0.064059 0.744389 0.395483 0.190257
H21   H     H_    0.077819 0.851798 0.335281 0.100569
C44   C     C_3   0.107125 0.877013 0.478029 -0.356604
H22   H     H_    0.170022 0.846760 0.534568 0.261925
H23   H     H_    0.121924 0.957215 0.466553 0.193149
C45   C     C_3   0.995960 0.881549 0.501066 -0.967887
H24   H     H_    0.932712 0.917769 0.447120 0.252787
H25   H     H_    0.995428 0.928488 0.561340 0.268608
H26   H     H_    0.977695 0.802557 0.513158 0.284294
I1    I     I_    0.199247 0.625435 0.581308 -0.383439
O10   O     O_3   0.776028 0.213758 0.583290 -0.632121
C46   C     C_3   0.880058 0.204420 0.562344 0.095406
H27   H     H_    0.899482 0.283830 0.554714 0.186257
H28   H     H_    0.885707 0.162459 0.499890 0.117111
C47   C     C_3   0.965392 0.155425 0.638154 -0.351652
H29   H     H_    0.961042 0.201794 0.698484 0.236637
H30   H     H_    0.948860 0.075681 0.649312 0.212916
C48   C     C_3   0.079512 0.151988 0.620308 -0.951059
H31   H     H_    0.085773 0.106991 0.559792 0.266473
H32   H     H_    0.139578 0.114255 0.675465 0.268916
H33   H     H_    0.099183 0.231819 0.613121 0.269092

loop_
_geom_bond_atom_site_label_1
_geom_bond_atom_site_label_2
_ccdc_geom_bond_type
C46   H27   S    
C3    C42   S    
C48   H31   S    
C11   C13   A    
C23   O6    A    
C19   C20   A    
C4    C8    S    
C37   N1    A    
C27   H12   S    
C10   C22   A    
C26   C27   A    
C30   C35   A    
C9    H19   S    
C28   C29   A    
C38   C42   S    
C31   C36   A    
C5    C6    S    
C44   H23   S    
C9    C22   A    
C38   H10   S    
C33   H7    S    
C15   C16   A    
C11   C24   A    
O2    Zn2   S    
C18   C19   A    
C25   H8    S    
C43   H20   S    
C25   C37   A    
C2    C39   S    
O3    Zn1   S    
C2    C7    S    
C1    O2    A    
C7    C40   T    
O6    Zn2   S    
O4    Zn2   S    
C34   O7    A    
O5    Zn1   S    
C25   C32   A    
C22   O10   S    
C48   H32   S    
C30   N2    A    
C34   C41   S    
C36   N1    A    
C45   H25   S    
C45   H24   S    
C14   H3    S    
C10   C21   A    
C38   C39   S    
C12   O4    A    
O9    C43   S    
C35   H13   S    
C8    C41   T    
C4    C6    S    
O8    Zn2   S    
O10   C46   S    
C39   H1    S    
N2    Zn2   S    
C12   O3    A    
C17   C21   A    
C23   O5    A    
C12   C40   S    
C26   N2    A    
C29   C30   A    
C21   H2    S    
C47   H30   S    
C31   C32   A    
C16   C20   A    
C17   C18   A    
N1    Zn1   S    
C37   H6    S    
C43   H21   S    
C4    C38   S    
C48   H33   S    
C46   H28   S    
C36   I1    S    
C2    C5    S    
C3    C4    S    
C1    O1    A    
C45   H26   S    
C47   C48   S    
C15   C17   A    
C6    C39   S    
C6    H14   S    
C3    C5    S    
C11   O9    S    
C42   H17   S    
C28   H11   S    
C10   C23   S    
C5    H15   S    
C32   C33   A    
C29   C31   A    
C26   H9    S    
C44   H22   S    
C44   C45   S    
C47   H29   S    
C13   H4    S    
C2    C42   S    
C33   C35   A    
O1    Zn1   S    
C43   C44   S    
C20   H5    S    
C3    H16   S    
C9    C18   A    
C1    C24   S    
C16   C24   A    
C46   C47   S    
C27   C28   A    
C14   C15   A    
C19   H18   S    
O7    Zn1   S    
C13   C14   A    
C34   O8    A    
