data_mof_unit_53656.cif
_audit_creation_date              2012-12-10T18:43:10-0500
_audit_creation_method            fapswitch 2.2
_symmetry_space_group_name_H-M    P1
_symmetry_Int_Tables_number       1
_space_group_crystal_system       triclinic
_cell_length_a                    10.658746
_cell_length_b                    9.883106
_cell_length_c                    10.726107
_cell_angle_alpha                 89.467028
_cell_angle_beta                  90.445286
_cell_angle_gamma                 89.897173
_cell_volume                      1129.81940295

loop_
_atom_site_label
_atom_site_type_symbol
_atom_type_description
_atom_site_fract_x
_atom_site_fract_y
_atom_site_fract_z
_atom_type_partial_charge
C1    C     C_R   0.260363 0.500084 0.495865 0.921923
C2    C     C_R   0.937104 0.413695 0.570142 -0.186987
C3    C     C_R   0.872031 0.500444 0.489916 -0.095745
C4    C     C_R   0.127819 0.499939 0.487538 -0.089227
C5    C     C_R   0.933111 0.586981 0.404788 -0.088983
C6    C     C_R   0.064065 0.586454 0.402849 -0.087267
C7    C     C_R   0.593415 0.070644 0.559649 0.237302
C8    C     C_R   0.406306 0.072281 0.440922 0.217535
C9    C     C_R   0.593947 0.926701 0.557277 -0.097971
C10   C     C_R   0.406019 0.928420 0.442709 -0.142400
C11   C     C_2   0.860136 0.668786 0.312923 0.955771
C12   C     C_R   0.739640 0.499997 0.497716 0.879375
C13   C     C_2   0.133315 0.666800 0.307612 0.900051
C14   C     C_3   0.714297 0.102843 0.749703 -0.821980
C15   C     C_3   0.304247 0.130998 0.246405 -0.706703
C16   C     C_R   0.506272 0.500693 0.262855 1.003856
C17   C     C_R   0.499136 0.499372 0.737372 0.922605
C18   C     C_2   0.543087 0.394020 0.933439 -0.154440
C19   C     C_2   0.539128 0.390536 0.067873 -0.147216
C20   C     C_2   0.494465 0.498117 0.869321 -0.310726
C21   C     C_2   0.524918 0.504354 0.131884 -0.249989
C22   C     C_R   0.065167 0.413276 0.568836 -0.197008
H1    H     H_    0.583312 0.307713 0.886681 0.175256
H2    H     H_    0.266069 0.669063 0.174708 0.331408
H3    H     H_    0.773348 0.141476 0.569368 0.234265
H4    H     H_    0.624248 0.093983 0.800615 0.244372
H5    H     H_    0.772598 0.181596 0.794994 0.242301
H6    H     H_    0.765541 0.005028 0.755923 0.235328
H7    H     H_    0.220970 0.122973 0.419529 0.231933
H8    H     H_    0.275526 0.027170 0.219513 0.235627
H9    H     H_    0.397871 0.153196 0.206883 0.231959
H10   H     H_    0.235599 0.204413 0.206472 0.252468
H11   H     H_    0.546998 0.292657 0.113898 0.160346
H12   H     H_    0.449137 0.584032 0.912043 0.145036
H13   H     H_    0.530315 0.603962 0.089091 0.149775
H14   H     H_    0.115707 0.347687 0.633532 0.153394
H15   H     H_    0.888670 0.348871 0.635977 0.157090
H16   H     H_    0.669343 0.870464 0.601676 0.163459
H17   H     H_    0.330894 0.873948 0.397356 0.181767
H18   H     H_    0.796462 0.853022 0.260425 0.339522
N1    N     N_R   0.500000 0.857200 0.500000 -0.110337
N2    N     N_R   0.500000 0.142810 0.500000 -0.115541
N3    N     N_2   0.691983 0.140607 0.620732 -0.260991
N4    N     N_2   0.307131 0.143486 0.380587 -0.253929
O1    O     O_R   0.316770 0.614620 0.499990 -0.623203
O2    O     O_R   0.850253 0.808728 0.327697 -0.759381
O3    O     O_2   0.109412 0.786712 0.291275 -0.620437
O4    O     O_R   0.225707 0.604416 0.236357 -0.819003
O5    O     O_R   0.683230 0.614620 0.500010 -0.620670
O6    O     O_R   0.316800 0.385290 0.500000 -0.603376
O7    O     O_R   0.683200 0.385290 0.500000 -0.611303
O8    O     O_R   0.500000 0.614630 0.319080 -0.607939
O9    O     O_R   0.500000 0.614630 0.680920 -0.619163
O10   O     O_R   0.500030 0.385300 0.319080 -0.609218
O11   O     O_R   0.499970 0.385300 0.680920 -0.601526
O12   O     O_2   0.806645 0.612914 0.226388 -0.655410
Zn1   Zn    Zn3+2 0.500000 0.653120 0.500000 0.976795
Zn2   Zn    Zn3+2 0.500000 0.346880 0.500000 0.987551

loop_
_geom_bond_atom_site_label_1
_geom_bond_atom_site_label_2
_ccdc_geom_bond_type
C2    C22   A    
C13   O4    S    
C15   H9    S    
C16   C21   S    
C21   H13   S    
C7    N3    S    
C14   H5    S    
C4    C22   A    
C1    O6    A    
C17   O11   A    
C9    N1    A    
C3    C5    A    
C1    C4    S    
C20   H12   S    
H3    N3    S    
C2    C3    A    
N1    Zn1   S    
C15   H10   S    
O7    Zn2   S    
N2    Zn2   S    
C14   H4    S    
C6    C13   S    
H18   O2    S    
C2    H15   S    
C1    O1    A    
O5    Zn1   S    
C4    C6    A    
C9    H16   S    
C19   C21   D    
C8    N2    A    
C15   N4    S    
C5    C11   S    
C18   C20   D    
H7    N4    S    
O10   Zn2   S    
C5    C6    A    
O1    Zn1   S    
C16   O10   A    
O11   Zn2   S    
C12   O5    A    
O8    Zn1   S    
C18   H1    S    
O6    Zn2   S    
C17   O9    A    
C12   O7    A    
C22   H14   S    
C15   H8    S    
C8    C10   A    
C18   C19   S    
C19   H11   S    
C7    N2    A    
C16   O8    A    
C7    C9    A    
O9    Zn1   S    
C10   H17   S    
C11   O2    S    
C3    C12   S    
C14   H6    S    
C13   O3    D    
C17   C20   S    
C11   O12   D    
C8    N4    S    
C14   N3    S    
C10   N1    A    
H2    O4    S    
