data_mof_unit_16561.cif
_audit_creation_date              2012-10-26T21:04:45-0400
_audit_creation_method            fapswitch 2.2
_symmetry_space_group_name_H-M    P1
_symmetry_Int_Tables_number       1
_space_group_crystal_system       triclinic
_cell_length_a                    11.687323
_cell_length_b                    12.509325
_cell_length_c                    13.16873
_cell_angle_alpha                 117.25227
_cell_angle_beta                  72.062555
_cell_angle_gamma                 101.927419
_cell_volume                      1623.46190668

loop_
_atom_site_label
_atom_site_type_symbol
_atom_type_description
_atom_site_fract_x
_atom_site_fract_y
_atom_site_fract_z
_atom_type_partial_charge
C1    C     C_R   0.512731 0.855548 0.284384 0.511607
C2    C     C_R   0.320335 0.506015 0.169034 -0.148927
C3    C     C_R   0.365640 0.625313 0.199761 -0.122840
C4    C     C_R   0.715809 0.002271 0.501182 0.516632
C5    C     C_R   0.522292 0.350026 0.871806 -0.005240
C6    C     C_R   0.391705 0.202046 0.935600 -0.015268
C7    C     C_R   0.522444 0.775529 0.155842 -0.014210
C8    C     C_R   0.715761 0.345311 0.337969 -0.157670
C9    C     C_R   0.333919 0.753741 0.650656 0.168502
C10   C     C_R   0.313698 0.666001 0.692177 -0.139499
C11   C     C_R   0.384040 0.570677 0.636812 -0.152035
C12   C     C_R   0.468761 0.230396 0.842951 0.025411
C13   C     C_R   0.474278 0.555191 0.533479 -0.032274
C14   C     C_R   0.505861 0.652112 0.495500 0.170408
C15   C     C_R   0.536321 0.446984 0.472546 -0.028293
C16   C     C_R   0.484252 0.145151 0.715662 0.535468
C17   C     C_R   0.638610 0.437325 0.379991 0.033261
C18   C     C_R   0.659154 0.513779 0.325504 0.002934
C19   C     C_R   0.607270 0.628226 0.386852 0.044373
C20   C     C_R   0.498797 0.343274 0.496668 0.040951
C21   C     C_R   0.676061 0.248528 0.365336 0.036271
C22   C     C_R   0.283778 0.999463 0.501383 0.542035
C23   C     C_R   0.599980 0.810503 0.066121 0.007206
C24   C     C_1   0.838190 0.003888 0.500603 -0.044991
C25   C     C_1   0.940268 0.002256 0.500998 -0.053999
C26   C     C_1   0.059193 0.999139 0.501740 -0.054908
C27   C     C_1   0.161370 0.997685 0.502004 -0.038490
C28   C     C_R   0.341286 0.295536 0.041851 -0.130653
C29   C     C_3   0.371874 0.077015 0.931118 -0.265344
C30   C     C_3   0.487729 0.035794 0.927482 -0.422285
C31   C     C_3   0.726681 0.464563 0.193164 -0.283140
C32   C     C_3   0.639929 0.437027 0.116930 -0.430585
C33   C     C_3   0.233578 0.836767 0.701518 -0.234999
C34   C     C_R   0.609452 0.729585 0.945807 0.015069
C35   C     C_3   0.131792 0.777574 0.638190 -0.421866
C36   C     C_3   0.685068 0.707792 0.325725 -0.286094
C37   C     C_3   0.652760 0.368078 0.805192 -0.278443
C38   C     C_3   0.735248 0.276537 0.786578 -0.433292
C39   C     C_3   0.672527 0.931918 0.097840 -0.381801
C40   C     C_3   0.680835 0.763360 0.846173 -0.402820
C41   C     C_R   0.556049 0.612081 0.916517 -0.127087
C42   C     C_R   0.495946 0.570929 0.003304 0.005628
C43   C     C_R   0.461542 0.658133 0.121023 0.000184
C44   C     C_R   0.463094 0.446016 0.975831 0.021704
C45   C     C_R   0.372348 0.415729 0.060791 0.015568
Cu1   Cu    Cu3+1 0.526510 0.098270 0.475420 0.900477
Cu2   Cu    Cu3+1 0.473490 0.901730 0.524580 0.892069
H1    H     H_    0.806308 0.346612 0.283687 0.082165
H2    H     H_    0.558455 0.030262 0.846777 0.168813
H3    H     H_    0.521759 0.099431 0.006238 0.142061
H4    H     H_    0.468516 0.945149 0.927588 0.142323
H5    H     H_    0.302409 0.073674 0.009556 0.127214
H6    H     H_    0.337213 0.013059 0.855396 0.153963
H7    H     H_    0.564147 0.495708 0.164836 0.183865
H8    H     H_    0.689193 0.452600 0.037878 0.142339
H9    H     H_    0.601290 0.341921 0.089770 0.154670
H10   H     H_    0.804533 0.526756 0.175402 0.129017
H11   H     H_    0.768604 0.379057 0.156932 0.135545
H12   H     H_    0.415550 0.335764 0.558319 0.116269
H13   H     H_    0.064344 0.843719 0.669450 0.131933
H14   H     H_    0.166962 0.745144 0.541324 0.176062
H15   H     H_    0.085975 0.699405 0.657448 0.130409
H16   H     H_    0.194226 0.856072 0.796075 0.081904
H17   H     H_    0.264502 0.925783 0.702090 0.190374
H18   H     H_    0.780103 0.713079 0.329152 0.088806
H19   H     H_    0.680249 0.668402 0.232888 0.100227
H20   H     H_    0.676238 0.797389 0.342328 0.177476
H21   H     H_    0.727637 0.271544 0.870351 0.139772
H22   H     H_    0.712737 0.185423 0.721851 0.163886
H23   H     H_    0.364085 0.508627 0.676966 0.101234
H24   H     H_    0.830467 0.303719 0.752171 0.136838
H25   H     H_    0.655380 0.364598 0.718794 0.175033
H26   H     H_    0.695803 0.456766 0.855546 0.137779
H27   H     H_    0.725580 0.944079 0.159828 0.128339
H28   H     H_    0.738993 0.942607 0.021897 0.109230
H29   H     H_    0.611097 0.005286 0.137769 0.155683
H30   H     H_    0.778387 0.776312 0.843659 0.124546
H31   H     H_    0.669624 0.692248 0.759025 0.129729
H32   H     H_    0.650384 0.847352 0.857790 0.132164
H33   H     H_    0.238935 0.668800 0.766444 0.101428
H34   H     H_    0.248851 0.483571 0.233153 0.106399
H35   H     H_    0.279583 0.274699 0.112149 0.105461
H36   H     H_    0.563131 0.551580 0.824578 0.110709
H37   H     H_    0.322984 0.691334 0.285055 0.151038
H38   H     H_    0.732312 0.174503 0.328560 0.120852
N1    N     N_R   0.566700 0.246290 0.438210 -0.232752
N2    N     N_R   0.434010 0.754320 0.561170 -0.215578
O1    O     O_R   0.533340 0.972510 0.318140 -0.494621
O2    O     O_R   0.488570 0.806530 0.359650 -0.511120
O3    O     O_R   0.685190 0.083000 0.479260 -0.501744
O4    O     O_R   0.640410 0.917020 0.520770 -0.500936
O5    O     O_R   0.511430 0.193470 0.640350 -0.495745
O6    O     O_R   0.466660 0.027490 0.681860 -0.512097
O7    O     O_R   0.359590 0.082980 0.479230 -0.484753
O8    O     O_R   0.314810 0.917000 0.520740 -0.514917

loop_
_geom_bond_atom_site_label_1
_geom_bond_atom_site_label_2
_ccdc_geom_bond_type
C30   H4    S    
C5    C37   S    
C22   O7    A    
C41   C42   A    
C11   H23   S    
C3    C43   A    
C26   C27   T    
C29   C30   S    
C34   C40   S    
C31   H11   S    
C14   N2    A    
C19   C36   S    
C6    C12   A    
C4    C24   S    
C36   H19   S    
Cu1   O5    S    
C41   H36   S    
C18   C19   A    
C22   O8    A    
C39   H27   S    
C38   H24   S    
C6    C28   A    
C12   C16   S    
C20   N1    A    
C39   H28   S    
C9    C10   A    
C32   H8    S    
Cu1   O1    S    
C7    C23   A    
C4    O4    A    
C1    O1    A    
C30   H3    S    
C38   H22   S    
C13   C14   A    
C9    C33   S    
Cu2   O2    S    
C34   C41   A    
C42   C44   A    
C32   H7    S    
C17   C18   A    
C4    O3    A    
C2    C45   A    
Cu2   O6    S    
C15   C20   A    
C21   H38   S    
C28   C45   A    
C36   H20   S    
C28   H35   S    
C24   C25   T    
C5    C12   A    
C10   H33   S    
C36   H18   S    
C25   C26   S    
C35   H13   S    
Cu2   N2    S    
C8    H1    S    
C37   C38   S    
C31   C32   S    
Cu1   O7    S    
C33   H16   S    
C23   C34   A    
C8    C21   A    
C16   O6    A    
C40   H32   S    
C35   H14   S    
C39   H29   S    
C20   H12   S    
C30   H2    S    
C38   H21   S    
C16   O5    A    
C7    C43   A    
C22   C27   S    
C13   C15   A    
C40   H31   S    
C42   C43   A    
C44   C45   A    
C15   C17   A    
C37   H26   S    
Cu1   Cu2   S    
C1    O2    A    
C1    C7    S    
Cu2   O4    S    
C14   C19   A    
C5    C44   A    
C21   N1    A    
Cu1   O3    S    
C8    C17   A    
C31   H10   S    
C2    C3    A    
C9    N2    A    
C11   C13   A    
C29   H6    S    
C33   H17   S    
C23   C39   S    
C33   C35   S    
C35   H15   S    
C10   C11   A    
C6    C29   S    
C37   H25   S    
C3    H37   S    
Cu2   O8    S    
C40   H30   S    
C2    H34   S    
C18   C31   S    
C32   H9    S    
Cu1   N1    S    
C29   H5    S    
