data_mof_unit_31397.cif
_audit_creation_date              2012-12-11T14:03:23-0500
_audit_creation_method            fapswitch 2.2
_symmetry_space_group_name_H-M    P1
_symmetry_Int_Tables_number       1
_space_group_crystal_system       triclinic
_cell_length_a                    6.936938
_cell_length_b                    11.411943
_cell_length_c                    18.675057
_cell_angle_alpha                 90.000048
_cell_angle_beta                  92.773896
_cell_angle_gamma                 89.999949
_cell_volume                      1476.65886533

loop_
_atom_site_label
_atom_site_type_symbol
_atom_type_description
_atom_site_fract_x
_atom_site_fract_y
_atom_site_fract_z
_atom_type_partial_charge
O1    O     O_R   0.330540 0.606360 0.598870 -0.537551
O2    O     O_R   0.669460 0.106360 0.401130 -0.537551
O3    O     O_R   0.026770 0.620470 0.750430 -0.541213
O4    O     O_R   0.973230 0.120470 0.249570 -0.541214
O5    O     O_R   0.856460 0.393640 0.750930 -0.539534
O6    O     O_R   0.143540 0.893640 0.249070 -0.539536
C1    C     C_R   0.198495 0.648307 0.774581 0.690173
C2    C     C_R   0.801505 0.148307 0.225419 0.690172
O7    O     O_R   0.000920 0.620350 0.599420 -0.548719
O8    O     O_R   0.999080 0.120350 0.400580 -0.548719
O9    O     O_R   0.830430 0.393520 0.598850 -0.537945
O10   O     O_R   0.169570 0.893520 0.401150 -0.537944
C3    C     C_R   0.166717 0.647850 0.574533 0.767014
C4    C     C_R   0.833283 0.147850 0.425467 0.767015
O11   O     O_R   0.356570 0.606480 0.750960 -0.539120
O12   O     O_R   0.643430 0.106480 0.249040 -0.539118
O13   O     O_3   0.176990 0.425580 0.674890 -0.374025
O14   O     O_3   0.823010 0.925580 0.325110 -0.374025
V1    V     V_3+5 0.902170 0.513810 0.674910 1.412408
V2    V     V_3+5 0.097830 0.013810 0.325090 1.412406
O15   O     O_R   0.500800 0.379530 0.599380 -0.549050
O16   O     O_R   0.499200 0.879530 0.400620 -0.549051
C5    C     C_R   0.666610 0.352030 0.574504 0.765582
C6    C     C_R   0.333390 0.852030 0.425496 0.765582
O17   O     O_R   0.526650 0.379650 0.750390 -0.543698
O18   O     O_R   0.473350 0.879650 0.249610 -0.543696
C7    C     C_R   0.698373 0.351433 0.774322 0.700908
C8    C     C_R   0.301628 0.851433 0.225678 0.700909
V3    V     V_3+5 0.402160 0.486190 0.674900 1.409696
V4    V     V_3+5 0.597840 0.986190 0.325100 1.409697
O19   O     O_3   0.677210 0.574420 0.674910 -0.372530
O20   O     O_3   0.322790 0.074420 0.325090 -0.372530
C9    C     C_R   0.697077 0.071440 0.879687 -0.158242
C10   C     C_R   0.302992 0.571441 0.120312 -0.158241
H1    H     H_    0.708866 0.940470 0.996891 0.138639
H2    H     H_    0.291245 0.440471 0.003107 0.138637
H3    H     H_    0.681195 0.978442 0.869110 0.131179
H4    H     H_    0.318906 0.478444 0.130888 0.131180
C11   C     C_R   0.712996 0.269053 0.834248 -0.035620
C12   C     C_R   0.287008 0.769052 0.165752 -0.035624
C13   C     C_R   0.805304 0.350709 0.180619 -0.181328
C14   C     C_R   0.194657 0.850708 0.819382 -0.181325
C15   C     C_R   0.799863 0.432497 0.125486 -0.117993
C16   C     C_R   0.200087 0.932496 0.874515 -0.117990
C17   C     C_R   0.777860 0.396405 0.054305 -0.166785
C18   C     C_R   0.222110 0.896403 0.945696 -0.166778
C19   C     C_R   0.760196 0.276026 0.036332 0.068583
C20   C     C_R   0.239804 0.776025 0.963668 0.068581
C21   C     C_R   0.763312 0.192630 0.093316 0.066158
C22   C     C_R   0.236707 0.692630 0.906683 0.066154
C23   C     C_R   0.739933 0.235612 0.963879 0.067900
C24   C     C_R   0.260080 0.735611 0.036121 0.067900
C25   C     C_R   0.720443 0.113367 0.950251 0.137361
C26   C     C_R   0.279610 0.613368 0.049748 0.137364
C27   C     C_R   0.723442 0.033703 0.006984 -0.211201
C28   C     C_R   0.276637 0.533703 0.993015 -0.211200
C29   C     C_R   0.745131 0.072421 0.077340 -0.211189
C30   C     C_R   0.254928 0.572421 0.922659 -0.211188
C31   C     C_R   0.737560 0.312121 0.904211 -0.223680
C32   C     C_R   0.262424 0.812120 0.095789 -0.223676
C33   C     C_R   0.691869 0.148988 0.822078 -0.188331
C34   C     C_R   0.308178 0.648988 0.177921 -0.188329
C35   C     C_R   0.786620 0.231259 0.165369 -0.077538
C36   C     C_R   0.213377 0.731259 0.834631 -0.077541
H5    H     H_    0.824619 0.380644 0.235568 0.103860
H6    H     H_    0.175321 0.880643 0.764433 0.103860
H7    H     H_    0.813850 0.524878 0.137954 0.135785
H8    H     H_    0.186074 0.024877 0.862048 0.135785
H9    H     H_    0.747052 0.006846 0.119257 0.129491
H10   H     H_    0.253025 0.506848 0.880742 0.129495
C37   C     C_2   0.831967 0.233665 0.484676 -0.351635
C38   C     C_2   0.168032 0.733665 0.515324 -0.351635
C39   C     C_2   0.667943 0.266207 0.515300 -0.350855
C40   C     C_2   0.332057 0.766206 0.484700 -0.350854
H11   H     H_    0.530293 0.229463 0.496292 0.150121
H12   H     H_    0.469707 0.729463 0.503708 0.150121
H13   H     H_    0.670963 0.115467 0.767984 0.105749
H14   H     H_    0.329102 0.615469 0.232015 0.105750
H15   H     H_    0.751613 0.405717 0.909961 0.104077
H16   H     H_    0.248333 0.905715 0.090040 0.104077
H17   H     H_    0.775368 0.465211 0.014841 0.122945
H18   H     H_    0.224593 0.965209 0.985160 0.122944
H19   H     H_    0.969618 0.270410 0.503683 0.150145
H20   H     H_    0.030382 0.770410 0.496317 0.150145

loop_
_geom_bond_atom_site_label_1
_geom_bond_atom_site_label_2
_ccdc_geom_bond_type
C21   C35   A    
C22   C36   A    
C4    C37   S    
O4    C2    A    
V1    O19   S    
C21   C29   A    
C19   C21   A    
O9    V1    S    
C40   H12   S    
C12   C32   A    
O3    C1    A    
C8    C12   S    
O12   V4    S    
C10   C34   A    
C12   C34   A    
C17   C19   A    
O7    C3    A    
C24   C32   A    
O5    C7    A    
O7    V1    S    
O6    C8    A    
C33   H13   S    
O3    V1    S    
O14   V4    S    
O8    V2    S    
C20   C22   A    
C2    O12   A    
C18   H18   S    
C9    C25   A    
C13   C15   A    
C14   C16   A    
C5    C39   S    
C24   C26   A    
O11   V3    S    
C37   H19   S    
C25   C27   A    
O17   V3    S    
C11   C33   A    
C26   C28   A    
H1    C27   S    
C22   C30   A    
C38   C40   D    
O8    C4    A    
C31   H15   S    
C37   C39   D    
C30   H10   S    
C13   H5    S    
C1    O11   A    
C16   C18   A    
O15   V3    S    
C9    H3    S    
C23   C25   A    
H2    C28   S    
C11   C31   A    
O10   V2    S    
O1    V3    S    
C15   C17   A    
C38   H20   S    
C15   H7    S    
C10   C26   A    
C27   C29   A    
O16   C6    A    
C16   H8    S    
O1    C3    A    
C39   H11   S    
C14   C36   A    
V2    O20   S    
C32   H16   S    
O16   V4    S    
C10   H4    S    
C34   H14   S    
C17   H17   S    
C19   C23   A    
O18   V4    S    
O5    V1    S    
C3    C38   S    
O17   C7    A    
O6    V2    S    
O10   C6    A    
O18   C8    A    
O2    V4    S    
O15   C5    A    
V3    O19   S    
O13   V3    S    
V4    O20   S    
C6    C40   S    
C7    C11   S    
O9    C5    A    
O13   V1    S    
C28   C30   A    
O14   V2    S    
O2    C4    A    
C1    C36   S    
C2    C35   S    
O4    V2    S    
C18   C20   A    
C20   C24   A    
C23   C31   A    
C9    C33   A    
C14   H6    S    
C13   C35   A    
C29   H9    S    
