data_mof_unit_31299.cif
_audit_creation_date              2012-12-11T15:55:57-0500
_audit_creation_method            fapswitch 2.2
_symmetry_space_group_name_H-M    P1
_symmetry_Int_Tables_number       1
_space_group_crystal_system       triclinic
_cell_length_a                    11.031973
_cell_length_b                    11.22994
_cell_length_c                    18.711478
_cell_angle_alpha                 91.366822
_cell_angle_beta                  90.57169
_cell_angle_gamma                 58.537634
_cell_volume                      1976.75921825

loop_
_atom_site_label
_atom_site_type_symbol
_atom_type_description
_atom_site_fract_x
_atom_site_fract_y
_atom_site_fract_z
_atom_type_partial_charge
C1    C     C_R   0.357685 0.771636 0.398387 0.540752
C2    C     C_R   0.249575 0.433393 0.201897 -0.165548
C3    C     C_R   0.241844 0.442497 0.276164 -0.038933
C4    C     C_R   0.382104 0.351363 0.389081 0.530322
C5    C     C_R   0.902695 0.813399 0.380595 -0.061086
C6    C     C_R   0.932901 0.682204 0.400808 -0.095238
C7    C     C_R   0.042378 0.562473 0.366914 -0.042727
C8    C     C_R   0.120911 0.571573 0.310646 0.063371
C9    C     C_R   0.348736 0.329035 0.315236 -0.031486
C10   C     C_R   0.926325 0.314600 0.191997 0.012416
C11   C     C_R   0.805879 0.313870 0.210713 0.021498
C12   C     C_R   0.620981 0.095688 0.171194 0.089235
C13   C     C_R   0.770473 0.316856 0.280769 -0.015846
C14   C     C_R   0.983568 0.304859 0.319083 -0.163838
C15   C     C_R   0.020811 0.301835 0.246861 -0.173010
C16   C     C_R   0.782933 0.373892 0.405271 0.532330
C17   C     C_3   0.654710 0.398394 0.187200 -0.261597
C18   C     C_3   0.615906 0.395373 0.264873 -0.274311
C19   C     C_R   0.850094 0.326293 0.335923 0.010785
C20   C     C_R   0.337371 0.888204 0.183898 0.050385
C21   C     C_R   0.462525 0.776034 0.211775 -0.006445
C22   C     C_R   0.463311 0.736754 0.281246 -0.027097
C23   C     C_R   0.359440 0.315544 0.165689 -0.012302
C24   C     C_R   0.225734 0.932053 0.301170 -0.158152
C25   C     C_R   0.220307 0.965138 0.229754 -0.143954
C26   C     C_3   0.613562 0.744467 0.224341 0.083526
C27   C     C_3   0.615590 0.683863 0.294569 -0.170715
C28   C     C_R   0.341393 0.772000 0.603363 0.550124
C29   C     C_R   0.349576 0.818789 0.327355 0.048918
C30   C     C_R   0.276228 0.273476 0.802737 0.050977
C31   C     C_R   0.395133 0.173233 0.764270 0.011292
C32   C     C_R   0.414557 0.192130 0.694142 0.024404
C33   C     C_R   0.187329 0.407082 0.693040 -0.155349
C34   C     C_R   0.454390 0.207075 0.278593 -0.120765
C35   C     C_R   0.166371 0.385802 0.764850 -0.113052
C36   C     C_3   0.550130 0.106721 0.781184 -0.258914
C37   C     C_3   0.571963 0.124751 0.703828 -0.259537
C38   C     C_R   0.318138 0.315171 0.659162 0.020464
C39   C     C_R   0.810883 0.329411 0.836863 0.030777
C40   C     C_R   0.368335 0.350197 0.595414 0.543247
C41   C     C_R   0.739308 0.461108 0.805709 0.061262
C42   C     C_R   0.732060 0.471871 0.732695 0.055743
C43   C     C_R   0.837489 0.224522 0.717546 -0.179908
C44   C     C_R   0.848579 0.211534 0.792252 -0.167916
C45   C     C_R   0.473067 0.202572 0.204091 0.007017
C46   C     C_3   0.750179 0.588783 0.814133 -0.275497
C47   C     C_3   0.749095 0.594874 0.733371 -0.277779
C48   C     C_R   0.789272 0.355075 0.687078 0.018005
C49   C     C_R   0.294208 0.862369 0.821698 0.066873
C50   C     C_R   0.193360 0.845899 0.785643 0.023457
C51   C     C_R   0.197486 0.833479 0.712437 -0.023396
C52   C     C_R   0.759569 0.379483 0.611173 0.542191
C53   C     C_R   0.386375 0.881152 0.707432 -0.166534
C54   C     C_R   0.385485 0.888477 0.781729 -0.166793
C55   C     C_3   0.154512 0.738267 0.794898 0.097811
C56   C     C_R   0.088128 0.704977 0.290236 -0.059619
C57   C     C_3   0.159597 0.723275 0.714144 -0.212517
C58   C     C_R   0.302034 0.839233 0.672894 0.027473
C59   C     C_R   0.969111 0.292672 0.117799 0.542988
C60   C     C_R   0.330083 0.292581 0.092544 0.563378
C61   C     C_R   0.306246 0.906518 0.107402 0.536732
C62   C     C_R   0.880881 0.309818 0.905737 0.546311
C63   C     C_R   0.269595 0.254289 0.879506 0.573573
C64   C     C_R   0.897343 0.906420 0.113709 -0.075826
C65   C     C_R   0.274867 0.897033 0.897005 0.580585
C66   C     C_R   0.879895 0.988702 0.173784 -0.072765
C67   C     C_R   0.981618 0.824566 0.326344 -0.051092
C68   C     C_R   0.745357 0.075098 0.204356 -0.075099
C69   C     C_R   0.647575 0.991199 0.118061 0.016806
C70   C     C_R   0.781223 0.903628 0.087364 -0.122989
Cl1   Cl    Cl    0.635461 0.880040 0.253133 -0.732759
Cl2   Cl    Cl    0.290529 0.584988 0.837890 -0.617305
Cr1   Cr    Cr6+3 0.601740 0.606840 0.505840 0.993789
Cr2   Cr    Cr6+3 0.291500 0.601560 0.495070 1.011335
Cr3   Cr    Cr6+3 0.606780 0.291630 0.499130 1.004527
Cr4   Cr    Cr6+3 0.062440 0.063060 0.008240 1.011351
Cr5   Cr    Cr6+3 0.062950 0.375000 0.998920 1.020142
Cr6   Cr    Cr6+3 0.374550 0.061770 0.992470 0.986690
H1    H     H_    0.539095 0.126066 0.309512 0.203007
H2    H     H_    0.573326 0.330720 0.273294 0.145917
H3    H     H_    0.134033 0.993320 0.335397 0.114809
H4    H     H_    0.795635 0.828292 0.045948 0.096179
H5    H     H_    0.122352 0.048038 0.208848 0.124797
H6    H     H_    0.694545 0.669108 0.185535 0.143200
H7    H     H_    0.689796 0.572341 0.291469 0.126772
H8    H     H_    0.634680 0.728555 0.344194 0.221271
H9    H     H_    0.107421 0.500478 0.666680 0.111033
H10   H     H_    0.070516 0.462707 0.792060 0.130294
H11   H     H_    0.602457 0.995369 0.795745 0.115847
H12   H     H_    0.820062 0.906360 0.407881 0.116189
H13   H     H_    0.573006 0.171972 0.817903 0.187803
H14   H     H_    0.608986 0.198558 0.696833 0.177367
H15   H     H_    0.961332 0.926503 0.313766 0.091597
H16   H     H_    0.632819 0.024155 0.673396 0.125973
H17   H     H_    0.871926 0.132437 0.683913 0.125444
H18   H     H_    0.899960 0.107837 0.814061 0.135833
H19   H     H_    0.850556 0.571976 0.837032 0.156359
H20   H     H_    0.653419 0.677205 0.839530 0.146000
H21   H     H_    0.655867 0.688552 0.711715 0.155177
H22   H     H_    0.852493 0.569875 0.710341 0.126383
H23   H     H_    0.874553 0.672960 0.444297 0.109882
H24   H     H_    0.461856 0.895023 0.677843 0.120527
H25   H     H_    0.458306 0.911744 0.807961 0.131060
H26   H     H_    0.046331 0.782500 0.817777 0.121689
H27   H     H_    0.002051 0.836441 0.091541 0.137696
H28   H     H_    0.247234 0.620453 0.693822 0.197849
H29   H     H_    0.053837 0.759061 0.689983 0.090772
H30   H     H_    0.971834 0.979452 0.199072 0.105248
H31   H     H_    0.740947 0.116403 0.256970 0.114043
H32   H     H_    0.148746 0.716219 0.248606 0.100279
H33   H     H_    0.570012 0.963947 0.105699 0.196140
H34   H     H_    0.071915 0.463153 0.388125 0.096765
H35   H     H_    0.164145 0.516911 0.171808 0.141371
H36   H     H_    0.057904 0.288414 0.361068 0.108120
H37   H     H_    0.124387 0.283446 0.233734 0.133239
H38   H     H_    0.624925 0.340122 0.149589 0.156155
H39   H     H_    0.625298 0.502912 0.168761 0.136100
H40   H     H_    0.551398 0.492348 0.295338 0.143495
O1    O     O_R   0.748670 0.497520 0.427970 -0.535331
O2    O     O_R   0.417470 0.174910 0.067830 -0.541728
O3    O     O_R   0.375160 0.946380 0.070880 -0.521421
O4    O     O_R   0.476470 0.723930 0.429450 -0.513972
O5    O     O_R   0.160500 0.919670 0.926690 -0.496248
O6    O     O_R   0.933140 0.190380 0.936050 -0.503389
O7    O     O_R   0.909010 0.403210 0.925030 -0.535962
O8    O     O_R   0.179590 0.361290 0.918480 -0.465852
O9    O     O_R   0.391360 0.170840 0.907510 -0.515285
O10   O     O_R   0.350950 0.942600 0.922260 -0.538049
O11   O     O_3   0.166650 0.166610 0.999880 -0.296952
O12   O     O_R   0.300170 0.471020 0.567120 -0.514910
O13   O     O_R   0.264730 0.744140 0.416740 -0.517833
O14   O     O_R   0.309440 0.472410 0.418220 -0.494085
O15   O     O_R   0.501630 0.260530 0.414310 -0.527465
O16   O     O_R   0.727920 0.305730 0.428950 -0.500336
O17   O     O_R   0.738670 0.496020 0.588600 -0.521198
O18   O     O_R   0.467190 0.722540 0.578350 -0.502985
O19   O     O_R   0.254720 0.742640 0.577370 -0.528046
O20   O     O_R   0.491630 0.259030 0.574940 -0.520871
O21   O     O_R   0.718640 0.304340 0.577850 -0.510108
O22   O     O_3   0.500010 0.500010 0.500020 -0.247564
O23   O     O_R   0.186620 0.923750 0.087000 -0.533158
O24   O     O_R   0.957350 0.194160 0.084660 -0.494941
O25   O     O_R   0.935120 0.407280 0.085350 -0.512882
O26   O     O_R   0.203800 0.365060 0.067090 -0.502272

loop_
_geom_bond_atom_site_label_1
_geom_bond_atom_site_label_2
_ccdc_geom_bond_type
C36   H11   S    
C66   C68   A    
C12   C69   A    
C23   C45   A    
C22   C29   A    
Cr2   O14   S    
C11   C13   A    
C41   C42   A    
C5    C67   A    
C16   O16   A    
C8    C56   A    
C62   O6    A    
Cr3   O16   S    
C7    C8    A    
C4    O14   A    
C53   C54   A    
C12   C68   A    
C26   C27   S    
C49   C65   S    
C13   C18   S    
C3    C9    A    
C36   C37   S    
Cr6   O11   S    
C10   C15   A    
C31   C36   S    
C30   C31   A    
C2    H35   S    
C20   C25   A    
C49   C54   A    
C52   O21   A    
C47   H21   S    
C7    H34   S    
C61   O3    A    
C35   H10   S    
C6    H23   S    
C20   C61   S    
C27   H7    S    
Cr6   O3    S    
C1    O4    A    
C24   C29   A    
Cr1   O17   S    
C59   O24   A    
C40   O20   A    
C43   H17   S    
C41   C46   S    
C51   C57   S    
C64   C70   A    
C43   C48   A    
C18   H40   S    
C55   Cl2   S    
C17   H39   S    
C68   H31   S    
Cr4   O23   S    
C57   H28   S    
C46   H20   S    
C59   O25   A    
Cr6   O10   S    
C21   C22   A    
C26   Cl1   S    
Cr6   O9    S    
C56   H32   S    
C21   C26   S    
C50   C51   A    
C23   C60   S    
Cr2   O19   S    
C13   C19   A    
Cr4   O6    S    
C65   O10   A    
C54   H25   S    
C64   H27   S    
C24   C25   A    
C39   C41   A    
C3    C8    S    
C16   O1    A    
C51   C58   A    
C42   C48   A    
C14   H36   S    
Cr2   O22   S    
C55   H26   S    
C47   H22   S    
C64   C66   A    
C27   H8    S    
Cr6   O2    S    
C24   H3    S    
Cr5   O25   S    
C44   H18   S    
C34   H1    S    
Cr4   O11   S    
C31   C32   A    
Cr1   O18   S    
C53   H24   S    
C1    C29   S    
C17   C18   S    
C34   C45   A    
Cr5   O11   S    
C32   C37   S    
C6    C7    A    
C30   C35   A    
C36   H13   S    
C61   O23   A    
C57   H29   S    
C46   H19   S    
C49   C50   A    
C32   C38   A    
C22   C27   S    
C55   C57   S    
C43   C44   A    
C9    C34   A    
C15   H37   S    
Cr5   O7    S    
C25   H5    S    
C39   C62   S    
C40   O12   A    
C46   C47   S    
C11   C17   S    
C26   H6    S    
C37   H14   S    
C28   O18   A    
Cr4   O5    S    
C14   C19   A    
C28   O19   A    
C5    H12   S    
C66   H30   S    
C12   C45   S    
C1    O13   A    
Cr3   O20   S    
C62   O7    A    
C53   C58   A    
Cr3   O15   S    
C39   C44   A    
Cr1   O22   S    
C28   C58   S    
C56   C67   A    
C50   C55   S    
Cr3   O22   S    
Cr2   O12   S    
C2    C3    A    
C33   H9    S    
Cr5   O26   S    
Cr3   O21   S    
C60   O26   A    
C38   C40   S    
C69   H33   S    
C5    C6    A    
C16   C19   S    
C30   C63   S    
C33   C35   A    
C37   H16   S    
C60   O2    A    
C42   C47   S    
C65   O5    A    
C69   C70   A    
C70   H4    S    
C63   O8    A    
C10   C11   A    
Cr1   O1    S    
C48   C52   S    
C20   C21   A    
C18   H2    S    
Cr1   O4    S    
C2    C23   A    
C67   H15   S    
C52   O17   A    
C14   C15   A    
C33   C38   A    
C4    C9    S    
Cr2   O13   S    
C10   C59   S    
C63   O9    A    
Cr5   O8    S    
C17   H38   S    
C4    O15   A    
Cr4   O24   S    
