data_mof_unit_66075.cif
_audit_creation_date              2013-03-05T16:35:07-0500
_audit_creation_method            fapswitch 2.2
_symmetry_space_group_name_H-M    P1
_symmetry_Int_Tables_number       1
_space_group_crystal_system       triclinic
_cell_length_a                    41.590275
_cell_length_b                    35.555992
_cell_length_c                    21.659449
_cell_angle_alpha                 89.89908
_cell_angle_beta                  58.635946
_cell_angle_gamma                 90.196333
_cell_volume                      27348.9887603

loop_
_atom_site_label
_atom_site_type_symbol
_atom_site_description
_atom_site_fract_x
_atom_site_fract_y
_atom_site_fract_z
_atom_type_partial_charge
O1    O     O_R   0.944550 0.531270 0.555450 -0.572669
O2    O     O_R   0.055450 0.531270 0.444550 -0.589674
O3    O     O_R   0.444550 0.031270 0.555450 -0.564266
O4    O     O_R   0.555450 0.031270 0.444550 -0.570066
O5    O     O_R   0.944500 0.468660 0.555500 -0.591717
O6    O     O_R   0.055500 0.468660 0.444500 -0.553294
O7    O     O_R   0.444500 0.968660 0.555500 -0.600920
O8    O     O_R   0.555500 0.968660 0.444500 -0.601329
C1    C     C_R   0.926486 0.499970 0.576014 0.970432
C2    C     C_R   0.073567 0.500114 0.425621 1.037213
C3    C     C_R   0.426447 0.999975 0.576048 0.975103
C4    C     C_R   0.573500 0.000199 0.424023 0.984073
O9    O     O_R   0.999990 0.531270 0.407410 -0.563739
O10   O     O_R   0.000010 0.531270 0.592590 -0.572833
O11   O     O_R   0.499990 0.031270 0.407410 -0.582069
O12   O     O_R   0.500010 0.031270 0.592590 -0.559558
O13   O     O_R   0.999940 0.468660 0.407460 -0.556821
O14   O     O_R   0.000060 0.468660 0.592540 -0.558769
O15   O     O_R   0.499940 0.968660 0.407460 -0.553349
O16   O     O_R   0.500060 0.968660 0.592540 -0.601205
C5    C     C_R   0.999925 0.500082 0.378626 1.118574
C6    C     C_R   0.000032 0.500014 0.621382 1.094794
C7    C     C_R   0.497819 0.000032 0.380926 1.116403
C8    C     C_R   0.501115 0.999959 0.620243 1.087376
Zn1   Zn    Zn3+2 0.000000 0.541770 0.500000 1.267790
Zn2   Zn    Zn3+2 0.500000 0.041770 0.500000 1.277784
Zn3   Zn    Zn3+2 0.000000 0.458160 0.500000 1.190276
Zn4   Zn    Zn3+2 0.500000 0.958160 0.500000 1.149151
C9    C     C_3   0.961302 0.522719 0.325976 0.256918
C10   C     C_3   0.039730 0.521065 0.672541 0.261054
C11   C     C_3   0.476102 0.038308 0.309338 0.265995
C12   C     C_3   0.534740 0.029380 0.678346 0.270460
C13   C     C_3   0.959338 0.518207 0.254761 0.420457
C14   C     C_3   0.041289 0.517186 0.744344 0.423146
C15   C     C_3   0.473559 0.035425 0.238486 0.390409
C16   C     C_3   0.536694 0.025872 0.749778 0.413157
C17   C     C_3   0.035291 0.522940 0.252664 0.613773
C18   C     C_3   0.965580 0.523979 0.746169 0.611936
C19   C     C_3   0.539847 0.000063 0.249861 0.530197
C20   C     C_3   0.461920 0.014464 0.748847 0.619780
C21   C     C_3   0.999729 0.458795 0.283737 0.624581
C22   C     C_3   0.998296 0.458764 0.718429 0.627510
C23   C     C_3   0.476523 0.963503 0.308097 0.623853
C24   C     C_3   0.509396 0.959081 0.707576 0.618058
C25   C     C_3   0.998736 0.500939 0.311493 -0.418056
C26   C     C_3   0.001240 0.500769 0.688428 -0.403728
C27   C     C_3   0.497232 0.000587 0.313234 -0.377718
C28   C     C_3   0.502172 0.000594 0.687423 -0.444554
C29   C     C_3   0.999283 0.502180 0.190006 -0.373284
C30   C     C_3   0.000731 0.502387 0.809860 -0.377479
C31   C     C_3   0.499124 0.000659 0.190516 -0.335473
C32   C     C_3   0.500684 0.001925 0.809842 -0.391366
C33   C     C_3   0.034071 0.526199 0.181145 0.507779
C34   C     C_3   0.967025 0.527491 0.817405 0.518812
C35   C     C_3   0.541078 0.003377 0.175764 0.553253
C36   C     C_3   0.461996 0.018219 0.821426 0.531836
C37   C     C_3   0.003288 0.459748 0.207438 0.604954
C38   C     C_3   0.994969 0.460039 0.794495 0.605333
C39   C     C_3   0.479845 0.962457 0.232020 0.576399
C40   C     C_3   0.505318 0.959519 0.784209 0.664274
C41   C     C_R   0.671033 0.466200 0.866128 0.405592
C42   C     C_R   0.326346 0.475703 0.138306 0.405016
C43   C     C_R   0.171878 0.967507 0.859509 0.403410
C44   C     C_R   0.827070 0.974286 0.133779 0.404705
C45   C     C_R   0.631870 0.470201 0.906433 0.249799
C46   C     C_R   0.365716 0.475041 0.098881 0.254520
C47   C     C_R   0.132688 0.970782 0.901872 0.250771
C48   C     C_R   0.866444 0.974508 0.095005 0.252559
C49   C     C_R   0.614227 0.497003 0.885575 -0.394803
C50   C     C_R   0.386075 0.501380 0.114146 -0.395436
C51   C     C_R   0.114121 0.998540 0.885240 -0.393445
C52   C     C_R   0.886020 0.999859 0.114111 -0.392283
C53   C     C_R   0.636032 0.519796 0.823498 0.380671
C54   C     C_R   0.367091 0.528661 0.168917 0.377742
C55   C     C_R   0.134914 0.023453 0.826216 0.376692
C56   C     C_R   0.866181 0.024758 0.172934 0.378893
C57   C     C_R   0.675115 0.514992 0.781972 0.273902
C58   C     C_R   0.327759 0.528428 0.210148 0.287099
C59   C     C_R   0.174005 0.019508 0.782638 0.277611
C60   C     C_R   0.826926 0.023353 0.213596 0.282087
C61   C     C_R   0.692543 0.488881 0.804146 -0.265168
C62   C     C_R   0.307541 0.502199 0.194580 -0.268968
C63   C     C_R   0.192391 0.992016 0.799925 -0.266239
C64   C     C_R   0.807455 0.998833 0.193234 -0.271773
C65   C     C_1   0.732709 0.488491 0.767053 0.101607
C66   C     C_1   0.267496 0.501958 0.238034 0.109954
C67   C     C_1   0.232561 0.991716 0.760388 0.105774
C68   C     C_1   0.767360 0.999015 0.233637 0.106157
C69   C     C_1   0.766286 0.489954 0.736169 0.169413
C70   C     C_1   0.233935 0.502045 0.273182 0.164838
C71   C     C_1   0.266156 0.992753 0.728293 0.163013
C72   C     C_1   0.733798 0.999403 0.265784 0.160927
C73   C     C_R   0.827219 0.465049 0.705452 0.455709
C74   C     C_R   0.174684 0.469384 0.347994 0.345537
C75   C     C_R   0.326215 0.964403 0.693322 0.450982
C76   C     C_R   0.674439 0.968129 0.302839 0.450225
C77   C     C_R   0.866647 0.468604 0.669942 0.325097
C78   C     C_R   0.134925 0.468836 0.387080 0.354101
C79   C     C_R   0.365522 0.967018 0.660944 0.318765
C80   C     C_R   0.634926 0.968855 0.337987 0.312009
C81   C     C_R   0.885013 0.499667 0.622982 -0.372078
C82   C     C_R   0.115143 0.500598 0.384939 -0.309690
C83   C     C_R   0.384847 0.999849 0.621286 -0.385841
C84   C     C_R   0.614991 0.000978 0.378698 -0.381745
C85   C     C_R   0.863223 0.529159 0.619312 0.247078
C86   C     C_R   0.135178 0.533499 0.347369 0.214102
C87   C     C_R   0.363900 0.031551 0.622538 0.256431
C88   C     C_R   0.635291 0.033545 0.376818 0.254722
C89   C     C_R   0.823938 0.526474 0.657751 0.364083
C90   C     C_R   0.174357 0.534873 0.313066 0.360993
C91   C     C_R   0.324700 0.029376 0.657099 0.358043
C92   C     C_R   0.674494 0.033617 0.337295 0.351783
C93   C     C_R   0.806277 0.493825 0.698932 -0.194791
C94   C     C_R   0.193856 0.502551 0.313274 -0.155192
C95   C     C_R   0.306198 0.995439 0.691184 -0.194125
C96   C     C_R   0.693781 0.000456 0.302671 -0.196616
O17   O     O_R   0.968670 0.555400 0.031330 -0.577567
O18   O     O_R   0.031330 0.555400 0.968670 -0.579436
O19   O     O_R   0.468670 0.055400 0.031330 -0.603809
O20   O     O_R   0.531330 0.055400 0.968670 -0.569074
C97   C     C_R   0.000089 0.573550 0.999825 0.955613
C98   C     C_R   0.500086 0.073578 0.000176 1.013234
O21   O     O_R   0.968670 0.499940 0.123930 -0.628372
O22   O     O_R   0.031330 0.499940 0.876070 -0.626239
O23   O     O_R   0.468670 0.999940 0.123930 -0.645842
O24   O     O_R   0.531330 0.999940 0.876070 -0.632076
O25   O     O_R   0.031270 0.499990 0.061330 -0.540147
O26   O     O_R   0.968730 0.499990 0.938670 -0.538330
O27   O     O_R   0.531270 0.999990 0.061330 -0.521516
O28   O     O_R   0.468730 0.999990 0.938670 -0.558733
C99   C     C_R   0.999900 0.501947 0.121322 1.001503
C100  C     C_R   0.000122 0.502169 0.878626 0.999133
C101  C     C_R   0.499923 0.999845 0.121512 1.086635
C102  C     C_R   0.500054 0.001550 0.878627 1.014405
Zn5   Zn    Zn3+2 0.958170 0.499940 0.041830 1.197302
Zn6   Zn    Zn3+2 0.041830 0.499940 0.958170 1.195059
Zn7   Zn    Zn3+2 0.458170 0.999940 0.041830 1.176289
Zn8   Zn    Zn3+2 0.541830 0.999940 0.958170 1.197754
O29   O     O_R   0.968660 0.444490 0.031330 -0.579731
O30   O     O_R   0.031340 0.444490 0.968670 -0.576006
O31   O     O_R   0.468660 0.944490 0.031330 -0.579975
O32   O     O_R   0.531340 0.944490 0.968670 -0.590510
C103  C     C_R   0.999836 0.426362 0.000054 0.911018
C104  C     C_R   0.499864 0.926412 0.000392 0.945232
O33   O     O_R   0.499920 0.444610 0.947830 -0.612003
O34   O     O_R   0.500080 0.444610 0.052170 -0.606855
O35   O     O_R   0.999920 0.944610 0.947830 -0.610118
O36   O     O_R   0.000080 0.944610 0.052170 -0.609806
C105  C     C_R   0.499923 0.426902 0.000124 0.984880
C106  C     C_R   0.999922 0.926896 0.000123 0.983468
O37   O     O_R   0.555400 0.500060 0.892310 -0.610014
O38   O     O_R   0.444600 0.500060 0.107690 -0.607169
O39   O     O_R   0.055400 0.000060 0.892310 -0.608590
O40   O     O_R   0.944600 0.000060 0.107690 -0.608776
O41   O     O_R   0.555410 0.500090 0.996860 -0.558451
O42   O     O_R   0.444590 0.500090 0.003140 -0.568533
O43   O     O_R   0.055410 0.000090 0.996860 -0.560005
O44   O     O_R   0.944590 0.000090 0.003140 -0.563135
C107  C     C_R   0.573086 0.499715 0.926893 0.962895
C108  C     C_R   0.427048 0.500310 0.072975 0.939032
C109  C     C_R   0.073027 0.999994 0.926921 0.955785
C110  C     C_R   0.927031 0.000034 0.072986 0.950053
Zn9   Zn    Zn3+2 0.499960 0.500060 0.930220 1.150194
Zn10  Zn    Zn3+2 0.500040 0.500060 0.069780 1.147798
Zn11  Zn    Zn3+2 0.999960 0.000060 0.930220 1.154715
Zn12  Zn    Zn3+2 0.000040 0.000060 0.069780 1.149514
O45   O     O_R   0.500010 0.555520 0.947680 -0.575754
O46   O     O_R   0.499990 0.555520 0.052320 -0.592093
O47   O     O_R   0.000010 0.055520 0.947680 -0.580762
O48   O     O_R   0.999990 0.055520 0.052320 -0.588220
C111  C     C_R   0.499794 0.573112 0.000137 0.935678
C112  C     C_R   0.000200 0.073123 0.999763 0.942878
C113  C     C_R   0.496876 0.326751 0.947324 0.432044
C114  C     C_R   0.503600 0.326838 0.052966 0.430465
C115  C     C_R   0.995663 0.826753 0.948608 0.430713
C116  C     C_R   0.004912 0.826773 0.051238 0.430170
C117  C     C_R   0.496739 0.366089 0.947704 -0.235833
C118  C     C_R   0.503356 0.366168 0.052700 -0.224529
C119  C     C_R   0.995533 0.866095 0.949066 -0.234953
C120  C     C_R   0.004612 0.866116 0.051126 -0.228610
H1    H     H_    0.494009 0.381170 0.907178 0.193598
H2    H     H_    0.505963 0.381310 0.093251 0.195710
H3    H     H_    0.991809 0.881205 0.909764 0.195615
H4    H     H_    0.008195 0.881247 0.090528 0.195832
C121  C     C_R   0.499975 0.385825 0.000206 -0.099701
C122  C     C_R   0.999987 0.885807 0.000153 -0.100321
C123  C     C_R   0.500346 0.307559 0.000101 -0.001164
C124  C     C_R   0.000408 0.807515 0.999819 -0.005836
C125  C     C_1   0.500486 0.267656 0.000138 0.242461
C126  C     C_1   0.000565 0.767590 0.999691 0.238540
C127  C     C_1   0.000605 0.734081 0.999590 0.207340
C128  C     C_1   0.500534 0.234160 0.000349 0.213233
C129  C     C_R   0.033807 0.674791 0.980271 0.228191
C130  C     C_R   0.967140 0.674713 0.018680 0.228380
C131  C     C_R   0.534729 0.174964 0.961686 0.221220
C132  C     C_R   0.466199 0.174776 0.040773 0.228437
C133  C     C_R   0.033888 0.635392 0.979475 0.213982
C134  C     C_R   0.966815 0.635321 0.019500 0.212546
C135  C     C_R   0.534733 0.135577 0.961377 0.228189
C136  C     C_R   0.466011 0.135390 0.041669 0.205779
C137  C     C_R   0.000277 0.615201 0.999562 -0.322500
C138  C     C_R   0.500285 0.115283 0.001035 -0.309597
C139  C     C_R   0.000524 0.694065 0.999520 -0.214954
C140  C     C_R   0.500487 0.194166 0.000798 -0.211183
C141  C     C_R   0.523748 0.673708 0.014721 0.213073
C142  C     C_R   0.468616 0.672501 0.001849 0.225472
C143  C     C_R   0.019681 0.173510 0.026095 0.218984
C144  C     C_R   0.972454 0.172579 0.990750 0.211179
C145  C     C_R   0.525496 0.634291 0.010807 0.195761
C146  C     C_R   0.470734 0.633190 0.996619 0.184562
C147  C     C_R   0.022414 0.134215 0.020199 0.191351
C148  C     C_R   0.975147 0.133384 0.984939 0.199068
C149  C     C_R   0.499289 0.614161 0.000641 -0.333615
C150  C     C_R   0.999784 0.114188 0.000354 -0.338431
C151  C     C_R   0.495637 0.692509 0.009202 -0.215791
C152  C     C_R   0.994576 0.192323 0.011686 -0.208536
C153  C     C_1   0.496957 0.732564 0.003436 0.210645
C154  C     C_1   0.994316 0.232365 0.011568 0.222056
C155  C     C_1   0.995014 0.265900 0.010444 0.215899
C156  C     C_1   0.498617 0.766055 0.997830 0.211934
C157  C     C_R   0.030175 0.324603 0.989008 0.217858
C158  C     C_R   0.964078 0.325898 0.023907 0.209167
C159  C     C_R   0.530955 0.825162 0.989326 0.210020
C160  C     C_R   0.470013 0.825832 0.997797 0.210767
C161  C     C_R   0.031455 0.364053 0.986428 0.191746
C162  C     C_R   0.965393 0.365174 0.019482 0.193869
C163  C     C_R   0.530532 0.864589 0.993293 0.193737
C164  C     C_R   0.469108 0.865146 0.002948 0.189024
C165  C     C_R   0.999054 0.384737 0.001424 -0.361113
C166  C     C_R   0.499527 0.884871 0.000194 -0.347882
C167  C     C_R   0.996438 0.305929 0.008003 -0.217133
C168  C     C_R   0.500541 0.806125 0.992283 -0.211909
N1    N     N_R   0.962246 0.562989 0.344708 0.253523
O49   O     O_R   0.946082 0.572782 0.412272 -0.246277
O50   O     O_R   0.976595 0.589800 0.296636 -0.197463
N2    N     N_R   0.041090 0.561074 0.649997 0.251800
O51   O     O_R   0.059436 0.569725 0.581458 -0.272506
O52   O     O_R   0.027222 0.588713 0.695823 -0.199051
N3    N     N_R   0.496312 0.073371 0.308845 0.257370
O53   O     O_R   0.481868 0.094578 0.366122 -0.234354
O54   O     O_R   0.525470 0.086705 0.250397 -0.212940
N4    N     N_R   0.526994 0.068798 0.665592 0.255886
O55   O     O_R   0.545184 0.082822 0.600405 -0.232706
O56   O     O_R   0.505560 0.091635 0.717897 -0.202327
O57   O     O_3   0.037238 0.443904 0.150982 -0.691210
H5    H     H_    0.058687 0.449043 0.156856 0.381108
O58   O     O_3   0.960459 0.445205 0.851727 -0.688039
H6    H     H_    0.939133 0.451442 0.846187 0.381438
O59   O     O_3   0.500200 0.931001 0.189190 -0.737754
H7    H     H_    0.521780 0.924886 0.194039 0.389989
O60   O     O_3   0.475056 0.937123 0.837064 -0.716776
H8    H     H_    0.453158 0.937490 0.831358 0.390224
O61   O     O_3   0.067919 0.505098 0.243834 -0.718587
H9    H     H_    0.077089 0.485127 0.207409 0.373452
O62   O     O_3   0.932262 0.506983 0.755930 -0.765073
H10   H     H_    0.921785 0.487970 0.794541 0.374849
O63   O     O_3   0.557844 0.967556 0.255901 -0.754202
H11   H     H_    0.556371 0.946059 0.229083 0.381140
O64   O     O_3   0.433768 0.989932 0.753172 -0.764625
H12   H     H_    0.428536 0.968661 0.786055 0.379072
O65   O     O_3   0.068522 0.513618 0.121624 -0.736399
H13   H     H_    0.088385 0.531933 0.113984 0.388428
O66   O     O_3   0.932104 0.516250 0.877860 -0.739220
H14   H     H_    0.913045 0.535158 0.884396 0.386093
O67   O     O_3   0.563529 0.974685 0.127349 -0.720060
H15   H     H_    0.589549 0.977265 0.117639 0.357838
O68   O     O_3   0.430596 0.998842 0.877693 -0.740767
H16   H     H_    0.407584 0.012504 0.887622 0.378616
O69   O     O_3   0.686864 0.439356 0.888650 -0.639231
H17   H     H_    0.713908 0.436211 0.852248 0.374213
O70   O     O_3   0.307612 0.448969 0.121920 -0.643333
H18   H     H_    0.280163 0.453352 0.149778 0.360140
O71   O     O_3   0.188693 0.939507 0.877518 -0.640218
H19   H     H_    0.215692 0.937332 0.840122 0.374861
O72   O     O_3   0.809189 0.948764 0.113086 -0.641040
H20   H     H_    0.781537 0.950893 0.143959 0.373392
N5    N     N_R   0.609975 0.445470 0.966832 0.263269
O73   O     O_R   0.618101 0.441804 0.016981 -0.244091
O74   O     O_R   0.584712 0.423481 0.967589 -0.394247
N6    N     N_R   0.384887 0.446527 0.044890 0.263443
O75   O     O_R   0.375590 0.439989 0.997076 -0.244608
O76   O     O_R   0.409658 0.425087 0.046774 -0.387303
N7    N     N_R   0.111716 0.944452 0.959883 0.262292
O77   O     O_R   0.121068 0.938592 0.007819 -0.244055
O78   O     O_R   0.085923 0.923398 0.960451 -0.395970
N8    N     N_R   0.886419 0.947764 0.037762 0.264042
O79   O     O_R   0.877944 0.943539 0.988204 -0.243267
O80   O     O_R   0.910959 0.925415 0.038388 -0.389815
O81   O     O_3   0.620269 0.546699 0.801131 -0.634096
H21   H     H_    0.596241 0.555407 0.843047 0.367822
O82   O     O_3   0.385780 0.556706 0.182400 -0.634355
H22   H     H_    0.411022 0.560937 0.139103 0.347933
O83   O     O_3   0.118069 0.051588 0.808757 -0.635797
H23   H     H_    0.093875 0.058650 0.852233 0.359925
O84   O     O_3   0.883932 0.051752 0.190932 -0.636370
H24   H     H_    0.908373 0.058619 0.147580 0.356475
N9    N     N_R   0.697223 0.537546 0.717975 0.246862
O85   O     O_R   0.691154 0.573474 0.718830 -0.229435
O86   O     O_R   0.722561 0.521971 0.657774 -0.309442
N10   N     N_R   0.308501 0.555530 0.267134 0.266447
O87   O     O_R   0.319862 0.562153 0.311853 -0.228301
O88   O     O_R   0.281227 0.575510 0.271580 -0.324334
N11   N     N_R   0.195106 0.044188 0.721509 0.247752
O89   O     O_R   0.188343 0.080121 0.727455 -0.229684
O90   O     O_R   0.220112 0.030610 0.658837 -0.319290
N12   N     N_R   0.806969 0.047938 0.274549 0.264527
O91   O     O_R   0.816313 0.049742 0.323220 -0.230109
O92   O     O_R   0.782897 0.071930 0.276691 -0.318023
O93   O     O_3   0.808066 0.434331 0.748705 -0.700062
H25   H     H_    0.826141 0.415431 0.746084 0.410002
O94   O     O_3   0.195597 0.437879 0.341669 -0.700406
H26   H     H_    0.180827 0.415105 0.345732 0.367237
O95   O     O_3   0.306212 0.932373 0.729803 -0.703877
H27   H     H_    0.323724 0.912084 0.724340 0.409774
O96   O     O_3   0.695191 0.936770 0.265930 -0.704496
H28   H     H_    0.678142 0.915491 0.273248 0.410315
O97   O     O_3   0.886281 0.441815 0.683300 -0.698077
H29   H     H_    0.907601 0.454408 0.683186 0.382380
O98   O     O_3   0.114921 0.438179 0.429073 -0.665260
H30   H     H_    0.129806 0.425745 0.447012 0.378211
O99   O     O_3   0.384062 0.937612 0.670658 -0.697908
H31   H     H_    0.403865 0.948388 0.677901 0.384709
O100  O     O_3   0.616788 0.938302 0.330257 -0.697174
H32   H     H_    0.596485 0.947927 0.323531 0.386112
N13   N     N_R   0.880419 0.562453 0.577151 0.280363
O101  O     O_R   0.872258 0.572805 0.529261 -0.179067
O102  O     O_R   0.894951 0.587114 0.600129 -0.278128
N14   N     N_R   0.116117 0.565692 0.341827 0.276923
O103  O     O_R   0.120762 0.598594 0.362343 -0.214253
O104  O     O_R   0.097903 0.562988 0.308165 -0.310747
N15   N     N_R   0.381875 0.066779 0.590574 0.283543
O105  O     O_R   0.377372 0.081989 0.540921 -0.183619
O106  O     O_R   0.394906 0.087338 0.622444 -0.285113
N16   N     N_R   0.616610 0.067459 0.413412 0.281983
O107  O     O_R   0.620626 0.079957 0.465420 -0.185056
O108  O     O_R   0.604081 0.090074 0.383433 -0.273390
N17   N     N_R   0.925981 0.506711 0.388277 0.290176
O109  O     O_R   0.925892 0.486351 0.438280 -0.359630
O110  O     O_R   0.893718 0.519941 0.402191 -0.205720
N18   N     N_R   0.074197 0.503216 0.611970 0.286618
O111  O     O_R   0.073301 0.483027 0.562947 -0.345693
O112  O     O_R   0.107093 0.515224 0.597247 -0.233376
N19   N     N_R   0.437042 0.041576 0.373477 0.306576
O113  O     O_R   0.426986 0.025490 0.434968 -0.354417
O114  O     O_R   0.415470 0.068366 0.374491 -0.173580
N20   N     N_R   0.572531 0.019929 0.614802 0.295662
O115  O     O_R   0.576302 0.001523 0.559618 -0.405820
O116  O     O_R   0.601929 0.038369 0.605206 -0.192555
O117  O     O_3   0.804126 0.556584 0.653354 -0.616669
H33   H     H_    0.776810 0.553473 0.687741 0.371028
O118  O     O_3   0.192317 0.567830 0.277247 -0.628563
H34   H     H_    0.219654 0.566396 0.257879 0.377782
O119  O     O_3   0.305816 0.061389 0.656931 -0.622912
H35   H     H_    0.278365 0.056895 0.682817 0.374534
O120  O     O_3   0.692761 0.066778 0.334241 -0.613625
H36   H     H_    0.718544 0.066570 0.291369 0.379402
O121  O     O_3   0.493667 0.306538 0.896312 -0.688228
H37   H     H_    0.491464 0.324319 0.863384 0.369007
O122  O     O_3   0.506984 0.306712 0.103946 -0.685667
H38   H     H_    0.508998 0.324547 0.136946 0.369791
O123  O     O_3   0.991218 0.806577 0.899022 -0.681641
H39   H     H_    0.988202 0.824381 0.867108 0.368970
O124  O     O_3   0.009554 0.806617 0.100672 -0.680388
H40   H     H_    0.012355 0.824434 0.132769 0.369463
N21   N     N_R   0.067744 0.695169 0.961183 0.246527
O125  O     O_R   0.099155 0.687480 0.901707 -0.236067
O126  O     O_R   0.067498 0.721097 0.003755 -0.285641
N22   N     N_R   0.933348 0.695009 0.037580 0.245794
O127  O     O_R   0.901870 0.687152 0.097079 -0.235294
O128  O     O_R   0.933793 0.721021 0.994798 -0.288660
N23   N     N_R   0.569700 0.195399 0.921694 0.246046
O129  O     O_R   0.593602 0.187372 0.854311 -0.230856
O130  O     O_R   0.578096 0.221631 0.952872 -0.295157
N24   N     N_R   0.431408 0.195037 0.081632 0.247667
O131  O     O_R   0.408258 0.187236 0.149614 -0.227575
O132  O     O_R   0.422491 0.220974 0.050766 -0.299835
N25   N     N_R   0.068012 0.616272 0.961032 0.249041
O133  O     O_R   0.080044 0.616718 0.005720 -0.300929
O134  O     O_R   0.090294 0.604780 0.895072 -0.240276
N26   N     N_R   0.932599 0.616141 0.037751 0.249514
O135  O     O_R   0.920965 0.616311 0.992437 -0.306955
O136  O     O_R   0.909961 0.604712 0.103846 -0.237833
N27   N     N_R   0.570192 0.116631 0.922643 0.260133
O137  O     O_R   0.592928 0.117441 0.946991 -0.259014
O138  O     O_R   0.582004 0.103483 0.858330 -0.242883
N28   N     N_R   0.430622 0.116235 0.083595 0.258081
O139  O     O_R   0.405597 0.118331 0.064891 -0.278481
O140  O     O_R   0.421445 0.101292 0.145571 -0.275486
N29   N     N_R   0.551385 0.694675 0.021516 0.261774
O141  O     O_R   0.587090 0.687842 0.978808 -0.224249
O142  O     O_R   0.540944 0.720691 0.070409 -0.284166
N30   N     N_R   0.439190 0.692076 0.999098 0.261176
O143  O     O_R   0.431708 0.684288 0.949184 -0.224635
O144  O     O_R   0.418682 0.716627 0.048503 -0.265852
N31   N     N_R   0.043587 0.194391 0.043575 0.259576
O145  O     O_R   0.079732 0.188575 0.008095 -0.224585
O146  O     O_R   0.029400 0.219602 0.094365 -0.294126
N32   N     N_R   0.946849 0.192191 0.976374 0.240142
O147  O     O_R   0.947374 0.186386 0.916580 -0.248169
O148  O     O_R   0.922308 0.215315 0.023830 -0.258953
N33   N     N_R   0.553674 0.614801 0.017805 0.258385
O149  O     O_R   0.557913 0.621779 0.072118 -0.255972
O150  O     O_R   0.575696 0.590611 0.969193 -0.379267
N34   N     N_R   0.442202 0.612526 0.992577 0.223893
O151  O     O_R   0.449820 0.597662 0.931604 -0.280140
O152  O     O_R   0.407389 0.613972 0.045864 -0.303290
N35   N     N_R   0.048146 0.114756 0.034418 0.260048
O153  O     O_R   0.047469 0.120567 0.094380 -0.255904
O154  O     O_R   0.072944 0.091877 0.986688 -0.366132
N36   N     N_R   0.950620 0.112929 0.968947 0.255145
O155  O     O_R   0.960170 0.107616 0.902115 -0.257467
O156  O     O_R   0.920587 0.096586 0.020791 -0.360389
N37   N     N_R   0.062972 0.303620 0.974156 0.259102
O157  O     O_R   0.080964 0.312010 0.006677 -0.229325
O158  O     O_R   0.075166 0.276265 0.927639 -0.295997
N38   N     N_R   0.929660 0.306265 0.044423 0.257338
O159  O     O_R   0.914130 0.284600 0.101283 -0.263066
O160  O     O_R   0.912644 0.311703 0.008993 -0.233550
N39   N     N_R   0.561761 0.804414 0.984743 0.261260
O161  O     O_R   0.573090 0.811291 0.029429 -0.232678
O162  O     O_R   0.578569 0.778528 0.935894 -0.279068
N40   N     N_R   0.439648 0.805882 0.998671 0.257593
O163  O     O_R   0.404897 0.812234 0.049101 -0.225302
O164  O     O_R   0.446673 0.782066 0.947640 -0.274875
N41   N     N_R   0.065924 0.382730 0.968160 0.258938
O165  O     O_R   0.095948 0.377796 0.904782 -0.266951
O166  O     O_R   0.068588 0.400481 0.017778 -0.263855
N42   N     N_R   0.932131 0.384825 0.033960 0.259576
O167  O     O_R   0.901713 0.382738 0.097696 -0.263428
O168  O     O_R   0.930896 0.401011 0.981356 -0.266255
N43   N     N_R   0.561735 0.883750 0.990379 0.258765
O169  O     O_R   0.595721 0.878860 0.935582 -0.266803
O170  O     O_R   0.556613 0.903823 0.044897 -0.278761
N44   N     N_R   0.437873 0.884811 0.007665 0.260590
O171  O     O_R   0.410572 0.895920 0.070471 -0.276338
O172  O     O_R   0.432642 0.883860 0.953487 -0.261689
O173  O     O_3   0.931175 0.490798 0.270163 -0.631534
H41   H     H_    0.916681 0.497594 0.247123 0.396633
O174  O     O_3   0.068367 0.489162 0.731274 -0.634477
H42   H     H_    0.083520 0.496299 0.752816 0.395908
O175  O     O_3   0.435561 0.027455 0.260834 -0.623253
H43   H     H_    0.429068 0.039220 0.227144 0.402496
O176  O     O_3   0.569651 0.005231 0.731519 -0.627613
H44   H     H_    0.582481 0.015990 0.755402 0.397514
N45   N     N_R   0.946976 0.553960 0.237377 0.245433
O177  O     O_R   0.966064 0.570641 0.174845 -0.356519
O178  O     O_R   0.913942 0.567389 0.283886 -0.220580
N46   N     N_R   0.054823 0.552919 0.759471 0.246510
O179  O     O_R   0.036716 0.569961 0.821477 -0.354282
O180  O     O_R   0.088230 0.565519 0.711940 -0.228853
N47   N     N_R   0.483124 0.072183 0.199508 0.235040
O181  O     O_R   0.507807 0.075468 0.130821 -0.352486
O182  O     O_R   0.462492 0.101372 0.232652 -0.224393
N48   N     N_R   0.540858 0.063656 0.774600 0.244881
O183  O     O_R   0.518955 0.075333 0.840479 -0.380607
O184  O     O_R   0.570167 0.084193 0.731591 -0.211863
O185  O     O_3   0.036165 0.559353 0.277253 -0.594255
H45   H     H_    0.060549 0.571196 0.241157 0.418608
O186  O     O_3   0.966090 0.560344 0.719712 -0.612757
H46   H     H_    0.941581 0.572409 0.753705 0.400747
O187  O     O_3   0.559037 0.030680 0.257647 -0.672252
H47   H     H_    0.586512 0.026483 0.225264 0.366156
O188  O     O_3   0.453939 0.049713 0.730181 -0.622292
H48   H     H_    0.427202 0.055689 0.766018 0.396321
O189  O     O_3   0.029616 0.564228 0.168474 -0.658112
H49   H     H_    0.037208 0.566959 0.116979 0.389628
O190  O     O_3   0.973224 0.565421 0.827541 -0.656223
H50   H     H_    0.965839 0.568619 0.878815 0.386828
O191  O     O_3   0.556673 0.038343 0.142407 -0.625921
H51   H     H_    0.584253 0.038109 0.122095 0.367779
O192  O     O_3   0.458726 0.056525 0.840774 -0.660880
H52   H     H_    0.449416 0.058127 0.893216 0.387998
O193  O     O_3   0.030082 0.438939 0.280230 -0.759829
H53   H     H_    0.029552 0.412686 0.265214 0.367495
O194  O     O_3   0.966933 0.440140 0.723202 -0.770581
H54   H     H_    0.966131 0.413909 0.739769 0.369988
O195  O     O_3   0.492419 0.930725 0.318401 -0.737511
H55   H     H_    0.478242 0.908447 0.317376 0.364229
O196  O     O_3   0.483850 0.932752 0.707436 -0.767326
H56   H     H_    0.491931 0.907281 0.712672 0.387337
O197  O     O_3   0.965910 0.440413 0.334643 -0.612243
H57   H     H_    0.968201 0.413131 0.323557 0.384402
O198  O     O_3   0.031100 0.438976 0.668599 -0.611745
H58   H     H_    0.027448 0.411846 0.681489 0.382945
O199  O     O_3   0.438294 0.964787 0.364208 -0.646202
H59   H     H_    0.426131 0.940239 0.367098 0.382343
O200  O     O_3   0.546409 0.947630 0.655779 -0.620974
H60   H     H_    0.546382 0.936225 0.614028 0.383995
O201  O     O_3   0.973971 0.437440 0.211550 -0.648793
H61   H     H_    0.980180 0.431274 0.161821 0.365452
O202  O     O_3   0.023437 0.436934 0.791319 -0.649461
H62   H     H_    0.017100 0.431084 0.841299 0.365043
O203  O     O_3   0.442937 0.959009 0.244594 -0.642831
H63   H     H_    0.443408 0.943930 0.205561 0.391772
O204  O     O_3   0.538383 0.943679 0.776692 -0.596528
H64   H     H_    0.532949 0.934452 0.824531 0.362227

loop_
_geom_bond_atom_site_label_1
_geom_bond_atom_site_label_2
_geom_bond_distance
_ccdc_geom_bond_type
C79   C83   1.420498 A    
O186  H46   0.993996 S    
O121  H37   0.991756 S    
C67   C71   1.193877 T    
C114  O122  1.382327 S    
O204  H64   0.993408 S    
C35   O67   1.415378 S    
Zn6   O30   2.004606 S    
C162  N42   1.433926 S    
C22   C38   1.580703 S    
N17   O109  1.300028 A    
C163  N43   1.435509 S    
N11   O90   1.301364 A    
C40   O204  1.416828 S    
O173  H41   0.992242 S    
C159  C168  1.404239 A    
O72   H20   0.987828 S    
Zn5   O29   2.008331 S    
C29   C99   1.474524 S    
C57   N9    1.440229 S    
C38   O58   1.419617 S    
C4    C84   1.475944 S    
C13   O173  1.420303 S    
C75   C79   1.406537 A    
O70   H18   0.988008 S    
C9    C13   1.594876 S    
C80   C84   1.420742 A    
N41   O165  1.300954 A    
C36   O68   1.414069 S    
O16   C8    1.276672 A    
C44   C64   1.414528 A    
C11   N3    1.498094 S    
C130  N22   1.439628 S    
C115  C124  1.401197 A    
O196  H56   0.993705 S    
N42   O168  1.300324 A    
C50   C54   1.416315 A    
N4    O56   1.301694 A    
C23   O199  1.412900 S    
C132  C140  1.401610 A    
C23   C27   1.607906 S    
C144  N32   1.437620 S    
C16   O176  1.420386 S    
N37   O158  1.301251 A    
O57   H5    0.981062 S    
O28   C102  1.275609 A    
C127  C139  1.422803 S    
C112  C150  1.460279 S    
C160  C164  1.401554 A    
N22   O128  1.301326 A    
N22   O127  1.301058 A    
C116  C124  1.401176 A    
C145  N33   1.437604 S    
Zn11  O47   2.008723 S    
C160  N40   1.437827 S    
O100  H32   0.990602 S    
O60   H8    0.980922 S    
O35   C106  1.295061 A    
O25   Zn6   2.040560 S    
C47   N7    1.437148 S    
C66   C70   1.192383 T    
O31   C104  1.283892 A    
C10   C14   1.595692 S    
O15   C7    1.278100 A    
O45   C111  1.293898 A    
O16   Zn4   2.040758 S    
O191  H51   0.992029 S    
C145  C149  1.412015 A    
O7    Zn4   2.007887 S    
O39   C109  1.292892 A    
C115  O123  1.382306 S    
O13   Zn3   2.039473 S    
C146  N34   1.434582 S    
C136  N28   1.433326 S    
C58   C62   1.407645 A    
N11   O89   1.301299 A    
C48   C52   1.411940 A    
C77   O97   1.381363 S    
N12   O91   1.301171 A    
C128  C140  1.422030 S    
O9    C5    1.273785 A    
C22   O198  1.413408 S    
N6    O75   1.301204 A    
C72   C96   1.423428 S    
C76   O96   1.385195 S    
C9    N1    1.494859 S    
C118  H2    1.083251 S    
O27   C101  1.276645 A    
Zn10  O46   2.007428 S    
N14   O104  1.299758 A    
C15   C31   1.612986 S    
N29   O141  1.301263 A    
O8    Zn4   2.004151 S    
O32   C104  1.286611 A    
O20   Zn8   2.008741 S    
C17   C25   1.587056 S    
N27   O137  1.300781 A    
O17   Zn5   2.005013 S    
O194  H54   0.992917 S    
O18   Zn6   2.008741 S    
N10   O87   1.301299 A    
C19   C27   1.579127 S    
C20   C28   1.582836 S    
C51   C109  1.460579 S    
C12   N4    1.496239 S    
O3    Zn2   2.002408 S    
C64   C68   1.423945 S    
C143  N31   1.439080 S    
C3    C83   1.479470 S    
C129  C139  1.402261 A    
N46   O179  1.300459 A    
C20   O188  1.408943 S    
C97   C137  1.480929 S    
N21   O125  1.301062 A    
N38   O159  1.300978 A    
N8    O80   1.301219 A    
C46   C50   1.410809 A    
C29   C33   1.600440 S    
C134  N26   1.432912 S    
C143  C152  1.406499 A    
C31   C35   1.604495 S    
C70   C94   1.423531 S    
C54   O82   1.384109 S    
C21   O197  1.413532 S    
O3    C3    1.283331 A    
C41   C45   1.399026 A    
O24   C102  1.274337 A    
C86   N14   1.434523 S    
O99   H31   0.991117 S    
C80   O100  1.379776 S    
O122  H38   0.991757 S    
C53   C57   1.400308 A    
C76   C96   1.399581 A    
C83   C87   1.418650 A    
C55   C59   1.399443 A    
C24   C28   1.611467 S    
O44   Zn11  2.002897 S    
N26   O135  1.300669 A    
C9    N17   1.493626 S    
O117  H33   0.987762 S    
C157  C161  1.403444 A    
C32   C102  1.476413 S    
N39   O161  1.301253 A    
O30   C103  1.288337 A    
C15   O175  1.418533 S    
N33   O149  1.301205 A    
N43   O170  1.300519 A    
C119  C122  1.401826 A    
O187  H47   0.993586 S    
O59   H7    0.981425 S    
O199  H59   0.992691 S    
C141  N29   1.438448 S    
C34   O66   1.413597 S    
C12   C16   1.595682 S    
C152  C154  1.423812 S    
C147  N35   1.437454 S    
C18   O186  1.408996 S    
O65   H13   0.993734 S    
C159  C163  1.404269 A    
C91   O119  1.386212 S    
C29   C37   1.584815 S    
N2    O51   1.303181 A    
O22   C100  1.272748 A    
C124  C126  1.419593 S    
O63   H11   0.981666 S    
O43   C109  1.294711 A    
N13   O102  1.301101 A    
N24   O131  1.301161 A    
C32   C40   1.585041 S    
O5    Zn3   2.007887 S    
O29   C103  1.283941 A    
C43   O71   1.385553 S    
O46   C111  1.294568 A    
N43   O169  1.301134 A    
N2    O52   1.301919 A    
C135  C138  1.421561 A    
N48   O183  1.299963 A    
C141  C145  1.404099 A    
N1    O49   1.301541 A    
C90   C94   1.410174 A    
C16   C32   1.618544 S    
C23   C39   1.580799 S    
C17   C33   1.580134 S    
C58   N10   1.440139 S    
N5    O73   1.301117 A    
C157  N37   1.439362 S    
N9    O86   1.301374 A    
N45   O177  1.300435 A    
O71   H19   0.988417 S    
C5    C25   1.480686 S    
C44   O72   1.386070 S    
C116  O124  1.382283 S    
C7    C27   1.479101 S    
C74   O94   1.383239 S    
C42   C46   1.398469 A    
O41   C107  1.295239 A    
C8    C28   1.478653 S    
O42   C108  1.292917 A    
N34   O151  1.300690 A    
C56   O84   1.383524 S    
C17   O185  1.408381 S    
N16   O107  1.300562 A    
O33   Zn9   2.007307 S    
C132  N24   1.439514 S    
N6    O76   1.301259 A    
O34   Zn10  2.008637 S    
O21   Zn5   2.039901 S    
O37   C107  1.294545 A    
C126  C127  1.191471 T    
O5    C1    1.288016 A    
O83   H23   0.989192 S    
C114  C123  1.400976 A    
N1    O50   1.301854 A    
C142  C146  1.401876 A    
N20   O116  1.302908 A    
O198  H58   0.992681 S    
O8    C4    1.289006 A    
O197  H57   0.992658 S    
C59   N11   1.440280 S    
N3    O54   1.301498 A    
C92   O120  1.383157 S    
O15   Zn4   2.039473 S    
C135  N27   1.432969 S    
N36   O155  1.300708 A    
N41   O166  1.300581 A    
C120  C122  1.401904 A    
C136  C138  1.421584 A    
C39   O203  1.417372 S    
Zn12  O48   2.007428 S    
N19   O114  1.303171 A    
N40   O163  1.301078 A    
N32   O148  1.300356 A    
O4    C4    1.281297 A    
C73   C77   1.407775 A    
C92   C96   1.406924 A    
N42   O167  1.301047 A    
C13   N45   1.492131 S    
O185  H45   0.993771 S    
C85   C89   1.398000 A    
C113  C123  1.401045 A    
C21   C25   1.608183 S    
O39   Zn11  2.004984 S    
O14   C6    1.278596 A    
C87   C91   1.397452 A    
O40   C110  1.292530 A    
C56   C60   1.395050 A    
C155  C167  1.424036 S    
N14   O103  1.301137 A    
C60   N12   1.436793 S    
C106  C122  1.460954 S    
O68   H16   0.993721 S    
C146  C149  1.410252 A    
C115  C119  1.398906 A    
C10   C26   1.618482 S    
O10   C6    1.273625 A    
C41   C61   1.412092 A    
C130  C134  1.400647 A    
C113  O121  1.382293 S    
C35   O191  1.411337 S    
C117  H1    1.083247 S    
C76   C80   1.406734 A    
C49   C107  1.464710 S    
C50   C108  1.455805 S    
N35   O154  1.301167 A    
C18   C26   1.589340 S    
N47   O181  1.299825 A    
C120  H4    1.083266 S    
C116  C120  1.399002 A    
C147  C150  1.412533 A    
C38   O202  1.415502 S    
N7    O77   1.301122 A    
C52   C110  1.456423 S    
C53   O81   1.383042 S    
C10   N2    1.494503 S    
O203  H63   0.993481 S    
C148  N36   1.432857 S    
C61   C65   1.428076 S    
O62   H10   0.981295 S    
C142  C151  1.405583 A    
C63   C67   1.426691 S    
C105  C121  1.460528 S    
N37   O157  1.301161 A    
N21   O126  1.301342 A    
O36   Zn12  2.008637 S    
N3    O53   1.303526 A    
C60   C64   1.406654 A    
C164  C166  1.418155 A    
N44   O171  1.301129 A    
O66   H14   0.993751 S    
C24   O196  1.414848 S    
O119  H35   0.987661 S    
C153  C156  1.194872 T    
C30   C34   1.599761 S    
C131  C135  1.400479 A    
C104  C166  1.477110 S    
C34   O190  1.411061 S    
N39   O162  1.301245 A    
N18   O112  1.302759 A    
C74   C78   1.412060 A    
C13   C29   1.623502 S    
N23   O129  1.301108 A    
C117  C121  1.401848 A    
C88   N16   1.433401 S    
C22   C26   1.606327 S    
C19   C35   1.583024 S    
O118  H34   0.987563 S    
O42   Zn9   2.002897 S    
C20   C36   1.579562 S    
C39   O59   1.421553 S    
C40   O60   1.420850 S    
N12   O92   1.299932 A    
O124  H40   0.991747 S    
C49   C53   1.417356 A    
C159  N39   1.438760 S    
C114  C118  1.398516 A    
C52   C56   1.415129 A    
C42   O70   1.385837 S    
C14   N46   1.492278 S    
C18   O62   1.420882 S    
C42   C62   1.414772 A    
O96   H28   0.989559 S    
O174  H42   0.992344 S    
C11   C27   1.631927 S    
O69   H17   0.988586 S    
O12   Zn2   2.039468 S    
C12   C28   1.622813 S    
C142  N30   1.437815 S    
C19   O187  1.409019 S    
C41   O69   1.385446 S    
N17   O110  1.302482 A    
N10   O88   1.301036 A    
C69   C93   1.427403 S    
C10   N18   1.493442 S    
O22   Zn6   2.039901 S    
C30   C38   1.586730 S    
O1    C1    1.282792 A    
Zn8   O32   2.004606 S    
O84   H24   0.989202 S    
C65   C69   1.194690 T    
C131  C140  1.401721 A    
O23   Zn7   2.039901 S    
C62   C66   1.424039 S    
C73   O93   1.385179 S    
C161  C165  1.419281 A    
O188  H48   0.993935 S    
C43   C63   1.413382 A    
N46   O180  1.302355 A    
O192  H52   0.992930 S    
O195  H55   0.993032 S    
O34   C105  1.295129 A    
C79   O99   1.380471 S    
C18   C34   1.580178 S    
C2    C82   1.476607 S    
N4    O55   1.302899 A    
C73   C93   1.399666 A    
N18   O111  1.299170 A    
C30   C100  1.476420 S    
C48   N8    1.438417 S    
C90   O118  1.385850 S    
N30   O144  1.301102 A    
C6    C26   1.479251 S    
C148  C150  1.409724 A    
C17   O61   1.420088 S    
C45   N5    1.436763 S    
C11   C15   1.595680 S    
O26   Zn5   2.040555 S    
C44   C48   1.398305 A    
C84   C88   1.418700 A    
N26   O136  1.301267 A    
O175  H43   0.992577 S    
Zn7   O31   2.008331 S    
C36   O192  1.411760 S    
C33   O189  1.411147 S    
O21   C99   1.272103 A    
C12   N20   1.493656 S    
O36   C106  1.295278 A    
N30   O143  1.301152 A    
O6    C2    1.286630 A    
O4    Zn2   2.006136 S    
N31   O145  1.301244 A    
C133  N25   1.432955 S    
C164  N44   1.433625 S    
C98   C138  1.483064 S    
O25   C99   1.277384 A    
C151  C153  1.427819 S    
N28   O139  1.300904 A    
C21   C37   1.580918 S    
C55   O83   1.383409 S    
N15   O105  1.300939 A    
C78   C82   1.414321 A    
C59   C63   1.407963 A    
C129  N21   1.439627 S    
O95   H27   0.989507 S    
O61   H9    0.981190 S    
O48   C112  1.294141 A    
C24   C40   1.578330 S    
C45   C49   1.413858 A    
C71   C95   1.426135 S    
O2    Zn1   2.006136 S    
C47   C51   1.411999 A    
O10   Zn1   2.039468 S    
N13   O101  1.300991 A    
O13   C5    1.279138 A    
C11   N19   1.495027 S    
O98   H30   0.990607 S    
C111  C149  1.459764 S    
C88   C92   1.392225 A    
C89   O117  1.386188 S    
C141  C151  1.406636 A    
C54   C58   1.397372 A    
C9    C25   1.619494 S    
N29   O142  1.301233 A    
N40   O164  1.301123 A    
O40   Zn12  2.004984 S    
N48   O184  1.302437 A    
O28   Zn7   2.040555 S    
O33   C105  1.294996 A    
N38   O160  1.301101 A    
N47   O182  1.302408 A    
N19   O113  1.300654 A    
O38   C108  1.292146 A    
N7    O78   1.300776 A    
C31   C101  1.477904 S    
N9    O85   1.301305 A    
O12   C8    1.275492 A    
N28   O140  1.301030 A    
C132  C136  1.400447 A    
C74   C94   1.399376 A    
C33   O65   1.413756 S    
C14   O174  1.420601 S    
O93   H25   0.989513 S    
O7    C3    1.288852 A    
N34   O152  1.300867 A    
C37   O201  1.415590 S    
C160  C168  1.402091 A    
N8    O79   1.301191 A    
N16   O108  1.301147 A    
C158  C162  1.398524 A    
N45   O178  1.302245 A    
C143  C147  1.402847 A    
O17   C97   1.286134 A    
C19   O63   1.421469 S    
C118  C121  1.401883 A    
O27   Zn8   2.040560 S    
O120  H36   0.987787 S    
C75   C95   1.399707 A    
N23   O130  1.301295 A    
N35   O153  1.301205 A    
C46   N6    1.438844 S    
C57   C61   1.408339 A    
O35   Zn11  2.007307 S    
O67   H15   0.993035 S    
N36   O156  1.300581 A    
C144  C148  1.399132 A    
O82   H22   0.988848 S    
O11   C7    1.275270 A    
C144  C152  1.405697 A    
O1    Zn1   2.002408 S    
O9    Zn1   2.040765 S    
O26   C100  1.278057 A    
N33   O150  1.300759 A    
C20   O64   1.420906 S    
O20   C98   1.286947 A    
C119  H3    1.083268 S    
C81   C85   1.417205 A    
C43   C47   1.398930 A    
C14   C30   1.623438 S    
N25   O134  1.301258 A    
C156  C168  1.428057 S    
O19   Zn7   2.005013 S    
O190  H50   0.993113 S    
C68   C72   1.192412 T    
C75   O95   1.385470 S    
C37   O57   1.420170 S    
C21   O193  1.415704 S    
C131  N23   1.439719 S    
O11   Zn2   2.040765 S    
C158  N38   1.436586 S    
O94   H26   0.990379 S    
O193  H53   0.992954 S    
C103  C165  1.480177 S    
C78   O98   1.382110 S    
O18   C97   1.286326 A    
C125  C128  1.190993 T    
Zn9   O45   2.008723 S    
N27   O138  1.300703 A    
C87   N15   1.434879 S    
O6    Zn3   2.004151 S    
C113  C117  1.398733 A    
O202  H62   0.993214 S    
C157  C167  1.403791 A    
C134  C137  1.420362 A    
C85   N13   1.434343 S    
O189  H49   0.992960 S    
C133  C137  1.420447 A    
N15   O106  1.301195 A    
N25   O133  1.300669 A    
O38   Zn10  2.004984 S    
C23   O195  1.415325 S    
C24   O200  1.415016 S    
C16   N48   1.490538 S    
C158  C167  1.399610 A    
O37   Zn9   2.004984 S    
N5    O74   1.300734 A    
O47   C112  1.294650 A    
C31   C39   1.591830 S    
O64   H12   0.980983 S    
O2    C2    1.284040 A    
O200  H60   0.992278 S    
O81   H21   0.988671 S    
C86   C90   1.395960 A    
O19   C98   1.286551 A    
O23   C101  1.273352 A    
O24   Zn8   2.039901 S    
O14   Zn3   2.040758 S    
O43   Zn12  2.002888 S    
N44   O172  1.300491 A    
O58   H6    0.981000 S    
C89   C93   1.411105 A    
O41   Zn10  2.002888 S    
C162  C165  1.420946 A    
O123  H39   0.991748 S    
C15   N47   1.490673 S    
O201  H61   0.993261 S    
O176  H44   0.992636 S    
C51   C55   1.416625 A    
N31   O146  1.301281 A    
C154  C155  1.192536 T    
N20   O115  1.299926 A    
C129  C133  1.401019 A    
C130  C139  1.402208 A    
N24   O132  1.301273 A    
C82   C86   1.417452 A    
O97   H29   0.990839 S    
C123  C125  1.418809 S    
O44   C110  1.293022 A    
C163  C166  1.418236 A    
C161  N41   1.433441 S    
C1    C81   1.477675 S    
C22   O194  1.415681 S    
N32   O147  1.300752 A    
C91   C95   1.411491 A    
C77   C81   1.421046 A    
C32   C36   1.604446 S    
