data_mof_unit_31908.cif
_audit_creation_date              2012-12-10T18:55:12-0500
_audit_creation_method            fapswitch 2.2
_symmetry_space_group_name_H-M    P1
_symmetry_Int_Tables_number       1
_space_group_crystal_system       triclinic
_cell_length_a                    10.647111
_cell_length_b                    9.836519
_cell_length_c                    27.737626
_cell_angle_alpha                 89.943098
_cell_angle_beta                  90.087733
_cell_angle_gamma                 89.972548
_cell_volume                      2904.97053362

loop_
_atom_site_label
_atom_site_type_symbol
_atom_type_description
_atom_site_fract_x
_atom_site_fract_y
_atom_site_fract_z
_atom_type_partial_charge
C1    C     C_R   0.260555 0.500024 0.499994 0.896483
C2    C     C_R   0.739452 0.499976 0.500009 0.896666
C3    C     C_R   0.494162 0.503936 0.101868 -0.061918
C4    C     C_R   0.503731 0.504346 0.898131 -0.061916
C5    C     C_R   0.379154 0.518083 0.127055 -0.067451
C6    C     C_R   0.618746 0.518539 0.872950 -0.067394
C7    C     C_R   0.266707 0.534772 0.100405 0.007794
C8    C     C_R   0.731160 0.535191 0.899601 0.007690
C9    C     C_R   0.607507 0.488767 0.127743 -0.018396
C10   C     C_R   0.390410 0.489292 0.872251 -0.018434
C11   C     C_R   0.498199 0.500180 0.353363 -0.035248
C12   C     C_R   0.501131 0.500135 0.646640 -0.035535
C13   C     C_R   0.384645 0.499316 0.973835 0.056720
C14   C     C_R   0.613223 0.499151 0.026162 0.056718
C15   C     C_R   0.615427 0.511079 0.975290 0.035309
C16   C     C_R   0.382434 0.510990 0.024709 0.035288
C17   C     C_R   0.501358 0.505013 0.949211 0.072348
C18   C     C_R   0.496512 0.504784 0.050787 0.072350
C19   C     C_R   0.273795 0.480026 0.946698 -0.217356
C20   C     C_R   0.724087 0.479657 0.053293 -0.217439
C21   C     C_R   0.276938 0.474994 0.896861 -0.128286
C22   C     C_R   0.720969 0.474451 0.103130 -0.128235
C23   C     C_R   0.499713 0.500052 0.406005 0.882091
C24   C     C_R   0.500170 0.499975 0.593995 0.881977
C25   C     C_R   0.269554 0.530752 0.050262 -0.257461
C26   C     C_R   0.728295 0.530983 0.949743 -0.257534
C27   C     C_R   0.064900 0.442361 0.460522 -0.058123
C28   C     C_R   0.935127 0.557688 0.539471 -0.057960
C29   C     C_R   0.934876 0.442322 0.460529 -0.060744
C30   C     C_R   0.065150 0.557689 0.539470 -0.061090
C31   C     C_R   0.871964 0.499949 0.500010 -0.132594
C32   C     C_R   0.128053 0.500054 0.499992 -0.132544
C33   C     C_R   0.575179 0.071830 0.531062 -0.063433
C34   C     C_R   0.424823 0.928168 0.468937 -0.063026
C35   C     C_R   0.424820 0.072106 0.468936 -0.061843
C36   C     C_R   0.575178 0.927893 0.531065 -0.061534
C37   C     C_R   0.382371 0.515934 0.177967 0.504021
C38   C     C_R   0.615575 0.516433 0.822041 0.503635
C39   C     C_R   0.605041 0.487260 0.177990 0.509633
C40   C     C_R   0.392922 0.487834 0.822003 0.510001
C41   C     C_R   0.487604 0.623500 0.277982 -0.097180
C42   C     C_R   0.510164 0.623783 0.721899 -0.097001
C43   C     C_R   0.489566 0.623554 0.328044 -0.208504
C44   C     C_R   0.508792 0.623645 0.671842 -0.177100
C45   C     C_R   0.504748 0.376933 0.327958 -0.178722
C46   C     C_R   0.494796 0.376957 0.672166 -0.209890
C47   C     C_R   0.503123 0.377314 0.277883 -0.096378
C48   C     C_R   0.495829 0.377529 0.722249 -0.096785
C49   C     C_R   0.494541 0.500512 0.253005 0.321018
C50   C     C_R   0.503564 0.500855 0.747000 0.321131
H1    H     H_    0.511412 0.280519 0.346683 0.166115
H2    H     H_    0.488829 0.280461 0.653533 0.164129
H3    H     H_    0.635269 0.126304 0.555886 0.134074
H4    H     H_    0.364738 0.873693 0.444111 0.133066
H5    H     H_    0.364722 0.126799 0.444115 0.140237
H6    H     H_    0.635270 0.873199 0.555887 0.139318
H7    H     H_    0.508493 0.282243 0.258340 0.138806
H8    H     H_    0.490753 0.282504 0.741895 0.139308
H9    H     H_    0.514004 0.719922 0.652971 0.164971
H10   H     H_    0.484099 0.719856 0.346823 0.162764
H11   H     H_    0.516013 0.719109 0.741269 0.138430
H12   H     H_    0.481136 0.718736 0.258512 0.139103
H13   H     H_    0.189466 0.459713 0.877643 0.201075
H14   H     H_    0.808457 0.459052 0.122346 0.201203
H15   H     H_    0.183193 0.463923 0.963041 0.142450
H16   H     H_    0.814681 0.463536 0.036945 0.142495
H17   H     H_    0.181703 0.548373 0.031793 0.137709
H18   H     H_    0.816115 0.548570 0.968216 0.137728
N1    N     N_R   0.493903 0.500939 0.201695 -0.358492
N2    N     N_R   0.504082 0.501438 0.798308 -0.358518
N3    N     N_R   0.500000 0.857200 0.500000 -0.084662
N4    N     N_R   0.500000 0.142800 0.500000 -0.084991
O1    O     O_R   0.316770 0.614620 0.500000 -0.616882
O2    O     O_R   0.683230 0.385380 0.500000 -0.616860
O3    O     O_R   0.683230 0.614620 0.500000 -0.615192
O4    O     O_R   0.316770 0.385380 0.500000 -0.615339
O5    O     O_R   0.500030 0.614650 0.428760 -0.627898
O6    O     O_R   0.499970 0.385350 0.571240 -0.628070
O7    O     O_R   0.499970 0.614650 0.571240 -0.619424
O8    O     O_R   0.500030 0.385350 0.428760 -0.619492
O9    O     O_2   0.275889 0.527497 0.203926 -0.535256
O10   O     O_2   0.722073 0.528019 0.796090 -0.534892
O11   O     O_2   0.285117 0.473716 0.796785 -0.537928
O12   O     O_2   0.712882 0.473064 0.203199 -0.537548
Zn1   Zn    Zn3+2 0.500000 0.653120 0.500000 0.969911
Zn2   Zn    Zn3+2 0.500000 0.346880 0.500000 0.969609
C51   C     C_1   0.145654 0.557891 0.122588 0.268804
N5    N     N_1   0.048642 0.576618 0.140150 -0.159593
C52   C     C_1   0.852193 0.558463 0.877420 0.268758
N6    N     N_1   0.949186 0.577313 0.859860 -0.159116
C53   C     C_1   0.133476 0.386875 0.419699 0.182395
N7    N     N_1   0.188124 0.342794 0.387234 -0.190959
C54   C     C_1   0.866581 0.613347 0.580269 0.182504
N8    N     N_1   0.811983 0.657594 0.612717 -0.192072
C55   C     C_1   0.866069 0.386916 0.419689 0.198990
N9    N     N_1   0.811261 0.342892 0.387200 -0.177572
C56   C     C_1   0.133982 0.613133 0.580302 0.198879
N10   N     N_1   0.188830 0.657184 0.612778 -0.175891

loop_
_geom_bond_atom_site_label_1
_geom_bond_atom_site_label_2
_ccdc_geom_bond_type
C51   N5    T    
C38   N2    A    
C54   N8    T    
C37   N1    A    
C27   C29   A    
C8    C26   A    
C14   C18   A    
C55   N9    T    
C25   H17   S    
C56   N10   T    
C47   C49   A    
C30   C56   S    
C40   N2    A    
C36   H6    S    
C20   H16   S    
C19   C21   A    
C39   O12   S    
C5    C37   A    
C9    C22   A    
C45   H1    S    
C44   H9    S    
C46   H2    S    
C9    C39   A    
C33   C36   A    
C3    C18   A    
C10   C40   A    
C34   C35   A    
C12   C44   A    
O8    Zn2   S    
C33   N4    A    
N3    Zn1   S    
O3    Zn1   S    
C7    C51   S    
C6    C38   A    
C27   C53   S    
C23   O8    A    
C2    O2    A    
C36   N3    A    
O6    Zn2   S    
C48   C50   A    
O5    Zn1   S    
C49   N1    S    
C38   O10   S    
C41   C43   A    
C40   O11   S    
C37   O9    S    
C42   C44   A    
C41   H12   S    
C41   C49   A    
C45   C47   A    
C10   C21   A    
C33   H3    S    
C46   C48   A    
C13   C19   A    
C35   H5    S    
C14   C20   A    
C4    C6    A    
C53   N7    T    
C5    C7    A    
C15   C26   A    
C6    C8    A    
C1    C32   S    
C23   O5    A    
C28   C54   S    
C12   C46   A    
C3    C9    A    
C47   H7    S    
C24   O7    A    
C39   N1    A    
O2    Zn2   S    
C11   C43   A    
C42   H11   S    
O1    Zn1   S    
C43   H10   S    
C42   C50   A    
C4    C17   A    
C24   O6    A    
C20   C22   A    
C35   N4    A    
C34   H4    S    
C11   C45   A    
C4    C10   A    
O4    Zn2   S    
O7    Zn1   S    
C29   C55   S    
C16   C25   A    
C15   C17   A    
C27   C32   A    
C1    O4    A    
C28   C31   A    
C3    C5    A    
N4    Zn2   S    
C48   H8    S    
C12   C24   S    
C7    C25   A    
C13   C17   A    
C1    O1    A    
C28   C30   A    
C50   N2    S    
C26   H18   S    
C29   C31   A    
C30   C32   A    
C11   C23   S    
C19   H15   S    
C21   H13   S    
C22   H14   S    
C16   C18   A    
C13   C16   A    
C14   C15   A    
C2    C31   S    
C8    C52   S    
C52   N6    T    
C34   N3    A    
C2    O3    A    
