data_mof_unit_63603.cif
_audit_creation_date              2012-12-10T19:37:57-0500
_audit_creation_method            fapswitch 2.2
_symmetry_space_group_name_H-M    P1
_symmetry_Int_Tables_number       1
_space_group_crystal_system       triclinic
_cell_length_a                    10.980601
_cell_length_b                    15.907729
_cell_length_c                    17.211688
_cell_angle_alpha                 95.31258
_cell_angle_beta                  94.28715
_cell_angle_gamma                 91.415074
_cell_volume                      2983.67151431

loop_
_atom_site_label
_atom_site_type_symbol
_atom_type_description
_atom_site_fract_x
_atom_site_fract_y
_atom_site_fract_z
_atom_type_partial_charge
C1    C     C_R   0.506317 0.490046 0.348790 0.838835
C2    C     C_3   0.877164 0.496047 0.495429 -0.205065
C3    C     C_3   0.941434 0.479693 0.579107 0.559577
C4    C     C_3   0.927775 0.585421 0.475564 -0.319723
C5    C     C_R   0.511787 0.485373 0.262022 -0.222311
C6    C     C_R   0.503706 0.559611 0.222196 -0.150498
C7    C     C_R   0.475363 0.553319 0.141168 -0.154430
C8    C     C_R   0.478971 0.474387 0.096940 0.198843
C9    C     C_R   0.501370 0.401605 0.134787 0.347540
C10   C     C_R   0.518619 0.406355 0.216741 0.300900
C11   C     C_R   0.482819 0.442053 0.856775 -0.192845
C12   C     C_R   0.259635 0.500462 0.495927 0.827168
C13   C     C_R   0.470957 0.439345 0.775622 0.385585
C14   C     C_R   0.512705 0.517931 0.902905 0.169471
C15   C     C_R   0.490467 0.513974 0.738014 -0.279130
C16   C     C_R   0.508754 0.592013 0.785699 0.276999
C17   C     C_R   0.526876 0.592533 0.867233 0.349953
C18   C     C_R   0.435895 0.751847 0.460429 0.097209
C19   C     C_R   0.426982 0.840907 0.466443 -0.246949
C20   C     C_R   0.507285 0.891472 0.520236 0.274850
C21   C     C_R   0.588978 0.850123 0.569379 0.266784
C22   C     C_R   0.592267 0.760863 0.562936 -0.001352
C23   C     C_R   0.495458 0.509885 0.651366 0.974235
C24   C     C_R   0.563302 0.157920 0.535933 0.222044
C25   C     C_R   0.558624 0.246832 0.541675 0.495182
C26   C     C_R   0.485605 0.108726 0.479155 0.168834
C27   C     C_R   0.411627 0.241088 0.433328 -0.036125
C28   C     C_R   0.411349 0.151723 0.426708 0.228807
C29   C     C_R   0.739709 0.498762 0.498661 0.852976
C30   C     C_3   0.061833 0.419350 0.442901 -0.304362
C31   C     C_3   0.917696 0.425182 0.431201 -0.165065
C32   C     C_3   0.081425 0.501046 0.580665 0.140813
C33   C     C_3   0.066511 0.582155 0.460003 -0.155406
C34   C     C_3   0.121180 0.500586 0.494966 -0.179276
Cu1   Cu    Cu3+1 0.493900 0.415220 0.496180 1.088192
Cu2   Cu    Cu3+1 0.506100 0.584780 0.503820 1.019773
H1    H     H_    0.917040 0.629367 0.528778 0.182384
H2    H     H_    0.098931 0.566277 0.609119 0.157693
H3    H     H_    0.469353 0.384127 0.883993 0.246586
H4    H     H_    0.100004 0.416391 0.384711 0.155264
N1    N     N_2   0.465233 0.466925 0.014039 -0.158135
N2    N     N_2   0.526542 0.521815 0.985600 -0.147672
N3    N     N_R   0.515260 0.712130 0.509560 -0.238352
N4    N     N_2   0.504239 0.982253 0.530416 -0.091703
N5    N     N_2   0.486013 0.017798 0.468779 -0.134935
N6    N     N_R   0.484730 0.287850 0.490450 -0.282962
O1    O     O_R   0.494300 0.420530 0.382500 -0.563037
O2    O     O_R   0.504600 0.563720 0.388950 -0.600235
O3    O     O_R   0.312540 0.428400 0.496760 -0.573489
O4    O     O_R   0.322840 0.571590 0.503210 -0.591515
O5    O     O_R   0.495400 0.436280 0.611050 -0.492224
O6    O     O_R   0.505700 0.579470 0.617500 -0.558111
O7    O     O_R   0.677160 0.428410 0.496790 -0.546300
O8    O     O_R   0.687460 0.571600 0.503240 -0.605143
C35   C     C_1   0.099734 0.339309 0.474787 0.419624
N7    N     N_1   0.128634 0.276894 0.499488 -0.143956
Cl1   Cl    Cl    0.882216 0.542378 0.658260 -0.510387
Cl2   Cl    Cl    0.421728 0.340687 0.726474 -0.378090
Cl3   Cl    Cl    0.509601 0.303835 0.077833 -0.369858
Cl4   Cl    Cl    0.561849 0.313281 0.259319 -0.470858
Cl5   Cl    Cl    0.496968 0.691362 0.747839 -0.436064
C36   C     C_1   0.436283 0.627701 0.104384 0.404995
N8    N     N_1   0.404247 0.687167 0.075712 -0.131137
Cl6   Cl    Cl    0.564992 0.687933 0.926058 -0.383028
C37   C     C_1   0.537035 0.642792 0.260744 0.390199
N9    N     N_1   0.564881 0.709732 0.289791 -0.228061
Cl7   Cl    Cl    0.652200 0.303926 0.616070 -0.340100
Cl8   Cl    Cl    0.676473 0.111358 0.595208 -0.314243
Cl9   Cl    Cl    0.686981 0.910729 0.640702 -0.377236
C38   C     C_1   0.677834 0.722693 0.614677 0.485756
N10   N     N_1   0.747410 0.695088 0.658255 -0.128208
C39   C     C_1   0.335599 0.282492 0.377595 0.512342
N11   N     N_1   0.274631 0.314781 0.332039 -0.262487
C40   C     C_1   0.329286 0.878292 0.421231 0.385846
N12   N     N_1   0.250239 0.906969 0.385156 -0.128035
Cl10  Cl    Cl    0.319650 0.093225 0.350787 -0.450888
C41   C     C_1   0.363662 0.703705 0.398229 0.343836
N13   N     N_1   0.306985 0.667321 0.346077 -0.280325
C42   C     C_1   0.880284 0.445953 0.350970 0.257277
N14   N     N_1   0.850222 0.461267 0.288036 -0.198357
C43   C     C_1   0.855434 0.341253 0.432785 0.399148
N15   N     N_1   0.807219 0.275749 0.433343 -0.159504
Cl11  Cl    Cl    0.174715 0.440471 0.644327 -0.432329
Cl12  Cl    Cl    0.915270 0.374305 0.604571 -0.363574
C44   C     C_1   0.123928 0.663030 0.496760 0.272382
N16   N     N_1   0.167153 0.726331 0.526053 -0.215563
C45   C     C_1   0.084427 0.578301 0.375007 0.291021
N17   N     N_1   0.094954 0.573788 0.308310 -0.203510
C46   C     C_1   0.855390 0.625118 0.412898 0.331607
N18   N     N_1   0.799973 0.656440 0.364206 -0.218383

loop_
_geom_bond_atom_site_label_1
_geom_bond_atom_site_label_2
_ccdc_geom_bond_type
C8    C9    A    
C45   N17   T    
Cu1   O7    S    
N1    N2    D    
C10   Cl4   S    
Cu1   Cu2   S    
C25   Cl7   S    
C35   N7    T    
Cu1   O1    S    
C12   O3    A    
C7    C8    A    
C44   N16   T    
C2    C29   S    
C1    C5    S    
C24   C26   A    
C17   Cl6   S    
C30   C31   S    
C11   C14   A    
C29   O8    A    
C15   C16   A    
C18   C19   A    
C33   C44   S    
C26   N5    S    
C6    C37   S    
C19   C20   A    
C16   C17   A    
Cu1   O3    S    
C38   N10   T    
C32   H2    S    
C9    C10   A    
Cu2   O6    S    
C14   N2    S    
C15   C23   S    
C21   C22   A    
C14   C17   A    
C20   N4    S    
C43   N15   T    
C40   N12   T    
C30   C34   S    
C24   C25   A    
C1    O1    A    
C13   Cl2   S    
C41   N13   T    
C21   Cl9   S    
C2    C31   S    
C9    Cl3   S    
C32   C34   S    
C2    C4    S    
C7    C36   S    
C36   N8    T    
C23   O5    A    
C22   N3    A    
C20   C21   A    
C33   C34   S    
C30   H4    S    
C8    N1    S    
C11   H3    S    
C3    Cl1   S    
C27   N6    A    
C13   C15   A    
Cu1   O5    S    
C16   Cl5   S    
C12   C34   S    
C28   Cl10  S    
C3    Cl12  S    
Cu2   O4    S    
N4    N5    D    
C4    C46   S    
C32   Cl11  S    
C4    C33   S    
C19   C40   S    
C39   N11   T    
C12   O4    A    
C1    O2    A    
C31   C42   S    
C6    C7    A    
C30   C35   S    
C26   C28   A    
C31   C43   S    
C2    C3    S    
C33   C45   S    
C5    C10   A    
C18   N3    A    
C11   C13   A    
C23   O6    A    
C5    C6    A    
C29   O7    A    
C18   C41   S    
Cu2   O2    S    
C3    C32   S    
Cu2   O8    S    
C24   Cl8   S    
C42   N14   T    
C4    H1    S    
C37   N9    T    
C27   C28   A    
Cu2   N3    S    
C46   N18   T    
Cu1   N6    S    
C25   N6    A    
C22   C38   S    
C27   C39   S    
