data_mof_unit_6056.cif
_audit_creation_date              2012-12-10T17:46:59-0500
_audit_creation_method            fapswitch 2.2
_symmetry_space_group_name_H-M    P1
_symmetry_Int_Tables_number       1
_space_group_crystal_system       triclinic
_cell_length_a                    9.987745
_cell_length_b                    10.67096
_cell_length_c                    13.5025
_cell_angle_alpha                 91.589463
_cell_angle_beta                  82.741969
_cell_angle_gamma                 94.481572
_cell_volume                      1422.95266035

loop_
_atom_site_label
_atom_site_type_symbol
_atom_type_description
_atom_site_fract_x
_atom_site_fract_y
_atom_site_fract_z
_atom_type_partial_charge
C1    C     C_R   0.506803 0.739620 0.491364 0.985001
C2    C     C_R   0.612664 0.948385 0.524267 0.367795
C3    C     C_R   0.584850 0.070016 0.549395 0.422455
C4    C     C_R   0.475030 0.495780 0.685542 0.880136
C5    C     C_R   0.479939 0.123367 0.508401 -0.248630
C6    C     C_R   0.862707 0.626928 0.660879 0.535773
C7    C     C_R   0.932405 0.647874 0.747471 -0.068162
C8    C     C_R   0.035346 0.570032 0.761823 -0.038021
C9    C     C_R   0.092490 0.499213 0.681073 0.191673
C10   C     C_R   0.057295 0.521066 0.586489 0.003682
C11   C     C_R   0.921562 0.548710 0.581553 -0.061143
C12   C     C_1   0.454340 0.477845 0.789046 -0.243177
C13   C     C_R   0.935924 0.453657 0.421338 0.182110
C14   C     C_R   0.079588 0.460679 0.418463 0.125405
C15   C     C_R   0.493464 0.259027 0.502616 0.908073
C16   C     C_R   0.524258 0.495801 0.314410 0.929830
C17   C     C_1   0.542230 0.479213 0.210432 -0.167934
C18   C     C_2   0.555036 0.450577 0.017763 -0.033910
C19   C     C_2   0.436473 0.443366 0.980814 0.561205
C20   C     C_1   0.440556 0.460396 0.876306 -0.094540
C21   C     C_1   0.553412 0.464465 0.122471 0.002518
C22   C     C_3   0.221906 0.350104 0.016382 -0.377834
C23   C     C_R   0.369630 0.863378 0.343281 0.496953
C24   C     C_3   0.674485 0.738403 0.727045 -0.111680
C25   C     C_3   0.831861 0.916414 0.473144 -0.114194
C26   C     C_3   0.541477 0.809655 0.228290 -0.363774
C27   C     C_3   0.119458 0.118484 0.225224 -0.306250
C28   C     C_3   0.130391 0.113829 0.569830 -0.210578
C29   C     C_3   0.601479 0.148595 0.705587 -0.285117
C30   C     C_R   0.257106 0.908094 0.307302 -0.131826
C31   C     C_R   0.205799 0.019584 0.347270 0.403528
C32   C     C_R   0.266085 0.085035 0.424078 0.426725
C33   C     C_R   0.390010 0.047880 0.452627 -0.231963
C34   C     C_R   0.426718 0.927106 0.423318 -0.171222
C35   C     C_R   0.521892 0.873060 0.473667 -0.259791
H1    H     H_    0.264011 0.256361 0.014871 0.144941
H2    H     H_    0.122675 0.652164 0.877601 0.198684
H3    H     H_    0.197066 0.387350 0.759229 0.199568
H4    H     H_    0.056743 0.319009 0.721322 0.142636
H5    H     H_    0.219908 0.349253 0.349202 0.262085
H6    H     H_    0.202135 0.487809 0.288262 0.230895
H7    H     H_    0.738131 0.536638 0.970074 0.176038
H8    H     H_    0.734511 0.378653 0.973609 0.178190
H9    H     H_    0.861317 0.017426 0.457842 0.191282
H10   H     H_    0.803728 0.866520 0.404347 0.133536
H11   H     H_    0.921577 0.873246 0.493988 0.169016
H12   H     H_    0.188807 0.368945 0.943125 0.183852
H13   H     H_    0.624797 0.849713 0.269680 0.164331
H14   H     H_    0.513202 0.881184 0.177624 0.151864
H15   H     H_    0.580980 0.731762 0.180264 0.191819
H16   H     H_    0.260119 0.828671 0.169270 0.204605
H17   H     H_    0.161421 0.747448 0.260647 0.213215
H18   H     H_    0.134664 0.047662 0.163864 0.173338
H19   H     H_    0.209972 0.186863 0.222444 0.155245
H20   H     H_    0.032480 0.171181 0.211399 0.173926
H21   H     H_    0.202361 0.124698 0.626412 0.152389
H22   H     H_    0.096758 0.012523 0.560627 0.124652
H23   H     H_    0.130814 0.347177 0.072793 0.189344
H24   H     H_    0.038562 0.162152 0.598128 0.194927
H25   H     H_    0.507968 0.199375 0.707487 0.131909
H26   H     H_    0.669378 0.203298 0.752648 0.190635
H27   H     H_    0.576958 0.053991 0.738887 0.139792
H28   H     H_    0.897258 0.304120 0.331827 0.197491
H29   H     H_    0.911940 0.445063 0.274729 0.165088
H30   H     H_    0.712049 0.833424 0.751561 0.179616
H31   H     H_    0.661829 0.670290 0.789043 0.129173
H32   H     H_    0.572274 0.749177 0.706005 0.129801
H33   H     H_    0.990399 0.807697 0.820276 0.187304
H34   H     H_    0.874070 0.710335 0.888939 0.174790
H35   H     H_    0.001666 0.534495 0.909801 0.183609
N1    N     N_R   0.857120 0.501200 0.500900 -0.096814
N2    N     N_R   0.142720 0.501280 0.500940 -0.099142
N3    N     N_3   0.902733 0.747885 0.818137 -0.480801
N4    N     N_3   0.083388 0.562957 0.857034 -0.463176
N5    N     N_3   0.141513 0.379882 0.698614 -0.394611
N6    N     N_3   0.153666 0.412823 0.330122 -0.467730
N7    N     N_3   0.681928 0.453420 0.954200 -0.494141
N8    N     N_3   0.190625 0.837522 0.233313 -0.424711
N9    N     N_3   0.872649 0.397556 0.339966 -0.399136
O1    O     O_R   0.385310 0.683220 0.500000 -0.610011
O2    O     O_3   0.758351 0.697693 0.641544 -0.527061
O3    O     O_3   0.726838 0.903117 0.553266 -0.563631
O4    O     O_3   0.429226 0.762288 0.294666 -0.596562
O5    O     O_3   0.088347 0.060060 0.318740 -0.584439
O6    O     O_3   0.189221 0.170293 0.479697 -0.560977
O7    O     O_3   0.669317 0.139425 0.607833 -0.566652
O8    O     O_R   0.614640 0.683250 0.500010 -0.540416
O9    O     O_R   0.368830 0.499960 0.640340 -0.605746
O10   O     O_R   0.598160 0.499980 0.640350 -0.573487
O11   O     O_R   0.385360 0.316750 0.499990 -0.571882
O12   O     O_R   0.614690 0.316780 0.500000 -0.563182
O13   O     O_R   0.401840 0.500020 0.359650 -0.610461
O14   O     O_R   0.631170 0.500040 0.359660 -0.618048
O15   O     O_3   0.315662 0.446152 0.044353 -0.600615
Zn1   Zn    Zn3+2 0.346870 0.499980 0.499990 0.984881
Zn2   Zn    Zn3+2 0.653130 0.500020 0.500010 1.015853

loop_
_geom_bond_atom_site_label_1
_geom_bond_atom_site_label_2
_ccdc_geom_bond_type
C2    C35   A    
C1    O8    A    
H2    N4    S    
C13   N9    S    
C26   O4    S    
C18   C21   S    
C19   C20   S    
C28   H21   S    
C27   H19   S    
C7    C8    A    
C7    N3    S    
H28   N9    S    
C28   H22   S    
C16   O14   A    
C23   O4    S    
C27   O5    S    
C18   C19   D    
C26   H15   S    
C30   C31   A    
C11   N1    A    
C34   C35   A    
C24   H32   S    
O12   Zn2   S    
N2    Zn1   S    
C8    C9    A    
C5    C33   A    
H35   N4    S    
H34   N3    S    
H4    N5    S    
C4    C12   S    
C9    C10   A    
C26   H13   S    
C22   H12   S    
O9    Zn1   S    
C6    O2    S    
C13   C14   A    
C3    O7    S    
C22   O15   S    
H17   N8    S    
C25   H9    S    
H3    N5    S    
C29   H26   S    
C23   C30   A    
O11   Zn1   S    
C26   H14   S    
C6    C11   A    
C16   C17   S    
N1    Zn2   S    
C13   N1    A    
H33   N3    S    
O13   Zn1   S    
C17   C21   T    
C31   O5    S    
H5    N6    S    
C14   N6    S    
C24   O2    S    
C31   C32   A    
C29   H25   S    
C23   C34   A    
O8    Zn2   S    
C12   C20   T    
C8    N4    S    
C33   C34   A    
O1    Zn1   S    
C29   O7    S    
C19   O15   S    
C24   H30   S    
C16   O13   A    
O14   Zn2   S    
C25   O3    S    
H29   N9    S    
C2    O3    S    
C25   H10   S    
C1    C35   S    
C4    O10   A    
C28   H24   S    
C29   H27   S    
C14   N2    A    
C3    C5    A    
C22   H23   S    
C27   H18   S    
C6    C7    A    
C4    O9    A    
C24   H31   S    
H8    N7    S    
C22   H1    S    
C32   C33   A    
O10   Zn2   S    
C2    C3    A    
H16   N8    S    
C15   O11   A    
C18   N7    S    
C32   O6    S    
C27   H20   S    
C5    C15   S    
C10   C11   A    
C15   O12   A    
C30   N8    S    
H7    N7    S    
C28   O6    S    
C1    O1    A    
C9    N5    S    
C25   H11   S    
H6    N6    S    
C10   N2    A    
