data_mof_unit_65853.cif
_audit_creation_date              2012-12-10T19:16:53-0500
_audit_creation_method            fapswitch 2.2
_symmetry_space_group_name_H-M    P1
_symmetry_Int_Tables_number       1
_space_group_crystal_system       triclinic
_cell_length_a                    15.992619
_cell_length_b                    14.760162
_cell_length_c                    10.760385
_cell_angle_alpha                 89.904654
_cell_angle_beta                  90.006359
_cell_angle_gamma                 90.017225
_cell_volume                      2540.02447775

loop_
_atom_site_label
_atom_site_type_symbol
_atom_type_description
_atom_site_fract_x
_atom_site_fract_y
_atom_site_fract_z
_atom_type_partial_charge
C1    C     C_R   0.340836 0.499989 0.500333 0.864132
C2    C     C_3   0.586594 0.468181 0.929523 0.544327
C3    C     C_R   0.956394 0.580787 0.480515 -0.150585
C4    C     C_R   0.956324 0.419413 0.524437 -0.148936
C5    C     C_R   0.912767 0.500094 0.502360 0.145514
C6    C     C_R   0.043590 0.419401 0.524470 -0.144409
C7    C     C_R   0.043655 0.580774 0.480544 -0.147201
C8    C     C_R   0.087216 0.500070 0.502421 0.143049
C9    C     C_1   0.823308 0.500044 0.501717 -0.028521
C10   C     C_1   0.176675 0.499993 0.501805 -0.021392
C11   C     C_1   0.251726 0.499970 0.501120 -0.098130
C12   C     C_1   0.748258 0.500024 0.501035 -0.110540
C13   C     C_R   0.479475 0.951923 0.611486 0.373989
C14   C     C_R   0.478709 0.048277 0.610433 0.363530
C15   C     C_R   0.498706 0.500218 0.259444 0.803773
C16   C     C_R   0.502658 0.902796 0.503606 -0.302825
C17   C     C_R   0.502591 0.097118 0.502842 -0.304572
C18   C     C_R   0.526309 0.951801 0.396265 0.351914
C19   C     C_R   0.529013 0.048088 0.397316 0.353848
C20   C     C_1   0.500878 0.802624 0.501415 0.309295
C21   C     C_1   0.500775 0.197354 0.500969 0.324910
C22   C     C_R   0.659150 0.500008 0.500270 0.859997
C23   C     C_R   0.499207 0.500021 0.740709 0.949682
C24   C     C_3   0.483598 0.598228 0.072356 -0.402894
C25   C     C_3   0.427179 0.439090 0.072907 -0.403539
C26   C     C_3   0.481607 0.598490 0.929844 0.217952
C27   C     C_3   0.431066 0.432857 0.929938 0.219705
C28   C     C_3   0.583911 0.466422 0.073873 -0.416372
C29   C     C_3   0.498360 0.500846 0.122090 -0.065144
C30   C     C_3   0.498725 0.500174 0.878580 -0.156187
Cu1   Cu    Cu3+1 0.500000 0.589220 0.500040 1.033266
Cu2   Cu    Cu3+1 0.500000 0.410780 0.500040 1.038550
H1    H     H_    0.534609 0.643962 0.104503 0.177303
H2    H     H_    0.432793 0.369694 0.112704 0.181493
H3    H     H_    0.424084 0.625418 0.110871 0.222555
H4    H     H_    0.365791 0.466637 0.103562 0.220498
H5    H     H_    0.531541 0.645125 0.896991 0.152630
H6    H     H_    0.449238 0.362459 0.905486 0.167904
H7    H     H_    0.634825 0.508948 0.113464 0.196331
H8    H     H_    0.594659 0.396559 0.109543 0.208867
H9    H     H_    0.077087 0.643424 0.463409 0.152346
H10   H     H_    0.076974 0.356720 0.541448 0.155484
H11   H     H_    0.923015 0.643446 0.463362 0.149213
H12   H     H_    0.922887 0.356741 0.541390 0.150617
N1    N     N_1   0.499980 0.276710 0.500040 -0.155783
N2    N     N_1   0.499980 0.723290 0.500040 -0.161160
O1    O     O_R   0.380310 0.575320 0.500060 -0.559854
O2    O     O_R   0.380310 0.424680 0.500060 -0.567690
O3    O     O_R   0.499990 0.575340 0.317720 -0.590790
O4    O     O_R   0.499990 0.424660 0.317720 -0.587669
O5    O     O_R   0.619690 0.575360 0.500000 -0.573368
O6    O     O_R   0.619690 0.424640 0.500000 -0.568388
O7    O     O_R   0.500010 0.575340 0.682340 -0.552462
O8    O     O_R   0.500010 0.424660 0.682340 -0.544193
O9    O     O_3   0.551669 0.905512 0.291173 -0.561801
C31   C     C_3   0.482058 0.894772 0.212135 -0.212922
H13   H     H_    0.458171 0.961393 0.179086 0.194050
H14   H     H_    0.431146 0.855818 0.258356 0.148166
H15   H     H_    0.501910 0.855660 0.129283 0.173994
O10   O     O_3   0.552056 0.094232 0.290788 -0.555729
C32   C     C_3   0.639479 0.106282 0.292567 -0.236895
H16   H     H_    0.672824 0.040106 0.291376 0.185843
H17   H     H_    0.659536 0.147079 0.374260 0.139736
H18   H     H_    0.658058 0.144037 0.207721 0.194534
Cl1   Cl    Cl    0.386331 0.649816 0.875475 -0.525427
Cl2   Cl    Cl    0.329006 0.445510 0.862518 -0.538458
Cl3   Cl    Cl    0.669241 0.542046 0.878179 -0.616789
Cl4   Cl    Cl    0.615733 0.357232 0.875014 -0.628632
O11   O     O_3   0.447698 0.094170 0.712536 -0.527774
C33   C     C_3   0.515134 0.120414 0.788939 -0.184349
H19   H     H_    0.561080 0.163353 0.738212 0.162780
H20   H     H_    0.546943 0.060477 0.829740 0.148839
H21   H     H_    0.490256 0.161380 0.866975 0.208328
O12   O     O_3   0.450477 0.907461 0.716478 -0.510942
C34   C     C_3   0.518159 0.867313 0.780640 -0.203363
H22   H     H_    0.577239 0.907233 0.774865 0.108209
H23   H     H_    0.529205 0.797463 0.746507 0.180032
H24   H     H_    0.501307 0.861976 0.880378 0.188499

loop_
_geom_bond_atom_site_label_1
_geom_bond_atom_site_label_2
_ccdc_geom_bond_type
O9    C31   S    
Cu2   N1    S    
C1    C11   S    
C7    C8    A    
C3    H11   S    
C28   C29   S    
C24   C26   S    
C3    C7    A    
C28   H8    S    
C27   H6    S    
C12   C22   S    
C31   H13   S    
C18   C19   A    
C15   O4    A    
C32   H17   S    
C24   C29   S    
Cu2   O6    S    
Cu1   N2    S    
C23   O7    A    
C33   H19   S    
C25   H2    S    
C7    H9    S    
Cu1   O1    S    
C13   C14   A    
C27   C30   S    
Cu2   O2    S    
C14   C17   A    
O11   C33   S    
Cu1   O3    S    
Cu2   O8    S    
C9    C12   T    
C15   C29   S    
C21   N1    T    
C25   C29   S    
C24   H3    S    
O12   C34   S    
C23   C30   S    
C4    C6    A    
C2    Cl3   S    
C1    O1    A    
C6    C8    A    
C4    H12   S    
C28   H7    S    
C17   C21   S    
O10   C32   S    
C32   H18   S    
C34   H22   S    
C5    C9    S    
Cu1   Cu2   S    
C16   C20   S    
C33   H21   S    
C26   H5    S    
Cu1   O7    S    
C34   H23   S    
Cu2   O4    S    
C18   O9    S    
C8    C10   S    
C26   C30   S    
C14   O11   S    
C23   O8    A    
C22   O6    A    
C26   Cl1   S    
Cu1   O5    S    
C4    C5    A    
C3    C5    A    
C2    C28   S    
C1    O2    A    
C19   O10   S    
C25   C27   S    
C2    Cl4   S    
C24   H1    S    
C31   H15   S    
C2    C30   S    
C27   Cl2   S    
C17   C19   A    
C31   H14   S    
C15   O3    A    
C32   H16   S    
C34   H24   S    
C10   C11   T    
C25   H4    S    
C13   O12   S    
C16   C18   A    
C6    H10   S    
C13   C16   A    
C33   H20   S    
C20   N2    T    
C22   O5    A    
