data_mof_unit_62700.cif
_audit_creation_date              2012-10-26T19:55:36-0400
_audit_creation_method            fapswitch 2.2
_symmetry_space_group_name_H-M    P1
_symmetry_Int_Tables_number       1
_space_group_crystal_system       triclinic
_cell_length_a                    12.966481
_cell_length_b                    15.860556
_cell_length_c                    16.985168
_cell_angle_alpha                 97.072423
_cell_angle_beta                  91.070205
_cell_angle_gamma                 86.864483
_cell_volume                      3461.07607786

loop_
_atom_site_label
_atom_site_type_symbol
_atom_type_description
_atom_site_fract_x
_atom_site_fract_y
_atom_site_fract_z
_atom_type_partial_charge
C1    C     C_R   0.501324 0.488941 0.348408 0.598412
C2    C     C_R   0.448694 0.587321 0.786176 0.019416
C3    C     C_R   0.446758 0.753007 0.461946 0.052483
C4    C     C_R   0.555631 0.246606 0.536020 0.050719
C5    C     C_R   0.443316 0.842469 0.464837 0.231352
C6    C     C_R   0.559098 0.157122 0.532811 0.231065
C7    C     C_R   0.510328 0.890444 0.517730 0.205909
C8    C     C_R   0.489585 0.109575 0.481889 0.206681
C9    C     C_R   0.576417 0.845899 0.565865 -0.125997
C10   C     C_R   0.420894 0.154479 0.435924 -0.126569
C11   C     C_R   0.577578 0.756793 0.561155 0.170749
C12   C     C_R   0.498475 0.511083 0.651620 0.595419
C13   C     C_R   0.419858 0.243593 0.440796 0.177127
C14   C     C_R   0.301891 0.515595 0.501674 0.590466
C15   C     C_R   0.698379 0.484197 0.497455 0.583868
C16   C     C_R   0.810636 0.474349 0.496117 -0.028445
C17   C     C_R   0.190770 0.522318 0.493320 -0.027498
C18   C     C_R   0.046134 0.550035 0.406319 0.066520
C19   C     C_R   0.964248 0.412691 0.554236 0.060112
C20   C     C_R   0.150679 0.553882 0.425596 -0.147738
C21   C     C_R   0.857890 0.416443 0.542544 -0.147538
C22   C     C_R   0.127582 0.483797 0.543123 0.071845
C23   C     C_R   0.434069 0.539415 0.143377 0.271042
C24   C     C_R   0.870302 0.522618 0.451333 0.070300
C25   C     C_R   0.024347 0.469835 0.519055 -0.021723
C26   C     C_R   0.979549 0.514381 0.457600 -0.020306
C27   C     C_R   0.500492 0.482088 0.261573 -0.024084
C28   C     C_R   0.498636 0.517866 0.738509 -0.045658
C29   C     C_R   0.442079 0.544182 0.225583 -0.121120
C30   C     C_R   0.554551 0.454455 0.774542 -0.125033
C31   C     C_2   0.818149 0.586956 0.405195 0.643151
C32   C     C_2   0.163411 0.472832 0.625534 0.629323
C33   C     C_2   0.649689 0.715202 0.613844 0.634732
C34   C     C_R   0.561713 0.458694 0.856739 0.270491
C35   C     C_2   0.344573 0.285680 0.390796 0.633819
C36   C     C_2   0.014664 0.570275 0.326028 0.612245
C37   C     C_2   0.010420 0.342368 0.596010 0.625214
C38   C     C_2   0.621622 0.349240 0.247810 0.637770
C39   C     C_2   0.381731 0.653279 0.752430 0.637298
C40   C     C_R   0.486105 0.471864 0.095808 0.217240
C41   C     C_R   0.511131 0.527029 0.904355 0.216892
C42   C     C_R   0.541827 0.408471 0.131271 -0.102471
C43   C     C_R   0.457901 0.591662 0.868896 -0.101931
C44   C     C_R   0.551995 0.413444 0.213966 0.029180
Cl1   Cl    Cl    0.638895 0.379732 0.897664 -0.462005
Cl2   Cl    Cl    0.354392 0.616726 0.102278 -0.460287
Cl3   Cl    Cl    0.656003 0.108850 0.588864 -0.479852
Cl4   Cl    Cl    0.349350 0.889977 0.405689 -0.477635
Cu1   Cu    Cu3+1 0.494970 0.415610 0.496200 1.068454
Cu2   Cu    Cu3+1 0.505030 0.584390 0.503800 1.064514
H1    H     H_    0.627341 0.881043 0.607669 0.181081
H2    H     H_    0.394592 0.716747 0.422356 0.167068
H3    H     H_    0.805796 0.709166 0.383099 0.362785
H4    H     H_    0.275398 0.432526 0.698353 0.349895
H5    H     H_    0.793237 0.664398 0.630425 0.349664
H6    H     H_    0.198739 0.333613 0.378161 0.344598
H7    H     H_    0.936622 0.535787 0.224312 0.373281
H8    H     H_    0.127599 0.254403 0.603352 0.369055
H9    H     H_    0.727360 0.323764 0.331606 0.352466
H10   H     H_    0.277518 0.681704 0.668604 0.355750
H11   H     H_    0.367891 0.119627 0.395679 0.179944
H12   H     H_    0.810876 0.375344 0.571771 0.166157
H13   H     H_    0.202800 0.577649 0.385168 0.148814
H14   H     H_    0.594866 0.402156 0.738507 0.173734
H15   H     H_    0.400586 0.595785 0.261665 0.168085
H16   H     H_    0.581734 0.357164 0.093703 0.205668
H17   H     H_    0.419219 0.643633 0.906473 0.205811
H18   H     H_    0.609590 0.282561 0.574191 0.163110
N1    N     N_2   0.485019 0.466196 0.012201 -0.141005
N2    N     N_2   0.511782 0.532645 0.987984 -0.140399
N3    N     N_R   0.512580 0.711160 0.509520 -0.287919
N4    N     N_R   0.487420 0.288840 0.490480 -0.282992
N5    N     N_2   0.510088 0.981850 0.529741 -0.124761
N6    N     N_2   0.489862 0.018209 0.469645 -0.123046
O1    O     O_R   0.495300 0.420890 0.382510 -0.457330
O2    O     O_R   0.846933 0.671284 0.417547 -0.632244
O3    O     O_2   0.106412 0.497092 0.681293 -0.465416
O4    O     O_R   0.260938 0.435409 0.639850 -0.629175
O5    O     O_2   0.623842 0.707299 0.681262 -0.478719
O6    O     O_R   0.750216 0.691290 0.588743 -0.649867
O7    O     O_2   0.367965 0.297665 0.323858 -0.487091
O8    O     O_R   0.244102 0.305798 0.417971 -0.636838
O9    O     O_2   0.046900 0.632710 0.300745 -0.437050
O10   O     O_R   0.951988 0.515691 0.277910 -0.650936
O11   O     O_2   0.964786 0.318381 0.650902 -0.442874
O12   O     O_R   0.504700 0.579110 0.617490 -0.451334
O13   O     O_R   0.104416 0.301459 0.570627 -0.630922
O14   O     O_2   0.628092 0.275847 0.215559 -0.452286
O15   O     O_R   0.682831 0.373076 0.314657 -0.643699
O16   O     O_2   0.377835 0.726608 0.784912 -0.445235
O17   O     O_R   0.320063 0.631282 0.685435 -0.661857
O18   O     O_R   0.503790 0.563430 0.388930 -0.506705
O19   O     O_R   0.496210 0.436570 0.611070 -0.503936
O20   O     O_R   0.345440 0.440310 0.497300 -0.437780
O21   O     O_R   0.654560 0.559690 0.502700 -0.462380
O22   O     O_R   0.353930 0.582840 0.503720 -0.511675
O23   O     O_R   0.646070 0.417160 0.496280 -0.515692
O24   O     O_2   0.750143 0.566264 0.356898 -0.453718

loop_
_geom_bond_atom_site_label_1
_geom_bond_atom_site_label_2
_ccdc_geom_bond_type
C16   C21   A    
C30   H14   S    
C27   C29   A    
N5    N6    D    
C9    H1    S    
H8    O13   S    
C35   O7    D    
C7    N5    S    
C38   O15   S    
C22   C32   S    
C12   C28   S    
C23   C29   A    
C37   O11   D    
C19   C21   A    
C24   C26   A    
C13   C35   S    
C15   O21   A    
C11   N3    A    
Cu2   O21   S    
C36   O9    D    
C23   C40   A    
C17   C20   A    
H9    O15   S    
C31   O24   D    
C39   O17   S    
C19   C37   S    
C32   O3    D    
C27   C44   A    
C22   C25   A    
C18   C26   A    
Cu1   O1    S    
Cu1   O20   S    
C39   O16   D    
C40   C42   A    
C16   C24   A    
C23   Cl2   S    
C41   C43   A    
C14   C17   S    
C34   C41   A    
C42   C44   A    
C15   O23   A    
C2    C39   S    
C14   O22   A    
C35   O8    S    
C5    Cl4   S    
C6    Cl3   S    
C30   C34   A    
C1    O1    A    
C11   C33   S    
C42   H16   S    
C4    C6    A    
C40   N1    S    
C5    C7    A    
C33   O5    D    
C6    C8    A    
C25   C26   A    
C32   O4    S    
Cu1   N4    S    
C38   O14   D    
C3    N3    A    
Cu2   N3    S    
C43   H17   S    
C38   C44   S    
C2    C43   A    
C8    N6    S    
H7    O10   S    
C34   Cl1   S    
C9    C11   A    
C21   H12   S    
C29   H15   S    
Cu2   O18   S    
C1    O18   A    
C12   O19   A    
C10   H11   S    
C4    N4    A    
C4    H18   S    
H10   O17   S    
C7    C9    A    
C37   O13   S    
C3    C5    A    
C10   C13   A    
C3    H2    S    
C33   O6    S    
H6    O8    S    
C13   N4    A    
C17   C22   A    
C12   O12   A    
C20   H13   S    
C28   C30   A    
C24   C31   S    
H5    O6    S    
Cu2   O22   S    
C31   O2    S    
C36   O10   S    
C18   C20   A    
N1    N2    D    
C19   C25   A    
Cu2   O12   S    
Cu1   O23   S    
H3    O2    S    
C8    C10   A    
Cu1   Cu2   S    
C1    C27   S    
C2    C28   A    
Cu1   O19   S    
C18   C36   S    
C14   O20   A    
C15   C16   S    
C41   N2    S    
H4    O4    S    
