data_mof_unit_13544.cif
_audit_creation_date              2012-10-26T20:00:52-0400
_audit_creation_method            fapswitch 2.2
_symmetry_space_group_name_H-M    P1
_symmetry_Int_Tables_number       1
_space_group_crystal_system       triclinic
_cell_length_a                    11.788115
_cell_length_b                    13.066412
_cell_length_c                    13.520458
_cell_angle_alpha                 92.906857
_cell_angle_beta                  77.301438
_cell_angle_gamma                 100.090883
_cell_volume                      2000.007508

loop_
_atom_site_label
_atom_site_type_symbol
_atom_type_description
_atom_site_fract_x
_atom_site_fract_y
_atom_site_fract_z
_atom_type_partial_charge
C1    C     C_R   0.520798 0.700636 0.500604 0.548046
C2    C     C_R   0.400446 0.484418 0.807096 -0.018814
C3    C     C_R   0.465014 0.184995 0.496602 -0.017703
C4    C     C_R   0.437329 0.497223 0.695786 0.590971
C5    C     C_R   0.530315 0.813933 0.502269 -0.051417
C6    C     C_R   0.637600 0.983778 0.533581 0.263840
C7    C     C_R   0.631507 0.876796 0.522293 -0.119579
C8    C     C_R   0.435974 0.859752 0.487692 -0.154520
C9    C     C_R   0.444108 0.967686 0.491739 0.005136
C10   C     C_R   0.546587 0.030192 0.513005 0.050843
C11   C     C_R   0.556631 0.137860 0.513092 -0.118113
C12   C     C_R   0.461846 0.468616 0.967250 -0.042181
C13   C     C_R   0.361554 0.122378 0.478685 -0.131891
C14   C     C_R   0.351506 0.014313 0.475439 -0.143284
C15   C     C_R   0.969552 0.629356 0.533705 -0.192469
C16   C     C_R   0.478689 0.299063 0.498118 0.541859
C17   C     C_R   0.844522 0.614103 0.544589 0.394612
C18   C     C_R   0.843484 0.435301 0.505981 0.408977
C19   C     C_R   0.969383 0.449574 0.490945 -0.019559
C20   C     C_R   0.031640 0.547634 0.508535 -0.144729
C21   C     C_R   0.153876 0.560840 0.508314 -0.031869
C22   C     C_R   0.159509 0.389144 0.447640 0.415059
C23   C     C_R   0.482185 0.515812 0.871103 -0.124548
C24   C     C_R   0.034222 0.367720 0.462299 0.251176
C25   C     C_R   0.562728 0.503844 0.304770 0.533098
C26   C     C_R   0.743508 0.579415 0.046767 -0.127012
C27   C     C_R   0.599706 0.511427 0.194379 -0.008216
C28   C     C_R   0.290594 0.422127 0.847016 0.204948
C29   C     C_R   0.273469 0.374172 0.939807 -0.086278
C30   C     C_R   0.361363 0.389802 0.995510 0.237249
C31   C     C_3   0.707225 0.044049 0.672110 -0.161056
C32   C     C_3   0.225039 0.309449 0.297472 -0.084603
C33   C     C_3   0.985741 0.195411 0.502574 -0.063759
C34   C     C_R   0.544960 0.499360 0.029727 -0.018714
C35   C     C_3   0.841718 0.776131 0.632237 -0.098336
C36   C     C_3   0.862192 0.579941 0.801464 -0.140402
C37   C     C_3   0.754651 0.332635 0.638545 -0.115438
C38   C     C_3   0.122566 0.457289 0.811808 -0.113796
C39   C     C_3   0.415306 0.241482 0.034831 -0.143863
C40   C     C_3   0.531377 0.738213 0.799130 -0.118032
C41   C     C_R   0.657694 0.556074 0.987565 -0.007757
C42   C     C_R   0.679760 0.595932 0.889781 0.286627
C43   C     C_R   0.586059 0.590752 0.840744 0.301681
C44   C     C_R   0.516205 0.482305 0.134592 -0.093364
C45   C     C_R   0.715123 0.555522 0.149121 -0.145259
Cu1   Cu    Cu3+1 0.386470 0.492430 0.492410 1.003758
Cu2   Cu    Cu3+1 0.613530 0.507570 0.507590 1.061785
H1    H     H_    0.781173 0.578419 0.194086 0.134186
H2    H     H_    0.627858 0.080254 0.703452 0.105628
H3    H     H_    0.783110 0.090970 0.698516 0.124344
H4    H     H_    0.705158 0.843271 0.531725 0.176553
H5    H     H_    0.198607 0.634711 0.531298 0.131447
H6    H     H_    0.299991 0.271228 0.259036 0.170436
H7    H     H_    0.236485 0.387267 0.263001 0.130206
H8    H     H_    0.143180 0.260067 0.283636 0.161845
H9    H     H_    0.941504 0.212349 0.581556 0.129098
H10   H     H_    0.077985 0.186246 0.500326 0.122769
H11   H     H_    0.940989 0.119401 0.478904 0.191725
H12   H     H_    0.288936 0.156538 0.466104 0.170114
H13   H     H_    0.898451 0.828996 0.572434 0.085220
H14   H     H_    0.893619 0.752930 0.683772 0.148309
H15   H     H_    0.777497 0.820063 0.680005 0.159759
H16   H     H_    0.951967 0.622897 0.770724 0.118192
H17   H     H_    0.828729 0.537617 0.737563 0.131278
H18   H     H_    0.871074 0.523177 0.856770 0.084572
H19   H     H_    0.706628 0.254519 0.662093 0.120609
H20   H     H_    0.696158 0.388570 0.673734 0.140095
H21   H     H_    0.836039 0.345837 0.669741 0.064800
H22   H     H_    0.830890 0.621381 0.015864 0.149707
H23   H     H_    0.271673 0.967395 0.460169 0.103206
H24   H     H_    0.162956 0.540204 0.796748 0.114348
H25   H     H_    0.073074 0.447878 0.891916 0.099935
H26   H     H_    0.058279 0.435300 0.762327 0.125671
H27   H     H_    0.405201 0.185547 0.096451 0.131546
H28   H     H_    0.511137 0.272286 0.009898 0.127074
H29   H     H_    0.381084 0.197975 0.971547 0.119964
H30   H     H_    0.562662 0.782238 0.863464 0.111023
H31   H     H_    0.435606 0.706339 0.821622 0.090796
H32   H     H_    0.542616 0.793772 0.737004 0.127951
H33   H     H_    0.356721 0.811848 0.472288 0.126047
H34   H     H_    0.020004 0.704283 0.546924 0.086851
H35   H     H_    0.426692 0.453454 0.172083 0.177965
H36   H     H_    0.195017 0.316941 0.964664 0.144708
H37   H     H_    0.636959 0.184712 0.524554 0.223127
H38   H     H_    0.693620 0.964917 0.703441 0.102587
N1    N     N_R   0.215880 0.481050 0.481000 -0.241008
N2    N     N_R   0.784100 0.518950 0.519000 -0.232072
O1    O     O_R   0.419710 0.645650 0.494620 -0.536578
O2    O     O_3   0.225401 0.315816 0.401629 -0.569831
O3    O     O_3   0.977685 0.271663 0.435236 -0.541544
O4    O     O_3   0.778781 0.689999 0.588296 -0.493154
O5    O     O_3   0.788866 0.651710 0.846947 -0.560908
O6    O     O_3   0.781225 0.337856 0.531330 -0.508288
O7    O     O_3   0.208039 0.391668 0.788219 -0.545105
O8    O     O_3   0.350724 0.321538 0.072859 -0.618575
O9    O     O_3   0.598520 0.659451 0.763126 -0.488411
O10   O     O_R   0.611450 0.658430 0.507430 -0.434406
O11   O     O_R   0.357340 0.490460 0.641450 -0.466169
O12   O     O_R   0.549080 0.503250 0.654260 -0.467349
O13   O     O_R   0.388550 0.341570 0.492570 -0.445114
O14   O     O_R   0.580290 0.354350 0.505380 -0.477428
O15   O     O_R   0.450920 0.496750 0.345740 -0.501280
O16   O     O_R   0.642660 0.509540 0.358550 -0.508015
O17   O     O_3   0.732890 0.042329 0.565069 -0.591562

loop_
_geom_bond_atom_site_label_1
_geom_bond_atom_site_label_2
_ccdc_geom_bond_type
C33   H11   S    
C31   H38   S    
C4    O11   A    
C41   C42   A    
C19   C20   A    
C17   O4    S    
C23   C43   A    
C15   H34   S    
Cu1   O15   S    
C12   C23   A    
C30   O8    S    
C1    C5    S    
C28   C29   A    
C40   O9    S    
C29   H36   S    
C44   H35   S    
C25   O15   A    
C37   H21   S    
Cu2   O12   S    
C28   O7    S    
C18   C19   A    
C39   H27   S    
C26   C45   A    
Cu1   Cu2   S    
C27   C44   A    
C8    C9    A    
C6    O17   S    
C36   H16   S    
C9    C10   A    
C32   H8    S    
C42   O5    S    
C3    C13   A    
C27   C45   A    
C33   H9    S    
Cu1   O11   S    
C13   C14   A    
C14   H23   S    
C34   C41   A    
C31   H2    S    
C32   H7    S    
Cu1   O1    S    
C15   C20   A    
C26   H22   S    
C38   H25   S    
Cu2   O16   S    
C34   C44   A    
C1    O10   A    
C5    C7    A    
C36   H18   S    
C25   O16   A    
C35   H13   S    
Cu2   N2    S    
C2    C4    S    
C9    C14   A    
C29   C30   A    
C32   O2    S    
C37   H19   S    
C38   O7    S    
C43   O9    S    
C40   H32   S    
C37   O6    S    
C35   H14   S    
C39   H29   S    
C39   O8    S    
C39   H28   S    
C22   C24   A    
C42   C43   A    
C31   H3    S    
C12   C34   A    
C32   H6    S    
C45   H1    S    
C15   C17   A    
Cu1   O13   S    
C38   H24   S    
C33   H10   S    
C12   C30   A    
C17   N2    A    
C16   O13   A    
C24   O3    S    
C6    C10   A    
C5    C8    A    
C6    C7    A    
C13   H12   S    
C11   H37   S    
C25   C27   S    
C18   N2    A    
Cu2   O10   S    
C31   O17   S    
C19   C24   A    
C7    H4    S    
C33   O3    S    
C36   O5    S    
C21   N1    A    
C1    O1    A    
C37   H20   S    
C22   O2    S    
C35   H15   S    
C40   H31   S    
Cu2   O14   S    
C22   N1    A    
C3    C11   A    
C10   C11   A    
C16   O14   A    
C20   C21   A    
C4    O12   A    
C2    C23   A    
C8    H33   S    
C18   O6    S    
C40   H30   S    
C2    C28   A    
C36   H17   S    
C21   H5    S    
C3    C16   S    
C26   C41   A    
Cu1   N1    S    
C38   H26   S    
C35   O4    S    
