data_mof_unit_34075.cif
_audit_creation_date              2012-12-10T16:47:17-0500
_audit_creation_method            fapswitch 2.2
_symmetry_space_group_name_H-M    P1
_symmetry_Int_Tables_number       1
_space_group_crystal_system       triclinic
_cell_length_a                    12.089295
_cell_length_b                    12.154672
_cell_length_c                    7.827255
_cell_angle_alpha                 90.24271
_cell_angle_beta                  94.744468
_cell_angle_gamma                 90.014867
_cell_volume                      1146.19644026

loop_
_atom_site_label
_atom_site_type_symbol
_atom_type_description
_atom_site_fract_x
_atom_site_fract_y
_atom_site_fract_z
_atom_type_partial_charge
C1    C     C_R   0.354658 0.850822 0.455100 0.944916
C2    C     C_2   0.727016 0.769375 0.568286 -0.374202
C3    C     C_2   0.725844 0.232324 0.568934 -0.390544
C4    C     C_2   0.274099 0.767830 0.431579 -0.378339
C5    C     C_2   0.774069 0.731868 0.431493 -0.387167
C6    C     C_2   0.229048 0.271546 0.568575 -0.384510
C7    C     C_2   0.226102 0.731971 0.568496 -0.378813
C8    C     C_2   0.770726 0.271511 0.431443 -0.377154
C9    C     C_3   0.723089 0.035703 0.083108 0.199676
C10   C     C_3   0.829827 0.025328 0.994054 -0.897807
C11   C     C_3   0.277276 0.037362 0.916482 0.202570
C12   C     C_R   0.644986 0.149565 0.544860 0.940800
C13   C     C_3   0.170274 0.028576 0.005108 -0.907573
C14   C     C_3   0.223889 0.473070 0.077660 0.213331
C15   C     C_3   0.328404 0.489410 0.984966 -0.909075
C16   C     C_3   0.775888 0.525546 0.922665 0.211044
C17   C     C_3   0.671476 0.507519 0.014948 -0.902994
C18   C     C_R   0.645593 0.851205 0.544668 0.948398
C19   C     C_R   0.354734 0.149158 0.455381 0.945358
C20   C     C_R   0.853920 0.351673 0.455057 0.948635
C21   C     C_R   0.145412 0.649109 0.544926 0.946024
C22   C     C_R   0.145886 0.351543 0.544684 0.939890
C23   C     C_R   0.854757 0.649205 0.455339 0.936466
C24   C     C_2   0.272925 0.230660 0.431282 -0.385559
H1    H     H_    0.753273 0.761253 0.301677 0.188524
H2    H     H_    0.703322 0.124569 0.092620 0.133916
H3    H     H_    0.818959 0.062649 0.864463 0.261840
H4    H     H_    0.898276 0.068600 0.070378 0.220291
H5    H     H_    0.852378 0.937240 0.981363 0.257760
H6    H     H_    0.262548 0.998471 0.788438 0.177331
H7    H     H_    0.297830 0.125995 0.906596 0.128910
H8    H     H_    0.181291 0.066571 0.134689 0.259796
H9    H     H_    0.102388 0.072046 0.928517 0.218471
H10   H     H_    0.146782 0.940794 0.017728 0.265174
H11   H     H_    0.205541 0.383316 0.078702 0.124468
H12   H     H_    0.254675 0.247611 0.698958 0.161308
H13   H     H_    0.240588 0.504717 0.210196 0.170986
H14   H     H_    0.350042 0.578196 0.982536 0.264593
H15   H     H_    0.398521 0.443718 0.052313 0.215534
H16   H     H_    0.315077 0.458274 0.851220 0.260267
H17   H     H_    0.759573 0.494576 0.789696 0.170203
H18   H     H_    0.793413 0.615476 0.922825 0.130479
H19   H     H_    0.684366 0.538152 0.149037 0.262860
H20   H     H_    0.600885 0.552702 0.947941 0.221307
H21   H     H_    0.650851 0.418464 0.016416 0.252937
H22   H     H_    0.245668 0.763259 0.697918 0.195766
H23   H     H_    0.746374 0.245632 0.301275 0.168848
H24   H     H_    0.247814 0.255441 0.300700 0.162978
H25   H     H_    0.748074 0.740467 0.697948 0.170760
H26   H     H_    0.749332 0.259622 0.699483 0.188922
H27   H     H_    0.254553 0.736520 0.302165 0.196157
H28   H     H_    0.737630 0.997705 0.211326 0.176022
N1    N     N_2   0.541470 1.000000 0.055820 0.159843
N2    N     N_2   0.458530 0.000000 0.944180 0.160084
N3    N     N_2   0.041470 0.500000 0.055820 0.161147
N4    N     N_2   0.958530 0.500000 0.944180 0.160791
O1    O     O_R   0.375700 0.885870 0.609240 -0.640750
O2    O     O_R   0.597720 0.114130 0.675960 -0.600903
O3    O     O_R   0.597720 0.885870 0.675960 -0.567511
O4    O     O_R   0.402280 0.114130 0.324040 -0.601639
O5    O     O_R   0.902280 0.385870 0.324040 -0.572012
O6    O     O_R   0.097720 0.614130 0.675960 -0.569364
O7    O     O_R   0.097720 0.385870 0.675960 -0.603572
O8    O     O_R   0.902280 0.614130 0.324040 -0.601784
O9    O     O_3   0.637565 0.981737 0.984572 -0.520609
O10   O     O_3   0.362216 0.983442 0.015536 -0.518030
O11   O     O_3   0.136154 0.530895 0.990503 -0.521585
O12   O     O_R   0.624300 0.114130 0.390760 -0.667517
O13   O     O_3   0.864095 0.468107 0.009252 -0.524882
O14   O     O_R   0.624300 0.885870 0.390760 -0.640488
O15   O     O_R   0.375700 0.114130 0.609240 -0.667660
O16   O     O_R   0.875700 0.385870 0.609240 -0.637980
O17   O     O_R   0.124300 0.614130 0.390760 -0.637766
O18   O     O_R   0.124300 0.385870 0.390760 -0.661557
O19   O     O_R   0.875700 0.614130 0.609240 -0.661358
O20   O     O_R   0.402280 0.885870 0.324040 -0.565657
Zn1   Zn    Zn3+2 0.482250 1.000000 0.690430 1.007057
Zn2   Zn    Zn3+2 0.517750 1.000000 0.309570 1.007616
Zn3   Zn    Zn3+2 0.982250 0.500000 0.690430 1.008176
Zn4   Zn    Zn3+2 0.017750 0.500000 0.309570 1.008129

loop_
_geom_bond_atom_site_label_1
_geom_bond_atom_site_label_2
_ccdc_geom_bond_type
C10   H3    S    
C18   O14   A    
N3    N4    D    
O14   Zn2   S    
C13   H8    S    
C19   O15   A    
O3    Zn1   S    
O7    Zn3   S    
N1    N2    D    
C12   O12   A    
O4    Zn2   S    
C8    C20   S    
N4    Zn3   S    
O20   Zn2   S    
O16   Zn3   S    
C2    C18   S    
O5    Zn4   S    
C6    C22   S    
C21   O17   A    
C20   O5    A    
C3    C12   S    
O2    Zn1   S    
C22   O7    A    
C11   H6    S    
C16   C17   S    
C14   O11   S    
N1    O9    S    
C9    C10   S    
C11   O10   S    
N2    Zn1   S    
C12   O2    A    
C11   H7    S    
O18   Zn4   S    
O8    Zn4   S    
C9    H28   S    
C4    C7    D    
C3    H26   S    
C9    H2    S    
O12   Zn2   S    
C4    H27   S    
C24   H24   S    
C7    H22   S    
O1    Zn1   S    
O6    Zn3   S    
C3    C8    D    
C23   O19   A    
C14   H11   S    
C7    C21   S    
C17   H19   S    
C15   H14   S    
C13   H9    S    
C2    H25   S    
C1    O1    A    
C5    C23   S    
C6    C24   D    
C15   H15   S    
C21   O6    A    
C5    H1    S    
C23   O8    A    
C2    C5    D    
C22   O18   A    
C16   H18   S    
O15   Zn1   S    
C10   H4    S    
C1    O20   A    
C16   O13   S    
C17   H21   S    
N3    O11   S    
N2    O10   S    
C19   O4    A    
C1    C4    S    
N1    Zn2   S    
C17   H20   S    
C13   H10   S    
C14   H13   S    
N3    Zn4   S    
C11   C13   S    
C10   H5    S    
O17   Zn4   S    
C6    H12   S    
C19   C24   S    
C9    O9    S    
C15   H16   S    
C8    H23   S    
C18   O3    A    
N4    O13   S    
C14   C15   S    
C20   O16   A    
O19   Zn3   S    
C16   H17   S    
