data_mof_unit_11742.cif
_audit_creation_date              2013-03-05T15:39:31-0500
_audit_creation_method            fapswitch 2.2
_symmetry_space_group_name_H-M    P1
_symmetry_Int_Tables_number       1
_space_group_crystal_system       triclinic
_cell_length_a                    19.655867
_cell_length_b                    17.042901
_cell_length_c                    15.434525
_cell_angle_alpha                 90.015488
_cell_angle_beta                  53.731403
_cell_angle_gamma                 89.963204
_cell_volume                      4168.69297992

loop_
_atom_site_label
_atom_site_type_symbol
_atom_site_description
_atom_site_fract_x
_atom_site_fract_y
_atom_site_fract_z
_atom_type_partial_charge
C1    C     C_R   0.375671 0.197804 0.994464 -0.126769
C2    C     C_R   0.340309 0.825200 0.049658 -0.105438
C3    C     C_R   0.840120 0.674736 0.049973 -0.105474
C4    C     C_R   0.875300 0.302328 0.995087 -0.123959
H1    H     H_    0.385094 0.252735 0.020803 0.087182
H2    H     H_    0.331363 0.776692 0.100150 0.089874
H3    H     H_    0.831062 0.723236 0.100598 0.090178
H4    H     H_    0.884486 0.247483 0.021848 0.083977
N1    N     N_R   0.408680 0.130160 0.995800 -0.052408
N2    N     N_R   0.408680 0.869840 0.995800 -0.051363
N3    N     N_R   0.908680 0.630160 0.995800 -0.051117
N4    N     N_R   0.908680 0.369840 0.995800 -0.051729
C5    C     C_R   0.401417 0.800468 0.206834 -0.148263
C6    C     C_R   0.351015 0.172232 0.216660 -0.043530
C7    C     C_R   0.852379 0.326274 0.217464 -0.070440
C8    C     C_R   0.901550 0.699543 0.207068 -0.148255
H5    H     H_    0.402108 0.744254 0.173975 0.090017
H6    H     H_    0.334097 0.221919 0.190401 0.086840
H7    H     H_    0.835713 0.275236 0.192659 0.086851
H8    H     H_    0.901615 0.755829 0.174825 0.087274
N5    N     N_R   0.421680 0.867580 0.153120 -0.040124
N6    N     N_R   0.421680 0.132420 0.153120 -0.045025
N7    N     N_R   0.921680 0.367580 0.153120 -0.044061
N8    N     N_R   0.921680 0.632420 0.153120 -0.040296
C9    C     C_R   0.329096 0.912648 0.952224 -0.135491
C10   C     C_R   0.366310 0.111910 0.895648 -0.155339
C11   C     C_R   0.866104 0.388112 0.895935 -0.148078
C12   C     C_R   0.828935 0.587237 0.952571 -0.133557
H9    H     H_    0.307336 0.946459 0.913686 0.100560
H10   H     H_    0.362975 0.086516 0.834006 0.092488
H11   H     H_    0.862728 0.413395 0.834284 0.092527
H12   H     H_    0.807120 0.553328 0.914184 0.100759
N9    N     N_R   0.403730 0.921770 0.935950 -0.047330
N10   N     N_R   0.403730 0.078230 0.935950 -0.043838
N11   N     N_R   0.903730 0.421770 0.935950 -0.042754
N12   N     N_R   0.903730 0.578230 0.935950 -0.047152
C13   C     C_R   0.355894 0.076804 0.311930 -0.093065
C14   C     C_R   0.409540 0.892560 0.301717 -0.148766
C15   C     C_R   0.909502 0.607277 0.301827 -0.147431
C16   C     C_R   0.857221 0.422283 0.312527 -0.068342
H13   H     H_    0.341920 0.038113 0.375812 0.094310
H14   H     H_    0.414703 0.924530 0.357664 0.116354
H15   H     H_    0.913953 0.574960 0.358115 0.114135
H16   H     H_    0.842958 0.462012 0.375509 0.092935
N13   N     N_R   0.426630 0.075970 0.212960 -0.037017
N14   N     N_R   0.426630 0.924030 0.212960 -0.044498
N15   N     N_R   0.926630 0.575970 0.212960 -0.045934
N16   N     N_R   0.926630 0.424030 0.212960 -0.033076
C17   C     C_R   0.348718 0.188366 0.931318 0.147572
C18   C     C_R   0.287532 0.851377 0.025158 0.144135
C19   C     C_R   0.787214 0.648453 0.025743 0.142912
C20   C     C_R   0.848279 0.311764 0.931981 0.151333
C21   C     C_R   0.393151 0.814397 0.300927 0.113046
C22   C     C_R   0.309880 0.141022 0.319089 0.031787
C23   C     C_R   0.812762 0.356894 0.320071 0.040351
C24   C     C_R   0.893562 0.685528 0.301042 0.109397
C25   C     C_R   0.661079 0.176727 0.953835 -0.058590
C26   C     C_R   0.617860 0.799414 0.019719 -0.136589
C27   C     C_R   0.117910 0.700513 0.019653 -0.136428
C28   C     C_R   0.161192 0.323267 0.953795 -0.049684
H17   H     H_    0.672545 0.227245 0.905443 0.084864
H18   H     H_    0.602440 0.742222 0.006396 0.085075
H19   H     H_    0.102314 0.757746 0.006653 0.084523
H20   H     H_    0.172803 0.272657 0.905511 0.092215
N17   N     N_R   0.591320 0.134600 0.004200 -0.053809
N18   N     N_R   0.591320 0.865400 0.004200 -0.041287
N19   N     N_R   0.091320 0.634600 0.004200 -0.041019
N20   N     N_R   0.091320 0.365400 0.004200 -0.057480
C29   C     C_R   0.648002 0.826218 0.778513 0.061693
C30   C     C_R   0.603201 0.198113 0.789354 0.052504
C31   C     C_R   0.103864 0.302116 0.788327 0.090488
C32   C     C_R   0.147448 0.674246 0.778625 0.043670
N21   N     N_R   0.578320 0.867660 0.846880 -0.059046
N22   N     N_R   0.578320 0.132340 0.846880 -0.047412
N23   N     N_R   0.078320 0.367660 0.846880 -0.048701
N24   N     N_R   0.078320 0.632340 0.846880 -0.059301
C33   C     C_R   0.590193 0.105351 0.698514 -0.060028
C34   C     C_R   0.638548 0.920818 0.684956 -0.130120
C35   C     C_R   0.138370 0.579468 0.684866 -0.104548
C36   C     C_R   0.088819 0.394349 0.699329 -0.139352
H21   H     H_    0.577123 0.076444 0.647545 0.079307
H22   H     H_    0.646415 0.957206 0.622598 0.096071
H23   H     H_    0.146462 0.543306 0.622196 0.091491
H24   H     H_    0.072253 0.422251 0.651255 0.075335
N25   N     N_R   0.573370 0.074390 0.787040 -0.035964
N26   N     N_R   0.573370 0.925610 0.787040 -0.050906
N27   N     N_R   0.073370 0.574390 0.787040 -0.056287
N28   N     N_R   0.073370 0.425610 0.787040 -0.033151
C37   C     C_R   0.633052 0.894947 0.106327 -0.117706
C38   C     C_R   0.669990 0.081963 0.049967 -0.114631
C39   C     C_R   0.170046 0.418079 0.049861 -0.106897
C40   C     C_R   0.133322 0.604944 0.106002 -0.121354
H25   H     H_    0.638539 0.922834 0.164871 0.104602
H26   H     H_    0.691351 0.048104 0.088816 0.092208
H27   H     H_    0.191403 0.451965 0.088678 0.092814
H28   H     H_    0.138997 0.577080 0.164387 0.103071
N29   N     N_R   0.596270 0.927870 0.064040 -0.041711
N30   N     N_R   0.596270 0.072130 0.064040 -0.042919
N31   N     N_R   0.096270 0.427870 0.064040 -0.041472
N32   N     N_R   0.096270 0.572130 0.064040 -0.041847
Ni1   Ni    Ni4+2 0.500000 0.131190 0.000000 0.232346
Ni2   Ni    Ni4+2 0.500000 0.868810 0.000000 0.213494
Ni3   Ni    Ni4+2 0.000000 0.631190 0.000000 0.212683
Ni4   Ni    Ni4+2 0.000000 0.368810 0.000000 0.229605
Ni5   Ni    Ni4+2 0.488650 0.000000 0.862740 0.215240
Ni6   Ni    Ni4+2 0.988650 0.500000 0.862740 0.214828
Ni7   Ni    Ni4+2 0.511350 0.000000 0.137260 0.244566
Ni8   Ni    Ni4+2 0.011350 0.500000 0.137260 0.252189
C41   C     C_R   0.711625 0.145441 0.980376 0.159073
C42   C     C_R   0.647482 0.815767 0.078622 0.149521
C43   C     C_R   0.147906 0.684035 0.078064 0.149031
C44   C     C_R   0.211784 0.354624 0.980153 0.159517
C45   C     C_R   0.687731 0.858747 0.675875 0.100445
C46   C     C_R   0.614632 0.181310 0.693650 0.053804
C47   C     C_R   0.114409 0.318839 0.692856 0.031320
C48   C     C_R   0.186736 0.642172 0.675944 0.126610
C49   C     C_3   0.180068 0.139263 0.508282 -0.458863
C50   C     C_3   0.256330 0.799819 0.467830 -0.421833
C51   C     C_3   0.757882 0.699592 0.469782 -0.436574
C52   C     C_3   0.676752 0.354163 0.501904 -0.427596
H29   H     H_    0.199125 0.085808 0.529872 0.167075
H30   H     H_    0.256186 0.863200 0.485205 0.167025
H31   H     H_    0.758806 0.638230 0.493441 0.166984
H32   H     H_    0.687786 0.414394 0.518625 0.169214
H33   H     H_    0.142840 0.117642 0.480000 0.216490
H34   H     H_    0.227126 0.796428 0.424207 0.210915
H35   H     H_    0.729637 0.696440 0.424965 0.211824
H36   H     H_    0.639911 0.361629 0.468774 0.213085
C53   C     C_3   0.123343 0.192015 0.607999 -0.462666
C54   C     C_3   0.201842 0.754803 0.572334 -0.504721
C55   C     C_3   0.701238 0.749330 0.569315 -0.485874
C56   C     C_3   0.624651 0.305818 0.606286 -0.489775
H37   H     H_    0.647827 0.772256 0.569913 0.207293
H38   H     H_    0.560250 0.295800 0.628185 0.206987
H39   H     H_    0.061054 0.200339 0.622850 0.212124
H40   H     H_    0.142787 0.736104 0.583470 0.207392
H41   H     H_    0.111165 0.160059 0.678309 0.185759
H42   H     H_    0.182662 0.796388 0.638340 0.189181
H43   H     H_    0.672937 0.710080 0.639969 0.189744
H44   H     H_    0.617078 0.341371 0.671689 0.185995
H45   H     H_    0.800304 0.740559 0.633394 0.034062
H46   H     H_    0.740204 0.279370 0.641089 0.026996
H47   H     H_    0.240854 0.216753 0.629338 0.046853
H48   H     H_    0.303429 0.751934 0.635757 0.044407
C57   C     C_3   0.313805 0.215306 0.456637 0.213945
C58   C     C_3   0.387357 0.762868 0.461496 0.206808
C59   C     C_3   0.889882 0.739508 0.459524 0.207509
C60   C     C_3   0.811818 0.294612 0.468506 0.207494
C61   C     C_3   0.836897 0.819963 0.368967 -0.403984
C62   C     C_3   0.734675 0.232087 0.394182 -0.456198
C63   C     C_3   0.216300 0.258338 0.399387 -0.372164
C64   C     C_3   0.337139 0.679587 0.368879 -0.466769
C65   C     C_3   0.256986 0.187613 0.418571 0.170848
C66   C     C_3   0.346593 0.764659 0.397713 0.181819
C67   C     C_3   0.847615 0.735511 0.397804 0.158390
C68   C     C_3   0.760410 0.310627 0.419615 0.178502
H49   H     H_    0.898970 0.846805 0.307007 0.197616
H50   H     H_    0.790244 0.197844 0.330807 0.196301
H51   H     H_    0.261309 0.292050 0.325726 0.187096
H52   H     H_    0.399136 0.650917 0.312175 0.205962
H53   H     H_    0.802518 0.817714 0.331945 0.147124
H54   H     H_    0.698322 0.244760 0.361327 0.169275
H55   H     H_    0.169189 0.236244 0.387158 0.168564
H56   H     H_    0.307480 0.680733 0.325854 0.157130
C69   C     C_3   0.751090 0.818829 0.572850 0.144633
C70   C     C_3   0.668675 0.225548 0.592875 0.157489
C71   C     C_3   0.165933 0.273948 0.591593 0.128390
C72   C     C_3   0.249859 0.682145 0.573216 0.162576
C73   C     C_3   0.827523 0.784763 0.568674 0.123216
C74   C     C_3   0.756136 0.243144 0.571652 0.108637
C75   C     C_3   0.254798 0.258993 0.565836 0.098889
C76   C     C_3   0.328594 0.712008 0.566615 0.090930
C77   C     C_3   0.784043 0.870850 0.470810 -0.122434
C78   C     C_3   0.679995 0.182388 0.495118 -0.110828
C79   C     C_3   0.172973 0.314870 0.494760 -0.090948
C80   C     C_3   0.278006 0.631618 0.471915 -0.147049
H57   H     H_    0.729577 0.892754 0.473159 0.106980
H58   H     H_    0.616229 0.177789 0.512899 0.141670
H59   H     H_    0.108049 0.326488 0.518869 0.119367
H60   H     H_    0.220563 0.619146 0.475765 0.134029
C81   C     C_2   0.190609 0.740752 0.100963 -0.059361
C82   C     C_2   0.286277 0.316313 0.958424 -0.164275
C83   C     C_2   0.785885 0.183874 0.959029 -0.170390
C84   C     C_2   0.689598 0.758833 0.102346 -0.060743
H61   H     H_    0.217486 0.718359 0.140307 0.121635
H62   H     H_    0.306234 0.335075 0.007266 0.120185
H63   H     H_    0.805860 0.165119 0.007859 0.120027
H64   H     H_    0.716239 0.781126 0.142025 0.122808
C85   C     C_2   0.812850 0.251387 0.903740 -0.181070
C86   C     C_2   0.711144 0.687940 0.054166 -0.171265
C87   C     C_2   0.211810 0.811689 0.053091 -0.173354
C88   C     C_2   0.313414 0.248816 0.902934 -0.181079
H65   H     H_    0.795567 0.268893 0.851648 0.135302
H66   H     H_    0.683542 0.664820 0.016139 0.116784
H67   H     H_    0.184048 0.834853 0.015277 0.115830
H68   H     H_    0.296167 0.231322 0.850801 0.144605
N33   N     N_3   0.349896 0.147212 0.476478 -0.217506
H69   H     H_    0.303396 0.110344 0.536659 0.047592
H70   H     H_    0.384485 0.167128 0.503870 0.149243
N34   N     N_3   0.391242 0.842687 0.495811 -0.224648
H71   H     H_    0.331040 0.866079 0.551071 0.056813
H72   H     H_    0.419986 0.840183 0.535165 0.148945
N35   N     N_3   0.903092 0.660288 0.485903 -0.221260
H73   H     H_    0.845959 0.631154 0.539049 0.051334
H74   H     H_    0.932015 0.665064 0.524846 0.155588
N36   N     N_3   0.829349 0.368905 0.501755 -0.223770
H75   H     H_    0.774002 0.396339 0.564393 0.055192
H76   H     H_    0.864655 0.357046 0.530979 0.149311
N37   N     N_3   0.833251 0.938521 0.462998 -0.111678
H77   H     H_    0.793473 0.976127 0.526990 0.203735
H78   H     H_    0.852595 0.970348 0.393999 0.132412
N38   N     N_3   0.713912 0.102224 0.476588 -0.210620
H79   H     H_    0.778463 0.102627 0.440153 0.206405
H80   H     H_    0.705449 0.073799 0.423515 0.083552
N39   N     N_3   0.220690 0.388937 0.457303 -0.137873
H81   H     H_    0.203487 0.428589 0.517824 0.143901
H82   H     H_    0.208980 0.417137 0.407107 0.094763
N40   N     N_3   0.315104 0.555765 0.467629 -0.147362
H83   H     H_    0.377116 0.562930 0.441763 0.243303
H84   H     H_    0.318981 0.521737 0.408469 0.140966
N41   N     N_R   0.385912 0.264224 0.372567 0.274920
O1    O     O_R   0.463103 0.243050 0.331728 -0.386213
O2    O     O_R   0.375533 0.325424 0.331384 -0.380470
N42   N     N_R   0.474992 0.732487 0.390329 0.266211
O3    O     O_R   0.538568 0.780157 0.351432 -0.416753
O4    O     O_R   0.491165 0.658954 0.362928 -0.390475
N43   N     N_R   0.973612 0.777843 0.390086 0.264401
O5    O     O_R   0.042034 0.735570 0.341099 -0.417917
O6    O     O_R   0.981447 0.853489 0.376278 -0.352957
N44   N     N_R   0.894364 0.257333 0.386010 0.269974
O7    O     O_R   0.964261 0.296419 0.343591 -0.388384
O8    O     O_R   0.899620 0.186145 0.352319 -0.406685
N45   N     N_R   0.870731 0.840727 0.594011 0.274373
O9    O     O_R   0.839823 0.910006 0.633226 -0.352963
O10   O     O_R   0.930947 0.814952 0.598489 -0.373144
N46   N     N_R   0.802523 0.176027 0.574224 0.266953
O11   O     O_R   0.870796 0.190169 0.567001 -0.354208
O12   O     O_R   0.768023 0.107411 0.608982 -0.408252
N47   N     N_R   0.294029 0.326251 0.581272 0.259630
O13   O     O_R   0.304285 0.323146 0.657162 -0.407865
O14   O     O_R   0.322214 0.387384 0.519149 -0.328175
N48   N     N_R   0.374055 0.651593 0.582493 0.263653
O15   O     O_R   0.437341 0.673338 0.582900 -0.356014
O16   O     O_R   0.339405 0.584097 0.625433 -0.359721
N49   N     N_3   0.661876 0.748807 0.800475 -0.243741
H85   H     H_    0.702926 0.752336 0.822246 0.121451
H86   H     H_    0.604186 0.724457 0.862499 0.092966
N50   N     N_3   0.582932 0.274587 0.837102 -0.232067
H87   H     H_    0.638500 0.301376 0.816044 0.080764
H88   H     H_    0.544006 0.268737 0.920697 0.108493
N51   N     N_3   0.086578 0.225437 0.834725 -0.234940
H89   H     H_    0.143593 0.199932 0.810546 0.087710
H90   H     H_    0.048916 0.230568 0.918407 0.100346
N52   N     N_3   0.161229 0.751457 0.801235 -0.244676
H91   H     H_    0.202276 0.747678 0.822980 0.119040
H92   H     H_    0.103481 0.775781 0.863340 0.095604

loop_
_geom_bond_atom_site_label_1
_geom_bond_atom_site_label_2
_geom_bond_distance
_ccdc_geom_bond_type
C26   H18   1.076227 S    
C35   H23   1.076241 S    
N35   H73   1.044798 S    
C64   H52   1.107646 S    
C58   C76   1.581988 S    
N27   Ni6   1.856628 S    
N18   Ni2   1.834951 S    
N47   O13   1.301870 A    
C3    N3    1.325721 A    
N17   Ni1   1.835023 S    
C36   H24   1.080992 S    
N42   O3    1.302313 A    
C22   C65   1.476008 S    
C35   N27   1.320292 A    
N19   Ni3   1.835023 S    
N51   H89   1.043359 S    
C17   C88   1.447023 S    
C30   C46   1.386170 A    
C7    H7    1.076616 S    
N31   Ni8   1.827371 S    
N35   H74   1.046632 S    
C29   C45   1.401479 A    
N41   O1    1.302787 A    
N6    Ni1   1.910777 S    
C73   N45   1.475718 S    
C4    C20   1.367011 A    
C1    H1    1.079409 S    
C88   H68   1.083506 S    
N18   N29   1.449811 A    
C15   N15   1.316209 A    
N3    N12   1.323667 A    
C56   C70   1.565095 S    
N17   N30   1.450086 A    
C14   H14   1.075329 S    
C3    H3    1.077193 S    
N39   H82   1.046545 S    
C45   C69   1.482458 S    
C12   C19   1.392452 A    
N36   H76   1.046957 S    
N51   H90   1.045218 S    
C57   N41   1.487891 S    
C76   N48   1.475386 S    
C69   C77   1.574985 S    
C61   H49   1.110374 S    
C43   C81   1.454527 S    
N28   Ni6   1.854737 S    
N46   O11   1.301875 A    
C9    H9    1.081507 S    
C72   C80   1.570826 S    
C82   H62   1.083677 S    
C4    H4    1.079426 S    
N33   H70   1.047132 S    
C3    C19   1.372059 A    
C49   H29   1.108473 S    
C9    C18   1.392366 A    
N52   H92   1.044497 S    
C2    C18   1.371789 A    
C27   N19   1.319117 A    
C53   H39   1.113280 S    
C52   H32   1.110750 S    
C10   N10   1.341044 A    
C25   C41   1.385697 A    
N43   O5    1.301848 A    
N50   H88   1.045119 S    
N34   H71   1.044869 S    
C1    C17   1.366522 A    
C30   N22   1.331005 A    
C51   C55   1.514152 S    
C29   N21   1.332919 A    
C54   H42   1.107788 S    
N29   Ni7   1.827371 S    
C33   H21   1.080099 S    
C4    N4    1.328145 A    
C59   C67   1.593356 S    
N45   O9    1.301220 A    
C78   H58   1.116059 S    
N1    Ni1   1.834162 S    
C60   N36   1.481461 S    
H46   C74   1.109128 S    
C16   C23   1.378432 A    
C57   C65   1.610000 S    
C34   N26   1.319873 A    
N24   Ni3   1.910799 S    
C7    N7    1.318489 A    
C42   C84   1.455574 S    
C21   C66   1.473728 S    
C8    N8    1.329545 A    
C7    C23   1.388060 A    
C80   N40   1.465943 S    
C35   C48   1.382488 A    
C36   N28   1.312176 A    
C37   H25   1.081264 S    
N10   Ni5   1.898778 S    
C2    H2    1.077078 S    
C82   C88   1.341464 D    
C24   C67   1.474531 S    
N25   Ni5   1.856628 S    
N50   H87   1.042963 S    
C83   C85   1.341353 D    
C31   N51   1.431522 S    
C53   H41   1.106675 S    
C26   N18   1.319632 A    
C38   H26   1.080072 S    
C5    C21   1.382920 A    
C40   H28   1.081244 S    
C69   C73   1.575635 S    
C23   C68   1.473897 S    
C62   H54   1.114871 S    
C55   C69   1.559096 S    
C77   N37   1.464139 S    
N32   Ni8   1.829223 S    
C63   C79   1.528195 S    
C41   C83   1.449303 S    
C53   C71   1.570246 S    
N12   Ni6   1.898778 S    
C12   H12   1.081494 S    
C1    N1    1.328657 A    
C10   C17   1.376361 A    
C25   N17   1.319225 A    
N48   O16   1.301432 A    
C81   H61   1.083037 S    
N36   H75   1.044749 S    
C44   C82   1.449275 S    
C11   N11   1.340975 A    
C15   H15   1.075118 S    
C74   N46   1.477440 S    
C37   C42   1.392854 A    
N44   O7    1.302741 A    
N30   Ni7   1.829223 S    
C84   H64   1.083127 S    
C37   N29   1.349639 A    
C63   H51   1.102878 S    
C39   C44   1.397880 A    
N39   H81   1.034043 S    
C8    C24   1.384292 A    
C57   N33   1.483241 S    
N52   H91   1.043112 S    
C28   C44   1.385357 A    
C83   H63   1.083695 S    
C58   N42   1.483823 S    
C60   C68   1.602139 S    
C34   H22   1.076670 S    
C80   H60   1.115564 S    
N40   H84   1.045580 S    
N7    Ni4   1.910813 S    
C58   C66   1.595406 S    
C36   C47   1.363366 A    
C77   H57   1.113720 S    
C31   C47   1.390857 A    
C46   C70   1.470699 S    
C79   N39   1.472325 S    
N14   Ni7   1.875140 S    
C52   C68   1.547433 S    
H45   C73   1.104643 S    
N37   H77   1.040653 S    
N9    Ni5   1.900712 S    
C32   N24   1.332002 A    
N47   O14   1.297924 A    
C15   C24   1.371439 A    
C8    H8    1.080462 S    
N4    N11   1.323918 A    
N44   O8    1.299616 A    
C18   C87   1.449461 S    
N45   O10   1.301824 A    
N24   N27   1.394233 A    
C28   N20   1.319599 A    
C64   H56   1.113218 S    
C19   C86   1.450351 S    
N19   N32   1.450086 A    
N22   Ni1   1.910799 S    
N5    Ni2   1.910813 S    
N34   H72   1.046902 S    
N21   Ni2   1.910765 S    
C62   C78   1.523310 S    
N38   H80   1.046170 S    
C70   C74   1.577055 S    
C63   H55   1.114501 S    
N49   H86   1.044501 S    
C11   H11   1.081856 S    
C49   C65   1.551593 S    
N23   Ni4   1.910765 S    
C84   C86   1.348493 D    
N26   Ni5   1.854737 S    
C60   N44   1.487083 S    
C13   C22   1.381475 A    
C13   N13   1.324345 A    
C33   C46   1.367647 A    
C2    N2    1.325063 A    
C54   C72   1.561434 S    
C52   C56   1.540451 S    
C49   C53   1.545270 S    
C11   C20   1.376855 A    
C40   N32   1.349460 A    
C71   C79   1.579647 S    
N5    N14   1.376245 A    
C64   C66   1.559672 S    
C72   C76   1.574473 S    
C29   N49   1.427920 S    
C16   N16   1.320353 A    
H48   C76   1.105075 S    
C78   N38   1.471680 S    
C51   C67   1.550252 S    
N7    N16   1.376245 A    
C62   H50   1.106897 S    
N43   O6    1.301080 A    
C32   C48   1.399214 A    
C26   C42   1.367321 A    
N8    N15   1.376507 A    
C6    H6    1.072952 S    
C54   H40   1.114869 S    
N20   Ni4   1.834951 S    
C32   N52   1.427860 S    
C55   H37   1.114865 S    
N42   O4    1.300217 A    
C71   C75   1.565837 S    
C52   H36   1.113580 S    
C50   C54   1.514976 S    
N4    Ni4   1.834140 S    
C51   H31   1.111474 S    
C56   H44   1.109087 S    
N3    Ni3   1.834162 S    
C79   H59   1.115350 S    
C70   C78   1.571348 S    
C27   H19   1.076179 S    
N13   Ni7   1.873225 S    
C5    H5    1.080208 S    
C25   H17   1.073023 S    
C28   H20   1.072199 S    
C6    C22   1.387339 A    
C39   N31   1.342696 A    
N8    Ni3   1.910777 S    
C59   N35   1.476811 S    
C61   C67   1.557234 S    
N20   N31   1.449811 A    
H47   C75   1.112129 S    
C40   C43   1.392704 A    
N41   O2    1.298869 A    
N11   Ni6   1.900712 S    
C5    N5    1.328388 A    
C31   N23   1.333618 A    
C81   C87   1.348335 D    
C6    N6    1.318413 A    
N40   H83   1.041373 S    
N16   Ni8   1.875140 S    
C14   C21   1.372464 A    
C75   N47   1.477719 S    
C50   H30   1.112525 S    
N48   O15   1.301778 A    
N2    Ni2   1.834140 S    
N37   H78   1.046172 S    
N46   O12   1.298514 A    
N1    N10   1.323667 A    
C50   C66   1.550678 S    
N2    N9    1.323918 A    
C61   C77   1.538923 S    
C20   C85   1.446932 S    
C63   C65   1.568182 S    
N22   N25   1.394233 A    
C13   H13   1.078253 S    
N33   H69   1.043825 S    
C87   H67   1.082093 S    
N21   N26   1.394499 A    
C14   N14   1.316573 A    
C55   H43   1.108728 S    
C86   H66   1.082113 S    
C33   N25   1.311779 A    
C64   C80   1.537322 S    
C85   H65   1.083516 S    
N23   N28   1.394499 A    
C16   H16   1.076571 S    
N6    N13   1.376507 A    
C61   H53   1.114221 S    
N38   H79   1.040182 S    
C12   N12   1.343202 A    
C39   H27   1.079990 S    
C56   H38   1.113506 S    
N15   Ni8   1.873225 S    
C9    N9    1.343016 A    
C27   C43   1.366784 A    
C58   N34   1.477991 S    
C48   C72   1.480432 S    
C62   C68   1.561163 S    
C50   H34   1.115126 S    
C38   C41   1.398437 A    
C59   N43   1.482896 S    
N49   H85   1.043268 S    
C49   H33   1.113550 S    
C47   C71   1.476282 S    
C34   C45   1.382598 A    
C38   N30   1.342724 A    
C57   C75   1.557456 S    
C59   C73   1.578083 S    
C60   C74   1.562772 S    
C30   N50   1.432475 S    
C10   H10   1.081846 S    
C51   H35   1.115333 S    
