data_mof_unit_21344.cif
_audit_creation_date              2013-03-05T16:48:20-0500
_audit_creation_method            fapswitch 2.2
_symmetry_space_group_name_H-M    P1
_symmetry_Int_Tables_number       1
_space_group_crystal_system       triclinic
_cell_length_a                    15.077564
_cell_length_b                    10.945179
_cell_length_c                    13.905512
_cell_angle_alpha                 89.124088
_cell_angle_beta                  91.171406
_cell_angle_gamma                 86.048755
_cell_volume                      2288.52617019

loop_
_atom_site_label
_atom_site_type_symbol
_atom_site_description
_atom_site_fract_x
_atom_site_fract_y
_atom_site_fract_z
_atom_type_partial_charge
O1    O     O_R   0.500000 0.319630 0.582270 -0.550620
O2    O     O_R   0.500000 0.680370 0.417730 -0.547088
O3    O     O_R   0.499990 0.319660 0.417730 -0.596337
O4    O     O_R   0.500010 0.680340 0.582270 -0.593627
C1    C     C_R   0.498113 0.262585 0.499942 0.881082
C2    C     C_R   0.502700 0.737280 0.499928 0.881737
O5    O     O_R   0.370260 0.499960 0.582280 -0.531253
O6    O     O_R   0.629740 0.500040 0.417720 -0.530432
O7    O     O_R   0.370250 0.499990 0.417740 -0.582778
O8    O     O_R   0.629750 0.500010 0.582260 -0.580654
C3    C     C_R   0.328994 0.501904 0.499662 0.933664
C4    C     C_R   0.671197 0.498395 0.499901 0.914096
Cu1   Cu    Cu3+1 0.500010 0.499980 0.597420 1.065249
Cu2   Cu    Cu3+1 0.499990 0.500020 0.402580 1.065475
C5    C     C_R   0.806346 0.596568 0.449137 0.261885
C6    C     C_R   0.191144 0.397053 0.526513 0.252036
C7    C     C_R   0.768393 0.497584 0.495279 -0.274525
C8    C     C_R   0.232118 0.503491 0.499157 -0.262887
C9    C     C_R   0.822047 0.389602 0.516602 0.289836
C10   C     C_R   0.180069 0.613074 0.477522 0.272790
C11   C     C_R   0.914132 0.387334 0.500161 -0.078117
C12   C     C_R   0.087699 0.608134 0.459631 -0.060243
C13   C     C_R   0.953731 0.496983 0.478617 -0.041872
C14   C     C_R   0.047232 0.498625 0.481176 -0.031384
C15   C     C_R   0.899928 0.602575 0.450897 -0.082215
C16   C     C_R   0.099610 0.390820 0.508413 -0.082741
C17   C     C_R   0.967417 0.277212 0.498051 0.164153
C18   C     C_R   0.034374 0.709298 0.420564 0.136274
C19   C     C_R   0.059523 0.277701 0.510234 0.282693
C20   C     C_R   0.941107 0.708783 0.421295 0.286805
H1    H     H_    0.324032 0.267756 0.088970 0.181714
H2    H     H_    0.689573 0.721234 0.899828 0.180192
C21   C     C_R   0.314106 0.256654 0.243245 0.195816
C22   C     C_R   0.696464 0.742888 0.745841 0.198220
C23   C     C_R   0.351727 0.205102 0.328656 -0.074080
C24   C     C_R   0.656259 0.798162 0.663065 -0.101694
H3    H     H_    0.319979 0.225497 0.395619 0.195024
H4    H     H_    0.687604 0.784440 0.594731 0.187889
C25   C     C_R   0.429647 0.126976 0.327073 0.052383
C26   C     C_R   0.576592 0.872016 0.669095 0.058522
C27   C     C_R   0.468754 0.100899 0.238290 -0.075717
C28   C     C_R   0.539098 0.891833 0.759586 -0.071849
H5    H     H_    0.529224 0.041799 0.235384 0.200871
H6    H     H_    0.477686 0.948252 0.765756 0.197872
C29   C     C_R   0.429985 0.150282 0.152860 -0.089720
C30   C     C_R   0.580373 0.838582 0.842422 -0.096405
H7    H     H_    0.459454 0.127366 0.084609 0.199853
H8    H     H_    0.551799 0.855783 0.912069 0.194266
C31   C     C_R   0.353245 0.228968 0.155324 -0.128170
C32   C     C_R   0.658410 0.763114 0.835512 -0.124004
C33   C     C_R   0.473368 0.937618 0.418716 -0.096533
C34   C     C_R   0.527711 0.062016 0.580569 -0.101163
H9    H     H_    0.450239 0.889726 0.356488 0.203123
H10   H     H_    0.550578 0.109581 0.642986 0.200437
C35   C     C_R   0.505456 0.871148 0.500393 -0.041071
C36   C     C_R   0.495715 0.128658 0.498885 -0.038465
C37   C     C_R   0.534861 0.934321 0.582092 0.013344
C38   C     C_R   0.467462 0.065414 0.416474 0.019405
C39   C     C_R   0.548155 0.409883 0.797635 0.306105
C40   C     C_R   0.449649 0.588563 0.202726 0.315263
N1    N     N_R   0.499960 0.499900 0.743810 -0.246106
N2    N     N_R   0.500040 0.500100 0.256190 -0.241581
C41   C     C_R   0.447779 0.586910 0.792532 0.281440
C42   C     C_R   0.552915 0.414019 0.207455 0.292087
C43   C     C_R   0.452682 0.593417 0.894848 -0.083437
C44   C     C_R   0.547226 0.406982 0.105304 -0.079062
C45   C     C_R   0.498284 0.498558 0.948663 0.010258
C46   C     C_R   0.500675 0.501167 0.051606 0.009425
C47   C     C_R   0.540224 0.400133 0.899759 -0.124819
C48   C     C_R   0.457742 0.598795 0.100614 -0.122415
C49   C     C_R   0.415741 0.694798 0.944669 -0.239210
C50   C     C_R   0.584003 0.305474 0.055623 -0.239942
C51   C     C_R   0.422566 0.701687 0.045148 0.359985
C52   C     C_R   0.575156 0.297180 0.955434 0.355783
H11   H     H_    0.388865 0.775615 0.905886 0.201350
H12   H     H_    0.611771 0.225278 0.094561 0.200972
N3    N     N_R   0.751496 0.677054 0.386503 0.171231
O9    O     O_R   0.758582 0.667224 0.293753 -0.272020
O10   O     O_R   0.688217 0.749548 0.420485 -0.369105
N4    N     N_R   0.237374 0.306856 0.589303 0.161841
O11   O     O_R   0.314827 0.256469 0.568253 -0.382602
O12   O     O_R   0.202508 0.277965 0.670710 -0.261211
I1    I     I_    0.654071 0.304552 0.735729 -0.069675
I2    I     I_    0.340444 0.690764 0.264910 -0.121978
I3    I     I_    0.350032 0.708857 0.719989 -0.139731
I4    I     I_    0.651784 0.293343 0.279968 -0.181481
N5    N     N_R   0.409213 0.820206 0.086994 0.124318
O13   O     O_R   0.346899 0.898771 0.053782 -0.316122
O14   O     O_R   0.469365 0.857024 0.146088 -0.383217
N6    N     N_R   0.586574 0.177738 0.914566 0.122035
O15   O     O_R   0.648774 0.098693 0.947323 -0.315582
O16   O     O_R   0.524918 0.140799 0.857372 -0.383746
N7    N     N_R   0.783945 0.282359 0.554134 0.138071
O17   O     O_R   0.713776 0.241501 0.513128 -0.355408
O18   O     O_R   0.825692 0.216723 0.622053 -0.274293
N8    N     N_R   0.214874 0.728693 0.501084 0.145939
O19   O     O_R   0.294915 0.753599 0.478500 -0.360020
O20   O     O_R   0.170633 0.802363 0.558292 -0.242071
I5    I     I_    0.917656 0.125587 0.426469 0.073048
I6    I     I_    0.090707 0.855565 0.343198 0.036157
N9    N     N_R   0.111928 0.163035 0.511509 0.171031
O21   O     O_R   0.093542 0.075929 0.571065 -0.216275
O22   O     O_R   0.170711 0.140353 0.445825 -0.317087
N10   N     N_R   0.888802 0.820545 0.401357 0.160024
O23   O     O_R   0.841177 0.870443 0.469265 -0.277839
O24   O     O_R   0.878124 0.861889 0.313326 -0.252066
I7    I     I_    0.196733 0.372902 0.246458 -0.256624
I8    I     I_    0.815756 0.631746 0.735811 -0.212693

loop_
_geom_bond_atom_site_label_1
_geom_bond_atom_site_label_2
_geom_bond_distance
_ccdc_geom_bond_type
C44   C46   1.402928 A    
N5    O13   1.301627 A    
C41   C43   1.426286 A    
C3    C8    1.459436 S    
N9    O21   1.301277 A    
C17   C19   1.395980 A    
C1    C36   1.469076 S    
C21   I7    2.108884 S    
C2    C35   1.468762 S    
C50   H12   1.079097 S    
N10   O24   1.301590 A    
C25   C27   1.403796 A    
N3    O9    1.301815 A    
O5    C3    1.294459 A    
C17   I5    2.121175 S    
N7    O17   1.301063 A    
O1    C1    1.313091 A    
C9    C11   1.410316 A    
C39   I1    2.110273 S    
C5    C15   1.416775 A    
C21   C31   1.396766 A    
Cu2   N2    2.035630 S    
C8    C10   1.412275 A    
C40   N2    1.385991 A    
C28   C30   1.397856 A    
O4    Cu1   1.982078 S    
N1    C41   1.386800 A    
C51   N5    1.433099 S    
N2    C42   1.385862 A    
C21   C23   1.399484 A    
C44   C50   1.404753 A    
C43   C45   1.402688 A    
N8    O20   1.301978 A    
C4    C7    1.467617 S    
C13   C14   1.410855 A    
C29   C31   1.395302 A    
C22   C24   1.399293 A    
C9    N7    1.437594 S    
C18   I6    2.147981 S    
C29   H7    1.081770 S    
C11   C17   1.402741 A    
N7    O18   1.302647 A    
C12   C18   1.417256 A    
Cu1   Cu2   2.709338 S    
C41   I3    2.144319 S    
C27   H5    1.082754 S    
O2    C2    1.311288 A    
C28   H6    1.082647 S    
H1    C31   1.082236 S    
C42   I4    2.147091 S    
N10   O23   1.301926 A    
C34   H10   1.081454 S    
N3    O10   1.299514 A    
C6    C16   1.404280 A    
C30   H8    1.081874 S    
C22   C32   1.397569 A    
C39   N1    1.384024 A    
C45   C46   1.431953 A    
C24   C26   1.405592 A    
N4    O12   1.301574 A    
C49   C51   1.402458 A    
C43   C49   1.405557 A    
C25   C38   1.488976 S    
C33   H9    1.082528 S    
C42   C44   1.424875 A    
C23   C25   1.405380 A    
O7    Cu2   1.971790 S    
N6    O16   1.300605 A    
C40   C48   1.430992 A    
O6    C4    1.290571 A    
N8    O19   1.299063 A    
C48   C51   1.420853 A    
C19   N9    1.435912 S    
C47   C52   1.421764 A    
C33   C38   1.395270 A    
O7    C3    1.308811 A    
H2    C32   1.082287 S    
O3    Cu2   1.982078 S    
O8    C4    1.315591 A    
C39   C47   1.430525 A    
C50   C52   1.401756 A    
C10   C12   1.414603 A    
C35   C37   1.418092 A    
C12   C14   1.412768 A    
O4    C2    1.297941 A    
O1    Cu1   1.988381 S    
C24   H4    1.077845 S    
N9    O22   1.300428 A    
C45   C47   1.403186 A    
C15   C20   1.414751 A    
C5    C7    1.411419 A    
O6    Cu2   1.963341 S    
C26   C37   1.486302 S    
C23   H3    1.075125 S    
C6    C8    1.406698 A    
C14   C16   1.416013 A    
N4    O11   1.297593 A    
O3    C1    1.296106 A    
O8    Cu1   1.971790 S    
C30   C32   1.396083 A    
C22   I8    2.109095 S    
C52   N6    1.434354 S    
C11   C13   1.407688 A    
C18   C20   1.406888 A    
C49   H11   1.079152 S    
C40   I2    2.131674 S    
N6    O15   1.301601 A    
C5    N3    1.437086 S    
C26   C28   1.403760 A    
C7    C9    1.409587 A    
C36   C38   1.420848 A    
C33   C35   1.398958 A    
C13   C15   1.409514 A    
C10   N8    1.442685 S    
O2    Cu2   1.988382 S    
C34   C37   1.394181 A    
O5    Cu1   1.963341 S    
Cu1   N1    2.035629 S    
C16   C19   1.414800 A    
C46   C48   1.403648 A    
C20   N10   1.429310 S    
N5    O14   1.300080 A    
C27   C29   1.397666 A    
C6    N4    1.441092 S    
C34   C36   1.399534 A    
