data_mof_unit_52830.cif
_audit_creation_date              2013-03-05T16:14:05-0500
_audit_creation_method            fapswitch 2.2
_symmetry_space_group_name_H-M    P1
_symmetry_Int_Tables_number       1
_space_group_crystal_system       triclinic
_cell_length_a                    9.937612
_cell_length_b                    10.749792
_cell_length_c                    16.940677
_cell_angle_alpha                 84.710676
_cell_angle_beta                  96.439545
_cell_angle_gamma                 87.621455
_cell_volume                      1788.19137349

loop_
_atom_site_label
_atom_site_type_symbol
_atom_site_description
_atom_site_fract_x
_atom_site_fract_y
_atom_site_fract_z
_atom_type_partial_charge
O1    O     O_R   0.614620 0.316750 0.500010 -0.546462
O2    O     O_R   0.385380 0.683250 0.499990 -0.546462
O3    O     O_R   0.385290 0.316780 0.500000 -0.616412
O4    O     O_R   0.614710 0.683220 0.500000 -0.616456
C1    C     C_R   0.500687 0.261115 0.493570 0.987517
C2    C     C_R   0.499313 0.738884 0.506432 0.987494
O5    O     O_R   0.627460 0.498830 0.616130 -0.545008
O6    O     O_R   0.372540 0.501170 0.383870 -0.545020
O7    O     O_R   0.398130 0.498850 0.616130 -0.631827
O8    O     O_R   0.601870 0.501150 0.383870 -0.631776
C3    C     C_R   0.519581 0.505308 0.653163 0.902986
C4    C     C_R   0.480419 0.494692 0.346837 0.903005
Zn1   Zn    Zn3+2 0.653130 0.499980 0.500000 1.054841
Zn2   Zn    Zn3+2 0.346870 0.500020 0.500000 1.054834
C5    C     C_R   0.530861 0.518280 0.739871 -0.156031
C6    C     C_R   0.469139 0.481719 0.260129 -0.156027
C7    C     C_R   0.414473 0.565314 0.771076 -0.113165
C8    C     C_R   0.585529 0.434690 0.228923 -0.113143
C9    C     C_R   0.397665 0.531773 0.851283 -0.103381
C10   C     C_R   0.602334 0.468230 0.148716 -0.103384
C11   C     C_R   0.505029 0.466799 0.902059 0.194512
C12   C     C_R   0.494966 0.533198 0.097940 0.194514
C13   C     C_R   0.628034 0.434748 0.873468 -0.113960
C14   C     C_R   0.371960 0.565245 0.126532 -0.113957
C15   C     C_R   0.643910 0.465313 0.792507 -0.160667
C16   C     C_R   0.356087 0.534680 0.207493 -0.160663
N1    N     N_2   0.497419 0.449336 0.984873 -0.135387
N2    N     N_2   0.502574 0.550662 0.015126 -0.135386
C17   C     C_R   0.378129 0.069736 0.471162 -0.224535
C18   C     C_R   0.621868 0.930261 0.528850 -0.224551
C19   C     C_R   0.376725 0.942611 0.491382 0.608149
C20   C     C_R   0.623274 0.057386 0.508630 0.608139
C21   C     C_R   0.498351 0.871644 0.513687 -0.310428
C22   C     C_R   0.501648 0.128353 0.486322 -0.310434
C23   C     C_R   0.057329 0.590394 0.453475 -0.119268
C24   C     C_R   0.942671 0.409608 0.546525 -0.119271
C25   C     C_R   0.913458 0.585694 0.450876 -0.036407
C26   C     C_R   0.086541 0.414312 0.549127 -0.036409
N3    N     N_R   0.857210 0.499970 0.500020 -0.145164
N4    N     N_R   0.142790 0.500030 0.499980 -0.145165
C27   C     C_2   0.687642 0.348776 0.280690 1.052720
O9    O     O_2   0.649861 0.258000 0.319636 -0.592711
O10   O     O_R   0.825208 0.373519 0.286923 -0.754856
H1    H     H_    0.883179 0.309611 0.325300 0.350141
C28   C     C_2   0.312368 0.651236 0.719310 1.052716
O11   O     O_2   0.350156 0.742012 0.680369 -0.592699
O12   O     O_R   0.174799 0.626502 0.713073 -0.754840
H2    H     H_    0.116834 0.690415 0.674698 0.350143
C29   C     C_2   0.732754 0.439247 0.117692 1.015434
O13   O     O_2   0.787013 0.521784 0.080148 -0.556385
O14   O     O_R   0.794200 0.318639 0.132064 -0.732064
H3    H     H_    0.885754 0.312427 0.111313 0.372670
C30   C     C_2   0.267244 0.560760 0.882305 1.015444
O15   O     O_2   0.212979 0.478223 0.919846 -0.556380
O16   O     O_R   0.205805 0.681370 0.867935 -0.732060
H4    H     H_    0.114251 0.687586 0.888686 0.372671
C31   C     C_2   0.740169 0.370140 0.929413 0.997933
O17   O     O_2   0.720329 0.272691 0.968561 -0.555669
O18   O     O_R   0.868396 0.419827 0.936469 -0.725810
H5    H     H_    0.937413 0.365433 0.974580 0.380266
C32   C     C_2   0.259821 0.629848 0.070588 0.997931
O19   O     O_2   0.279655 0.727300 0.031440 -0.555671
O20   O     O_R   0.131598 0.580153 0.063531 -0.725812
H6    H     H_    0.062579 0.634543 0.025419 0.380269
C33   C     C_2   0.779248 0.446030 0.764835 1.060571
O21   O     O_2   0.844298 0.346261 0.782320 -0.579530
O22   O     O_R   0.834922 0.544341 0.721722 -0.707779
H7    H     H_    0.927565 0.520196 0.706523 0.365719
C34   C     C_2   0.220749 0.553957 0.235166 1.060563
O23   O     O_2   0.155692 0.653723 0.217680 -0.579537
O24   O     O_R   0.165082 0.455645 0.278282 -0.707782
H8    H     H_    0.072440 0.479787 0.293484 0.365700
C35   C     C_2   0.252346 0.136269 0.428652 1.091149
O25   O     O_2   0.260043 0.215726 0.373056 -0.588215
O26   O     O_R   0.125262 0.105979 0.450647 -0.621793
H9    H     H_    0.048105 0.157954 0.417364 0.352619
C36   C     C_2   0.747646 0.863728 0.571369 1.091143
O27   O     O_2   0.739937 0.784256 0.626955 -0.588210
O28   O     O_R   0.874737 0.894034 0.549394 -0.621783
H10   H     H_    0.951889 0.842057 0.582681 0.352616
F1    F     F_    0.256579 0.888030 0.487741 -0.589324
F2    F     F_    0.743420 0.111967 0.512271 -0.589327
C37   C     C_2   0.109988 0.702776 0.411227 1.054155
O29   O     O_2   0.049248 0.804493 0.409604 -0.499314
O30   O     O_R   0.224399 0.695278 0.371669 -0.757217
H11   H     H_    0.248053 0.779272 0.345882 0.354716
C38   C     C_2   0.890018 0.297224 0.588773 1.054173
O31   O     O_2   0.950769 0.195511 0.590402 -0.499334
O32   O     O_R   0.775601 0.304717 0.628328 -0.757208
H12   H     H_    0.751952 0.220721 0.654117 0.354724
C39   C     C_2   0.824946 0.663693 0.387451 1.002820
O33   O     O_2   0.807020 0.629077 0.320539 -0.596897
O34   O     O_R   0.772999 0.781259 0.401487 -0.738093
H13   H     H_    0.716937 0.826290 0.352719 0.354855
C40   C     C_2   0.175045 0.336341 0.612570 1.002825
O35   O     O_2   0.192882 0.370954 0.679488 -0.596902
O36   O     O_R   0.227076 0.218796 0.598545 -0.738114
H14   H     H_    0.283118 0.173783 0.647328 0.354847

loop_
_geom_bond_atom_site_label_1
_geom_bond_atom_site_label_2
_geom_bond_distance
_ccdc_geom_bond_type
C26   N4    1.363977 A    
C38   O31   1.223378 D    
O34   H13   1.013859 S    
C27   O10   1.397779 S    
C27   O9    1.223016 D    
C40   O35   1.221957 D    
O10   H1    1.013557 S    
O36   H14   1.013862 S    
C28   O11   1.223003 D    
O5    C3    1.304014 A    
C14   C32   1.483194 S    
O1    C1    1.300781 A    
C9    C11   1.409838 A    
C14   C16   1.408430 A    
O30   H11   1.014542 S    
C5    C15   1.417752 A    
C17   C35   1.490486 S    
C5    C7    1.418007 A    
C35   O25   1.222996 D    
C28   O12   1.397773 S    
O4    Zn1   1.990835 S    
C34   O24   1.397594 S    
C18   C36   1.490488 S    
C3    C5    1.480472 S    
C4    C6    1.480475 S    
C33   O22   1.397594 S    
C26   C40   1.480504 S    
C19   C21   1.397689 A    
C32   O19   1.222489 D    
C36   O27   1.222993 D    
C9    C30   1.484091 S    
C36   O28   1.398972 S    
C11   N1    1.409101 S    
O18   H5    1.013374 S    
C12   N2    1.409101 S    
C17   C19   1.378909 A    
C35   O26   1.398977 S    
O2    C2    1.300780 A    
C30   O16   1.398511 S    
C24   C38   1.490844 S    
C6    C16   1.417753 A    
C25   C39   1.480502 S    
O22   H7    1.013373 S    
O12   H2    1.013554 S    
C15   C33   1.485860 S    
O28   H10   1.013600 S    
O4    C2    1.291554 A    
C8    C27   1.491652 S    
C39   O33   1.221926 D    
O7    Zn2   1.974870 S    
C23   C37   1.490850 S    
C29   O14   1.398510 S    
C30   O15   1.222743 D    
C17   C22   1.411745 A    
O14   H3    1.013335 S    
C20   C22   1.397693 A    
O26   H9    1.013602 S    
C10   C29   1.484093 S    
C39   O34   1.396079 S    
C37   O29   1.223374 D    
O6    C4    1.304016 A    
C1    C22   1.443401 S    
O16   H4    1.013335 S    
C32   O20   1.399085 S    
O7    C3    1.303929 A    
O3    Zn2   1.990838 S    
O8    C4    1.303929 A    
C37   O30   1.386213 S    
C10   C12   1.409837 A    
C33   O21   1.223442 D    
C11   C13   1.405752 A    
C12   C14   1.405753 A    
O1    Zn1   2.022038 S    
C13   C31   1.483194 S    
O6    Zn2   2.010953 S    
C18   C21   1.411739 A    
C23   C25   1.428606 A    
C24   N3    1.387759 A    
C7    C28   1.491649 S    
O3    C1    1.291551 A    
O8    Zn1   1.974870 S    
C40   O36   1.396103 S    
C20   F2    1.349781 S    
C19   F1    1.349780 S    
C2    C21   1.443401 S    
C38   O32   1.386214 S    
C23   N4    1.387763 A    
O24   H8    1.013374 S    
C25   N3    1.363977 A    
C18   C20   1.378915 A    
C31   O17   1.222485 D    
C24   C26   1.428596 A    
C7    C9    1.403461 A    
C8    C10   1.403461 A    
C13   C15   1.408433 A    
C34   O23   1.223444 D    
O2    Zn2   2.022036 S    
Zn1   N3    2.028025 S    
C31   O18   1.399081 S    
Zn2   N4    2.028025 S    
O20   H6    1.013378 S    
O5    Zn1   2.010952 S    
C6    C8    1.418010 A    
C29   O13   1.222743 D    
N1    N2    1.246346 D    
C16   C34   1.485860 S    
O32   H12   1.014541 S    
