data_mof_unit_66297.cif
_audit_creation_date              2012-12-10T19:56:33-0500
_audit_creation_method            fapswitch 2.2
_symmetry_space_group_name_H-M    P1
_symmetry_Int_Tables_number       1
_space_group_crystal_system       triclinic
_cell_length_a                    15.019807
_cell_length_b                    14.138146
_cell_length_c                    23.434316
_cell_angle_alpha                 89.962191
_cell_angle_beta                  90.046324
_cell_angle_gamma                 89.984797
_cell_volume                      4976.32624071

loop_
_atom_site_label
_atom_site_type_symbol
_atom_type_description
_atom_site_fract_x
_atom_site_fract_y
_atom_site_fract_z
_atom_type_partial_charge
C1    C     C_R   0.327647 0.500017 0.499837 0.967906
C2    C     C_R   0.520952 0.580108 0.704591 0.497985
C3    C     C_R   0.453399 0.421438 0.239364 0.588752
C4    C     C_R   0.518572 0.578108 0.763906 0.598276
C5    C     C_R   0.490305 0.496142 0.208401 -0.201975
C6    C     C_R   0.492596 0.495530 0.792090 -0.201412
C7    C     C_R   0.093134 0.577430 0.520760 -0.214009
C8    C     C_R   0.906978 0.422447 0.520644 -0.211127
C9    C     C_R   0.906075 0.577176 0.475254 -0.217332
C10   C     C_R   0.093872 0.423163 0.474917 -0.215250
C11   C     C_R   0.185024 0.577576 0.521667 0.586262
C12   C     C_R   0.672361 0.499997 0.499909 0.966458
C13   C     C_R   0.815083 0.422314 0.521618 0.590233
C14   C     C_R   0.814176 0.577502 0.475903 0.597408
C15   C     C_R   0.185782 0.422857 0.475501 0.605001
C16   C     C_R   0.231702 0.500093 0.499070 -0.333876
C17   C     C_R   0.768320 0.499992 0.499220 -0.332473
C18   C     C_R   0.047892 0.500270 0.497553 -0.025085
C19   C     C_R   0.952135 0.499810 0.497600 -0.024222
C20   C     C_R   0.499263 0.499976 0.389258 1.056617
C21   C     C_R   0.499582 0.499872 0.610858 1.046930
C22   C     C_R   0.455819 0.105243 0.457132 -0.223529
C23   C     C_R   0.529205 0.573080 0.236347 0.592295
C24   C     C_R   0.572656 0.894813 0.521788 -0.220651
C25   C     C_R   0.544008 0.105196 0.543049 -0.218875
C26   C     C_R   0.427247 0.894903 0.478376 -0.219603
C27   C     C_R   0.456367 0.204583 0.458044 0.102594
C28   C     C_R   0.571159 0.795458 0.521539 0.141183
C29   C     C_R   0.543460 0.204557 0.542077 0.124526
C30   C     C_R   0.428798 0.795552 0.478532 0.103077
C31   C     C_R   0.499938 0.053397 0.500092 0.108695
C32   C     C_R   0.499944 0.946681 0.500096 0.121578
C33   C     C_R   0.568112 0.470168 0.880848 0.736006
C34   C     C_R   0.468643 0.414897 0.761433 0.587312
C35   C     C_R   0.412980 0.514912 0.119597 0.741392
C36   C     C_R   0.413215 0.507998 0.880291 0.726809
C37   C     C_R   0.564286 0.463275 0.120192 0.722168
C38   C     C_R   0.409652 0.503171 0.939898 -0.215109
C39   C     C_R   0.565206 0.457680 0.060575 -0.214059
C40   C     C_R   0.487768 0.478986 0.970187 -0.113551
C41   C     C_R   0.486438 0.479198 0.030274 -0.115257
C42   C     C_R   0.567480 0.456508 0.940424 -0.210666
C43   C     C_R   0.407016 0.502734 0.060037 -0.211724
C44   C     C_R   0.329658 0.519695 0.969398 0.624857
C45   C     C_R   0.531866 0.575056 0.295653 0.497087
C46   C     C_R   0.642107 0.429042 0.031087 0.625846
C47   C     C_R   0.326297 0.514871 0.029002 0.309926
C48   C     C_R   0.642841 0.423381 0.971477 0.312298
C49   C     C_R   0.470652 0.416236 0.702286 0.492110
C50   C     C_R   0.495804 0.499424 0.327086 -0.536172
C51   C     C_R   0.497152 0.498914 0.673257 -0.528191
C52   C     C_R   0.456033 0.422784 0.298513 0.489489
F1    F     F_    0.254132 0.540849 0.940095 -0.523814
F2    F     F_    0.542024 0.656050 0.794162 -0.543677
F3    F     F_    0.227846 0.652133 0.545797 -0.617213
F4    F     F_    0.772343 0.347554 0.545597 -0.628074
F5    F     F_    0.770505 0.652383 0.452693 -0.602633
F6    F     F_    0.229411 0.348284 0.452000 -0.607730
F7    F     F_    0.717296 0.406676 0.060417 -0.524960
F8    F     F_    0.564893 0.645379 0.205879 -0.542321
F9    F     F_    0.443484 0.335037 0.789270 -0.545356
F10   F     F_    0.571530 0.649368 0.322135 -0.542752
F11   F     F_    0.445424 0.337069 0.673727 -0.566652
F12   F     F_    0.418302 0.350103 0.327670 -0.576353
F13   F     F_    0.547978 0.660607 0.678130 -0.565659
F14   F     F_    0.415498 0.347179 0.211848 -0.545156
H1    H     H_    0.421941 0.243503 0.424991 0.218822
H2    H     H_    0.631077 0.930401 0.538175 0.162311
H3    H     H_    0.577730 0.069556 0.577753 0.171256
H4    H     H_    0.368792 0.930552 0.462036 0.162860
H5    H     H_    0.158603 0.446191 0.134425 0.408000
H6    H     H_    0.755254 0.273747 0.866413 0.405415
H7    H     H_    0.627316 0.756645 0.538496 0.168115
H8    H     H_    0.577626 0.243490 0.575235 0.183785
H9    H     H_    0.372635 0.756816 0.461577 0.159482
H10   H     H_    0.057149 0.636646 0.538914 0.199170
H11   H     H_    0.943035 0.363053 0.538611 0.199279
H12   H     H_    0.941418 0.636657 0.456875 0.199276
H13   H     H_    0.058459 0.363876 0.456376 0.199878
H14   H     H_    0.422012 0.069659 0.422478 0.174838
N1    N     N_R   0.491502 0.492429 0.852754 -0.308312
N2    N     N_R   0.489490 0.492417 0.147733 -0.308524
N3    N     N_R   0.500000 0.252470 0.500000 -0.127718
N4    N     N_R   0.500000 0.747530 0.500000 -0.113040
O1    O     O_R   0.369060 0.579480 0.500000 -0.605101
O2    O     O_2   0.345119 0.552451 0.149517 -0.443885
O3    O     O_2   0.339643 0.528749 0.849609 -0.407333
O4    O     O_2   0.637261 0.440323 0.150894 -0.411458
O5    O     O_2   0.201108 0.612526 0.085622 -0.188426
O6    O     O_2   0.147184 0.491184 0.019791 -0.142038
O7    O     O_3   0.216217 0.435351 0.114954 -0.464060
O8    O     O_2   0.797068 0.440821 0.914572 -0.176353
O9    O     O_2   0.786781 0.307524 0.980790 -0.150610
O10   O     O_3   0.700344 0.295346 0.885832 -0.479962
O11   O     O_R   0.630940 0.420520 0.500000 -0.589343
O12   O     O_R   0.630940 0.579480 0.500000 -0.589137
O13   O     O_R   0.369060 0.420520 0.500000 -0.568371
O14   O     O_R   0.499970 0.579500 0.416160 -0.576903
O15   O     O_R   0.500030 0.420500 0.583840 -0.586057
O16   O     O_R   0.500030 0.579500 0.583840 -0.569255
O17   O     O_R   0.499970 0.420500 0.416160 -0.594195
O18   O     O_2   0.644356 0.465008 0.850817 -0.440144
S1    S     S_3+6 0.219124 0.515615 0.061919 0.181176
S2    S     S_3+6 0.735864 0.366717 0.938594 0.178363
Zn1   Zn    Zn3+2 0.500000 0.606140 0.500000 1.075208
Zn2   Zn    Zn3+2 0.500000 0.393860 0.500000 1.068415

loop_
_geom_bond_atom_site_label_1
_geom_bond_atom_site_label_2
_ccdc_geom_bond_type
C25   C31   A    
O12   Zn1   S    
C26   C32   A    
C8    C13   A    
C23   C45   A    
C46   F7    S    
C28   N4    A    
C37   O4    S    
C2    F13   S    
C39   C41   A    
C7    C11   A    
O16   Zn1   S    
O14   Zn1   S    
C49   F11   S    
C33   C42   A    
C29   N3    A    
C10   C15   A    
C21   O15   A    
C35   O2    S    
C15   C16   A    
C48   S2    S    
C45   F10   S    
C18   C19   S    
C14   F5    S    
C20   C50   S    
C44   F1    S    
C9    C19   A    
C49   C51   A    
C12   C17   S    
C50   C52   A    
C12   O11   A    
C35   C43   A    
C44   C47   A    
C13   F4    S    
H6    O10   S    
C40   C42   A    
O10   S2    S    
C6    N1    S    
O5    S1    D    
C1    O1    A    
C41   C43   A    
C14   C17   A    
O1    Zn1   S    
C28   H7    S    
O9    S2    D    
C35   N2    A    
C36   O3    S    
C25   C29   A    
C23   F8    S    
C46   C48   A    
C8    C19   A    
C47   S1    S    
C22   C31   A    
C33   O18   S    
C4    C6    A    
C52   F12   S    
C1    O13   A    
C21   O16   A    
O8    S2    D    
C20   O17   A    
C34   F9    S    
C6    C34   A    
C5    N2    S    
C2    C4    A    
C9    C14   A    
C24   C32   A    
C38   C44   A    
O11   Zn2   S    
C11   C16   A    
C31   C32   S    
C5    C23   A    
C36   N1    A    
C3    C52   A    
C7    C18   A    
N4    Zn1   S    
C20   O14   A    
C1    C16   S    
C42   C48   A    
C39   C46   A    
O13   Zn2   S    
C40   C41   A    
C26   C30   A    
C22   C27   A    
C8    H11   S    
C26   H4    S    
C15   F6    S    
C37   N2    A    
C3    F14   S    
C25   H3    S    
C21   C51   S    
C11   F3    S    
O17   Zn2   S    
O15   Zn2   S    
C34   C49   A    
C4    F2    S    
C24   C28   A    
O7    S1    S    
C3    C5    A    
C10   H13   S    
C7    H10   S    
C29   H8    S    
N3    Zn2   S    
C13   C17   A    
C27   N3    A    
C22   H14   S    
C37   C39   A    
C38   C40   A    
C30   H9    S    
C43   C47   A    
C45   C50   A    
C10   C18   A    
C36   C38   A    
C9    H12   S    
C30   N4    A    
O6    S1    D    
C27   H1    S    
C2    C51   A    
C24   H2    S    
H5    O7    S    
C12   O12   A    
C33   N1    A    
