data_mof_unit_23971.cif
_audit_creation_date              2012-12-11T15:08:59-0500
_audit_creation_method            fapswitch 2.2
_symmetry_space_group_name_H-M    P1
_symmetry_Int_Tables_number       1
_space_group_crystal_system       triclinic
_cell_length_a                    21.424182
_cell_length_b                    21.424211
_cell_length_c                    22.533664
_cell_angle_alpha                 89.962458
_cell_angle_beta                  90.037645
_cell_angle_gamma                 90.003044
_cell_volume                      10342.8615835

loop_
_atom_site_label
_atom_site_type_symbol
_atom_type_description
_atom_site_fract_x
_atom_site_fract_y
_atom_site_fract_z
_atom_type_partial_charge
C1    C     C_R   0.931289 0.141754 0.107581 -0.081567
C2    C     C_R   0.087076 0.840971 0.923621 -0.097337
C3    C     C_R   0.159134 0.087374 0.075795 -0.092889
C4    C     C_R   0.859705 0.934745 0.891892 -0.051846
C5    C     C_R   0.068944 0.857963 0.107385 -0.078438
C6    C     C_R   0.912587 0.159213 0.924424 -0.090274
C7    C     C_R   0.840389 0.914333 0.073791 -0.129835
C8    C     C_R   0.141901 0.068861 0.892548 -0.082104
C9    C     C_R   0.931218 0.858232 0.892433 -0.080281
C10   C     C_R   0.085407 0.159633 0.074143 -0.131929
C11   C     C_R   0.159539 0.914598 0.925623 -0.132629
C12   C     C_R   0.859797 0.065218 0.108124 -0.052157
C13   C     C_R   0.065408 0.140392 0.891961 -0.049299
C14   C     C_R   0.912898 0.840877 0.076196 -0.094897
C15   C     C_R   0.840283 0.085642 0.926435 -0.129021
C16   C     C_R   0.140524 0.934424 0.107937 -0.052046
C17   C     C_R   0.434782 0.640203 0.608124 -0.052157
C18   C     C_R   0.585402 0.340461 0.425623 -0.132630
C19   C     C_R   0.659123 0.587102 0.576196 -0.094897
C20   C     C_R   0.359609 0.434593 0.391960 -0.049298
C21   C     C_R   0.565576 0.359476 0.607937 -0.052046
C22   C     C_R   0.414358 0.659717 0.426435 -0.129021
C23   C     C_R   0.340367 0.414593 0.574142 -0.131937
C24   C     C_R   0.641768 0.568782 0.392433 -0.080281
C25   C     C_R   0.431140 0.358099 0.392548 -0.082105
C26   C     C_R   0.585667 0.659611 0.573791 -0.129835
C27   C     C_R   0.659029 0.412923 0.423621 -0.097336
C28   C     C_R   0.358246 0.568711 0.607581 -0.081567
C29   C     C_R   0.565255 0.640295 0.391892 -0.051846
C30   C     C_R   0.412626 0.340866 0.575795 -0.092885
C31   C     C_R   0.340787 0.587413 0.424424 -0.090273
C32   C     C_R   0.642038 0.431056 0.607385 -0.078439
C33   C     C_R   0.766145 0.858636 0.736931 -0.169619
C34   C     C_R   0.298116 0.232372 0.126010 -0.171199
C35   C     C_R   0.767183 0.298154 0.874521 -0.171278
C36   C     C_R   0.234169 0.857944 0.262749 -0.171718
C37   C     C_R   0.141549 0.233700 0.736753 -0.167071
C38   C     C_R   0.766997 0.701799 0.125773 -0.169817
C39   C     C_R   0.232553 0.701912 0.873782 -0.171445
C40   C     C_R   0.766457 0.141177 0.263160 -0.164906
C41   C     C_R   0.266307 0.358456 0.236744 -0.167068
C42   C     C_R   0.798202 0.733002 0.625773 -0.169816
C43   C     C_R   0.201846 0.732817 0.374521 -0.171278
C44   C     C_R   0.642056 0.265831 0.762749 -0.171716
C45   C     C_R   0.641365 0.733856 0.236933 -0.169619
C46   C     C_R   0.267620 0.201886 0.626007 -0.171199
C47   C     C_R   0.798088 0.267447 0.373782 -0.171445
C48   C     C_R   0.358823 0.733543 0.763160 -0.164906
C49   C     C_R   0.178948 0.351421 0.169600 -0.252933
C50   C     C_R   0.893565 0.756270 0.681378 -0.273272
C51   C     C_R   0.106697 0.755580 0.318391 -0.269470
C52   C     C_R   0.649048 0.178423 0.829841 -0.233032
C53   C     C_R   0.648926 0.821578 0.170317 -0.232365
C54   C     C_R   0.245112 0.106753 0.682227 -0.273008
C55   C     C_R   0.893441 0.244499 0.318168 -0.274859
C56   C     C_R   0.351344 0.821228 0.829721 -0.257004
C57   C     C_R   0.678423 0.851075 0.670315 -0.232366
C58   C     C_R   0.393247 0.254875 0.182235 -0.273004
C59   C     C_R   0.744420 0.393302 0.818391 -0.269470
C60   C     C_R   0.321577 0.850952 0.329842 -0.233030
C61   C     C_R   0.148584 0.321061 0.669612 -0.252937
C62   C     C_R   0.743729 0.606436 0.181378 -0.273272
C63   C     C_R   0.255500 0.606559 0.818168 -0.274859
C64   C     C_R   0.678772 0.148657 0.329720 -0.257004
C65   C     C_R   0.861398 0.799702 0.715908 0.107651
C66   C     C_R   0.206648 0.299310 0.143394 0.092233
C67   C     C_R   0.700779 0.206391 0.856536 0.082206
C68   C     C_R   0.138897 0.798994 0.283809 0.106487
C69   C     C_R   0.201189 0.138742 0.716347 0.107281
C70   C     C_R   0.700817 0.793665 0.143910 0.079408
C71   C     C_R   0.299175 0.793536 0.855880 0.091269
C72   C     C_R   0.861454 0.200675 0.283891 0.107163
C73   C     C_R   0.361260 0.298806 0.216349 0.107280
C74   C     C_R   0.706335 0.799184 0.643908 0.079408
C75   C     C_R   0.293609 0.799221 0.356536 0.082207
C76   C     C_R   0.701006 0.361102 0.783809 0.106486
C77   C     C_R   0.700298 0.638603 0.215908 0.107651
C78   C     C_R   0.200690 0.293358 0.643400 0.092237
C79   C     C_R   0.706464 0.200825 0.355880 0.091268
C80   C     C_R   0.299325 0.638546 0.783891 0.107162
C81   C     C_R   0.799612 0.815439 0.701627 -0.007351
C82   C     C_R   0.268925 0.283187 0.155832 -0.014336
C83   C     C_R   0.716710 0.268747 0.844277 -0.012894
C84   C     C_R   0.200625 0.814867 0.298187 -0.005644
C85   C     C_R   0.185059 0.200340 0.701714 -0.005724
C86   C     C_R   0.716459 0.731178 0.155874 -0.012542
C87   C     C_R   0.283339 0.731111 0.843880 -0.013231
C88   C     C_R   0.799772 0.184693 0.298270 -0.007842
C89   C     C_R   0.299665 0.314940 0.201711 -0.005724
C90   C     C_R   0.768823 0.783541 0.655873 -0.012542
C91   C     C_R   0.231253 0.783290 0.344277 -0.012893
C92   C     C_R   0.685133 0.299375 0.798186 -0.005645
C93   C     C_R   0.684561 0.700389 0.201628 -0.007351
C94   C     C_R   0.216810 0.231079 0.655835 -0.014338
C95   C     C_R   0.768889 0.216662 0.343880 -0.013232
C96   C     C_R   0.315308 0.700228 0.798270 -0.007842
C97   C     C_R   0.707987 0.881221 0.716799 0.552611
C98   C     C_R   0.362575 0.220884 0.137942 0.549552
C99   C     C_R   0.778237 0.362760 0.862925 0.548371
C100  C     C_R   0.292246 0.880677 0.282939 0.549110
C101  C     C_R   0.118627 0.291596 0.716278 0.547796
C102  C     C_R   0.777757 0.637079 0.137086 0.541687
C103  C     C_R   0.221396 0.637313 0.862295 0.541264
C104  C     C_R   0.708446 0.118397 0.283399 0.551309
C105  C     C_R   0.208413 0.381380 0.216265 0.547798
C106  C     C_R   0.862922 0.722242 0.637086 0.541686
C107  C     C_R   0.137239 0.721763 0.362925 0.548372
C108  C     C_R   0.619323 0.207754 0.782938 0.549111
C109  C     C_R   0.618780 0.792014 0.216801 0.552611
C110  C     C_R   0.279100 0.137424 0.637932 0.549559
C111  C     C_R   0.862687 0.278604 0.362295 0.541264
C112  C     C_R   0.381604 0.791554 0.783399 0.551309
C113  C     C_R   0.880309 0.117431 0.138518 0.101887
C114  C     C_R   0.150793 0.851386 0.917123 0.114594
C115  C     C_R   0.148697 0.151065 0.082195 0.117789
C116  C     C_R   0.880196 0.882541 0.861504 0.100550
C117  C     C_R   0.120093 0.882069 0.138222 0.099035
C118  C     C_R   0.848847 0.148881 0.918352 0.122074
C119  C     C_R   0.849137 0.851163 0.082354 0.118991
C120  C     C_R   0.117697 0.119943 0.861637 0.099985
C121  C     C_R   0.382569 0.619691 0.638518 0.101888
C122  C     C_R   0.648614 0.349207 0.417123 0.114594
C123  C     C_R   0.648837 0.650863 0.582354 0.118990
C124  C     C_R   0.380059 0.382304 0.361636 0.099985
C125  C     C_R   0.617931 0.379907 0.638222 0.099036
C126  C     C_R   0.351119 0.651153 0.418353 0.122075
C127  C     C_R   0.348934 0.351303 0.582195 0.117797
C128  C     C_R   0.617459 0.619804 0.361504 0.100551
C129  C     C_R   0.889005 0.825524 0.766289 -0.217626
C130  C     C_R   0.170143 0.259224 0.110883 -0.192234
C131  C     C_R   0.740750 0.170070 0.889371 -0.184298
C132  C     C_R   0.111347 0.824735 0.233336 -0.213786
C133  C     C_R   0.175290 0.111178 0.766714 -0.218299
C134  C     C_R   0.741167 0.830105 0.111685 -0.185180
C135  C     C_R   0.258784 0.830130 0.887880 -0.195069
C136  C     C_R   0.889088 0.174764 0.233596 -0.220819
C137  C     C_R   0.388824 0.324707 0.266714 -0.218297
C138  C     C_R   0.669896 0.758833 0.611684 -0.185178
C139  C     C_R   0.329930 0.759250 0.389372 -0.184297
C140  C     C_R   0.675265 0.388653 0.733336 -0.213788
C141  C     C_R   0.674476 0.610995 0.266289 -0.217627
C142  C     C_R   0.240777 0.329862 0.610888 -0.192242
C143  C     C_R   0.669870 0.241216 0.387880 -0.195070
C144  C     C_R   0.325236 0.610912 0.733596 -0.220817
C145  C     C_R   0.852617 0.859916 0.806253 -0.041873
C146  C     C_R   0.194097 0.202034 0.091893 -0.037978
C147  C     C_R   0.797802 0.194192 0.908632 -0.042676
C148  C     C_R   0.147737 0.859183 0.193376 -0.045084
C149  C     C_R   0.140459 0.147496 0.806399 -0.043956
C150  C     C_R   0.798140 0.805881 0.092382 -0.042387
C151  C     C_R   0.201717 0.806046 0.907104 -0.036958
C152  C     C_R   0.852772 0.140058 0.193763 -0.042110
C153  C     C_R   0.352506 0.359543 0.306396 -0.043955
C154  C     C_R   0.694119 0.701860 0.592382 -0.042387
C155  C     C_R   0.305807 0.702198 0.408631 -0.042675
C156  C     C_R   0.640817 0.352262 0.693376 -0.045083
C157  C     C_R   0.640085 0.647384 0.306254 -0.041873
C158  C     C_R   0.297964 0.305905 0.591894 -0.037984
C159  C     C_R   0.693954 0.298283 0.407103 -0.036958
C160  C     C_R   0.359942 0.647228 0.693763 -0.042110
C161  C     C_R   0.789500 0.872854 0.793238 0.452914
C162  C     C_R   0.259537 0.193478 0.090063 0.475362
C163  C     C_R   0.806192 0.259651 0.910507 0.474634
C164  C     C_R   0.210854 0.872077 0.206378 0.454522
C165  C     C_R   0.127268 0.210501 0.793115 0.452152
C166  C     C_R   0.806316 0.740393 0.090209 0.465111
C167  C     C_R   0.193393 0.740574 0.909354 0.464757
C168  C     C_R   0.789735 0.126888 0.206876 0.450471
C169  C     C_R   0.289503 0.372739 0.293107 0.452150
C170  C     C_R   0.759607 0.693683 0.590208 0.465111
C171  C     C_R   0.240348 0.693808 0.410507 0.474635
C172  C     C_R   0.627923 0.289146 0.706378 0.454522
C173  C     C_R   0.627147 0.710501 0.293239 0.452914
C174  C     C_R   0.306516 0.240465 0.590061 0.475367
C175  C     C_R   0.759426 0.306607 0.409354 0.464759
C176  C     C_R   0.373113 0.710265 0.706876 0.450471
H1    H     H_    0.959233 0.182030 0.118922 0.114847
H2    H     H_    0.063445 0.796562 0.924727 0.170626
H3    H     H_    0.203635 0.063973 0.074198 0.177558
H4    H     H_    0.823624 0.967249 0.879128 0.150957
H5    H     H_    0.041098 0.817592 0.118626 0.121473
H6    H     H_    0.936049 0.203688 0.925975 0.177458
H7    H     H_    0.796670 0.937943 0.065795 0.127667
H8    H     H_    0.182212 0.040951 0.881292 0.114719
H9    H     H_    0.959106 0.817937 0.881105 0.121008
H10   H     H_    0.061446 0.203272 0.066761 0.123878
H11   H     H_    0.203250 0.938403 0.933079 0.123706
H12   H     H_    0.823786 0.032662 0.120902 0.151343
H13   H     H_    0.032952 0.176491 0.879191 0.154000
H14   H     H_    0.936590 0.796502 0.075163 0.169991
H15   H     H_    0.796639 0.061882 0.934344 0.126848
H16   H     H_    0.176754 0.966756 0.120638 0.153053
H17   H     H_    0.467338 0.676214 0.620902 0.151344
H18   H     H_    0.561597 0.296750 0.433079 0.123706
H19   H     H_    0.703498 0.563410 0.575163 0.169991
H20   H     H_    0.323512 0.467050 0.379189 0.154004
H21   H     H_    0.533244 0.323246 0.620638 0.153052
H22   H     H_    0.438118 0.703361 0.434344 0.126848
H23   H     H_    0.296728 0.438555 0.566760 0.123880
H24   H     H_    0.682064 0.540894 0.381105 0.121008
H25   H     H_    0.459050 0.317788 0.381291 0.114716
H26   H     H_    0.562057 0.703330 0.565795 0.127667
H27   H     H_    0.703438 0.436555 0.424727 0.170626
H28   H     H_    0.317970 0.540767 0.618922 0.114846
H29   H     H_    0.532752 0.676377 0.379128 0.150957
H30   H     H_    0.436026 0.296365 0.574199 0.177557
H31   H     H_    0.296311 0.563951 0.425975 0.177460
H32   H     H_    0.682409 0.458902 0.618626 0.121473
H33   H     H_    0.937390 0.815264 0.776421 0.144845
H34   H     H_    0.120997 0.269888 0.107701 0.144955
H35   H     H_    0.730225 0.120884 0.892444 0.154469
H36   H     H_    0.062970 0.814462 0.223194 0.145482
H37   H     H_    0.185817 0.062900 0.777049 0.142710
H38   H     H_    0.730880 0.879366 0.109008 0.154743
H39   H     H_    0.269192 0.879362 0.890564 0.143845
H40   H     H_    0.937398 0.185233 0.223394 0.143663
H41   H     H_    0.437100 0.314176 0.277053 0.142709
H42   H     H_    0.620635 0.769120 0.609007 0.154743
H43   H     H_    0.379116 0.769774 0.392444 0.154469
H44   H     H_    0.685539 0.437030 0.723194 0.145482
H45   H     H_    0.684736 0.562610 0.276421 0.144845
H46   H     H_    0.230115 0.379008 0.607709 0.144953
H47   H     H_    0.620637 0.230808 0.390563 0.143845
H48   H     H_    0.314766 0.562602 0.723393 0.143662
H49   H     H_    0.132548 0.366322 0.156531 0.190403
H50   H     H_    0.941884 0.745603 0.691569 0.186450
H51   H     H_    0.058448 0.744754 0.308062 0.187242
H52   H     H_    0.634305 0.131915 0.842721 0.199864
H53   H     H_    0.634369 0.868187 0.157566 0.201587
H54   H     H_    0.256250 0.058637 0.692825 0.186068
H55   H     H_    0.941651 0.255453 0.307837 0.186820
H56   H     H_    0.366061 0.867748 0.842536 0.189866
H57   H     H_    0.631814 0.865632 0.657563 0.201586
H58   H     H_    0.441361 0.243732 0.192838 0.186068
H59   H     H_    0.755247 0.441552 0.808062 0.187242
H60   H     H_    0.368085 0.865695 0.342722 0.199864
H61   H     H_    0.133686 0.367463 0.656546 0.190400
H62   H     H_    0.754396 0.558117 0.191568 0.186450
H63   H     H_    0.244547 0.558350 0.807837 0.186820
H64   H     H_    0.632251 0.133940 0.342536 0.189866
N1    N     N_R   0.940200 0.105310 0.059970 -0.050070
N2    N     N_R   0.059800 0.894690 0.940030 -0.059289
N3    N     N_R   0.105310 0.059800 0.059970 -0.063619
N4    N     N_R   0.894690 0.940200 0.940030 -0.056802
N5    N     N_R   0.059800 0.894690 0.059970 -0.050836
N6    N     N_R   0.940200 0.105310 0.940030 -0.063650
N7    N     N_R   0.894690 0.940200 0.059970 -0.057595
N8    N     N_R   0.105310 0.059800 0.940030 -0.050500
N9    N     N_R   0.940200 0.894690 0.940030 -0.050431
N10   N     N_R   0.059800 0.105310 0.059970 -0.053382
N11   N     N_R   0.105310 0.940200 0.940030 -0.053777
N12   N     N_R   0.894690 0.059800 0.059970 -0.056771
N13   N     N_R   0.059800 0.105310 0.940030 -0.057033
N14   N     N_R   0.940200 0.894690 0.059970 -0.059426
N15   N     N_R   0.894690 0.059800 0.940030 -0.057318
N16   N     N_R   0.105310 0.940200 0.059970 -0.057080
N17   N     N_R   0.440200 0.605310 0.559970 -0.056771
N18   N     N_R   0.559800 0.394690 0.440030 -0.053777
N19   N     N_R   0.605310 0.559800 0.559970 -0.059426
N20   N     N_R   0.394690 0.440200 0.440030 -0.057033
N21   N     N_R   0.559800 0.394690 0.559970 -0.057080
N22   N     N_R   0.440200 0.605310 0.440030 -0.057318
N23   N     N_R   0.394690 0.440200 0.559970 -0.053382
N24   N     N_R   0.605310 0.559800 0.440030 -0.050431
N25   N     N_R   0.440200 0.394690 0.440030 -0.050500
N26   N     N_R   0.559800 0.605310 0.559970 -0.057595
N27   N     N_R   0.605310 0.440200 0.440030 -0.059289
N28   N     N_R   0.394690 0.559800 0.559970 -0.050070
N29   N     N_R   0.559800 0.605310 0.440030 -0.056802
N30   N     N_R   0.440200 0.394690 0.559970 -0.063619
N31   N     N_R   0.394690 0.559800 0.440030 -0.063651
N32   N     N_R   0.605310 0.440200 0.559970 -0.050835
Ni1   Ni    Ni4+2 1.000000 0.104370 0.000000 0.248322
Ni2   Ni    Ni4+2 1.000000 0.895630 0.000000 0.258424
Ni3   Ni    Ni4+2 0.104370 0.000000 0.000000 0.248554
Ni4   Ni    Ni4+2 0.895630 0.000000 0.000000 0.239290
Ni5   Ni    Ni4+2 0.500000 0.604370 0.500000 0.239290
Ni6   Ni    Ni4+2 0.500000 0.395630 0.500000 0.248554
Ni7   Ni    Ni4+2 0.604370 0.500000 0.500000 0.258424
Ni8   Ni    Ni4+2 0.395630 0.500000 0.500000 0.248321
Cl1   Cl    Cl    0.671988 0.949058 0.745090 -0.474840
Cl2   Cl    Cl    0.407788 0.161263 0.105482 -0.441235
Cl3   Cl    Cl    0.836836 0.408527 0.896428 -0.421072
Cl4   Cl    Cl    0.328406 0.948283 0.254271 -0.461240
Cl5   Cl    Cl    0.050556 0.327328 0.744333 -0.471223
Cl6   Cl    Cl    0.836165 0.591215 0.103486 -0.440881
Cl7   Cl    Cl    0.162159 0.591911 0.895210 -0.445485
Cl8   Cl    Cl    0.672796 0.050215 0.255407 -0.489511
Cl9   Cl    Cl    0.172686 0.449456 0.244313 -0.471227
Cl10  Cl    Cl    0.908786 0.663833 0.603487 -0.440882
Cl11  Cl    Cl    0.091471 0.663165 0.396427 -0.421072
Cl12  Cl    Cl    0.551717 0.171595 0.754270 -0.461251
Cl13  Cl    Cl    0.550944 0.828013 0.245094 -0.474839
Cl14  Cl    Cl    0.338705 0.092204 0.605455 -0.441246
Cl15  Cl    Cl    0.908090 0.337840 0.395211 -0.445489
Cl16  Cl    Cl    0.449786 0.827203 0.755408 -0.489512
Cl17  Cl    Cl    0.735478 0.885265 0.851944 -0.552861
Cl18  Cl    Cl    0.289780 0.141086 0.036803 -0.531006
Cl19  Cl    Cl    0.859001 0.289906 0.963451 -0.524913
Cl20  Cl    Cl    0.264831 0.884470 0.147625 -0.528696
Cl21  Cl    Cl    0.114492 0.264706 0.851590 -0.531359
Cl22  Cl    Cl    0.859392 0.710244 0.037521 -0.518896
Cl23  Cl    Cl    0.140734 0.710455 0.962480 -0.520655
Cl24  Cl    Cl    0.735563 0.114214 0.148274 -0.556051
Cl25  Cl    Cl    0.235294 0.385520 0.351577 -0.531362
Cl26  Cl    Cl    0.789756 0.640607 0.537521 -0.518897
Cl27  Cl    Cl    0.210094 0.640999 0.463450 -0.524913
Cl28  Cl    Cl    0.615531 0.235169 0.647624 -0.528699
Cl29  Cl    Cl    0.614737 0.764522 0.351947 -0.552861
Cl30  Cl    Cl    0.358912 0.210222 0.536804 -0.531006
Cl31  Cl    Cl    0.789545 0.359266 0.462480 -0.520657
Cl32  Cl    Cl    0.385786 0.764437 0.648275 -0.556050

loop_
_geom_bond_atom_site_label_1
_geom_bond_atom_site_label_2
_ccdc_geom_bond_type
N24   N29   A    
C130  C146  A    
C62   C77   A    
C39   C87   A    
N14   Ni2   S    
N1    N12   A    
C41   C105  A    
N2    N11   A    
C63   H63   S    
C116  C145  S    
C45   C109  A    
N6    N15   A    
C154  C170  A    
C6    C118  A    
N21   N32   A    
C42   C170  A    
N22   N31   A    
C140  H44   S    
N23   N30   A    
N21   Ni6   S    
C46   C174  A    
C84   C91   A    
C144  C160  A    
C163  Cl19  S    
C129  C145  A    
C162  Cl18  S    
C138  C154  A    
C76   C140  A    
C88   C95   A    
N3    N10   A    
C136  H40   S    
C1    C113  A    
C142  C158  A    
C136  C152  A    
C22   H22   S    
C7    C119  A    
N4    N9    A    
C41   C169  A    
C35   C163  A    
C28   H28   S    
C33   C161  A    
C44   C172  A    
C31   H31   S    
C45   C173  A    
C66   C82   A    
C146  C162  A    
C23   N23   A    
C57   C97   A    
C172  Cl28  S    
C137  C153  A    
C62   H62   S    
C39   C103  A    
C42   C106  A    
C103  Cl7   S    
C18   C122  A    
C81   C90   A    
C169  Cl25  S    
C46   C110  A    
C64   C79   A    
C50   H50   S    
C26   C123  A    
C129  H33   S    
C53   C109  A    
C15   H15   S    
C30   C127  A    
C48   C96   A    
C55   C111  A    
C9    C116  A    
C6    N6    A    
C59   H59   S    
C21   H21   S    
C60   C100  A    
C12   N12   A    
C15   C118  A    
C7    H7    S    
N15   Ni4   S    
C29   N29   A    
C74   C90   A    
C106  Cl10  S    
C19   N19   A    
C2    C114  A    
C40   C88   A    
C109  Cl13  S    
C22   N22   A    
C47   C111  A    
C33   C97   A    
C77   C141  A    
C64   H64   S    
C24   H24   S    
C167  Cl23  S    
C14   C119  A    
C137  H41   S    
C70   C134  A    
N13   Ni1   S    
C11   N11   A    
C141  H45   S    
C26   N26   A    
C123  C154  S    
C32   C125  A    
C41   C89   A    
C67   C83   A    
C18   H18   S    
N19   Ni7   S    
C58   C98   A    
C45   C93   A    
C15   N15   A    
C133  H37   S    
C115  C146  S    
C19   C123  A    
C120  C149  S    
C82   C89   A    
C145  C161  A    
C6    H6    S    
C117  C148  S    
C27   H27   S    
C118  C147  S    
C78   C94   A    
C25   H25   S    
C151  C167  A    
N25   Ni6   S    
C166  Cl22  S    
N23   Ni8   S    
C150  C166  A    
C7    N7    A    
C29   H29   S    
C54   C110  A    
C77   C93   A    
C79   C143  A    
C80   C144  A    
C46   C94   A    
C131  C147  A    
C32   H32   S    
C75   C91   A    
C124  C153  S    
C158  C174  A    
C128  C157  S    
C105  Cl9   S    
C63   C80   A    
C111  Cl15  S    
C49   C66   A    
C148  C164  A    
C149  C165  A    
N8    Ni3   S    
C20   H20   S    
C43   C171  A    
N8    N13   A    
C37   C165  A    
N22   Ni5   S    
C156  C172  A    
N5    Ni2   S    
C10   N10   A    
C61   C101  A    
C86   C93   A    
C97   Cl1   S    
C2    N2    A    
C14   N14   A    
C139  C155  A    
N29   Ni5   S    
N12   Ni4   S    
C52   C67   A    
C104  Cl8   S    
C51   C107  A    
C48   C112  A    
C76   C92   A    
C131  H35   S    
C49   H49   S    
N3    Ni3   S    
C13   C120  A    
C69   C85   A    
C36   C164  A    
C64   C104  A    
C34   C162  A    
C44   C92   A    
C174  Cl30  S    
N7    Ni4   S    
N19   N26   A    
C75   C139  A    
C37   C101  A    
C108  Cl12  S    
C170  Cl26  S    
C10   H10   S    
C50   C65   A    
C20   C124  A    
C14   H14   S    
N7    N14   A    
C139  H43   S    
C157  C173  A    
N4    Ni4   S    
N9    Ni2   S    
C2    H2    S    
C17   N17   A    
C59   C76   A    
C4    N4    A    
C47   C175  A    
C48   C176  A    
C30   N30   A    
N17   Ni5   S    
C74   C138  A    
C78   C142  A    
N24   Ni7   S    
N1    Ni1   S    
C68   C132  A    
C52   H52   S    
C27   N27   A    
C142  H46   S    
C121  C160  S    
C60   H60   S    
N18   Ni6   S    
C122  C159  S    
C125  C156  S    
C126  C155  S    
C119  C150  S    
C113  C152  S    
C114  C151  S    
C4    H4    S    
C53   C70   A    
C73   C137  A    
C5    H5    S    
C152  C168  A    
C27   C122  A    
N26   Ni5   S    
C68   C84   A    
C55   H55   S    
C63   C103  A    
C35   C83   A    
C49   C105  A    
C112  Cl16  S    
C79   C95   A    
C25   N25   A    
C56   C71   A    
C36   C100  A    
C43   C107  A    
C127  C158  S    
C71   C87   A    
C17   C121  A    
N31   Ni8   S    
C38   C86   A    
C31   N31   A    
C40   C168  A    
C32   N32   A    
C21   C125  A    
C23   C127  A    
C38   C166  A    
C4    C116  A    
N6    Ni1   S    
C5    N5    A    
C58   H58   S    
C65   C129  A    
C98   Cl2   S    
C143  C159  A    
N28   Ni8   S    
C60   C75   A    
C134  H38   S    
N30   Ni6   S    
C73   C89   A    
C3    C115  A    
C16   C117  A    
C143  H47   S    
C16   N16   A    
C102  Cl6   S    
C54   C69   A    
C135  C151  A    
N27   Ni7   S    
C34   C98   A    
C18   N18   A    
C22   C126  A    
C8    N8    A    
C153  C169  A    
C50   C106  A    
C147  C163  A    
N20   N25   A    
C53   H53   S    
C12   H12   S    
C19   H19   S    
C59   C99   A    
C17   H17   S    
C132  H36   S    
C161  Cl17  S    
C83   C92   A    
C171  Cl27  S    
C11   H11   S    
C37   C85   A    
C26   H26   S    
N11   Ni3   S    
C9    H9    S    
C71   C135  A    
N20   Ni8   S    
C72   C136  A    
C134  C150  A    
C23   H23   S    
C13   H13   S    
C56   H56   S    
N10   Ni1   S    
C11   C114  A    
C3    H3    S    
C16   H16   S    
C1    H1    S    
C135  H39   S    
C42   C90   A    
N16   Ni3   S    
C80   C96   A    
C55   C72   A    
C8    H8    S    
C159  C175  A    
C168  Cl24  S    
C160  C176  A    
C100  Cl4   S    
N17   N28   A    
C35   C99   A    
N18   N27   A    
C72   C88   A    
C107  Cl11  S    
C44   C108  A    
N5    N16   A    
C164  Cl20  S    
C101  Cl5   S    
C132  C148  A    
C133  C149  A    
N2    Ni2   S    
C28   C121  A    
C43   C91   A    
C5    C117  A    
C57   C74   A    
C9    N9    A    
C40   C104  A    
C85   C94   A    
C61   C78   A    
C13   N13   A    
C87   C96   A    
C24   N24   A    
C3    N3    A    
C138  H42   S    
C1    N1    A    
C20   N20   A    
C21   N21   A    
C140  C156  A    
N32   Ni7   S    
C130  H34   S    
C70   C86   A    
C8    C120  A    
C24   C128  A    
C12   C113  A    
C141  C157  A    
C173  Cl29  S    
C69   C133  A    
C67   C131  A    
C57   H57   S    
C34   C82   A    
C28   N28   A    
C61   H61   S    
C38   C102  A    
C51   H51   S    
C110  Cl14  S    
C30   H30   S    
C36   C84   A    
C54   H54   S    
C51   C68   A    
C39   C167  A    
C25   C124  A    
C144  H48   S    
C165  Cl21  S    
C155  C171  A    
C52   C108  A    
C175  Cl31  S    
C29   C128  A    
C176  Cl32  S    
C47   C95   A    
C65   C81   A    
C31   C126  A    
C62   C102  A    
C33   C81   A    
C56   C112  A    
C10   C115  A    
C58   C73   A    
C66   C130  A    
C99   Cl3   S    
