data_mof_unit_5857.cif
_audit_creation_date              2012-12-11T14:01:45-0500
_audit_creation_method            fapswitch 2.2
_symmetry_space_group_name_H-M    P1
_symmetry_Int_Tables_number       1
_space_group_crystal_system       triclinic
_cell_length_a                    18.948564
_cell_length_b                    10.968001
_cell_length_c                    18.703985
_cell_angle_alpha                 89.696795
_cell_angle_beta                  89.9917
_cell_angle_gamma                 90.228052
_cell_volume                      3887.12406848

loop_
_atom_site_label
_atom_site_type_symbol
_atom_type_description
_atom_site_fract_x
_atom_site_fract_y
_atom_site_fract_z
_atom_type_partial_charge
C1    C     C_R   0.271247 0.045675 0.851632 0.548025
C2    C     C_R   0.728788 0.046015 0.148424 0.546733
C3    C     C_R   0.771247 0.545674 0.851633 0.548018
C4    C     C_R   0.228787 0.546014 0.148423 0.546733
C5    C     C_R   0.477445 0.054801 0.070003 0.241672
C6    C     C_R   0.525043 0.054058 0.927926 0.241798
C7    C     C_R   0.977427 0.554794 0.070008 0.241665
C8    C     C_R   0.025025 0.554065 0.927930 0.241787
C9    C     C_R   0.988337 0.664265 0.033131 -0.135377
C10   C     C_R   0.015366 0.663874 0.963986 -0.135104
C11   C     C_R   0.488368 0.164269 0.033127 -0.135370
C12   C     C_R   0.515397 0.163870 0.963982 -0.135104
C13   C     C_2   0.263248 0.634024 0.932055 -0.094063
C14   C     C_2   0.736905 0.634521 0.067916 -0.093515
C15   C     C_2   0.763265 0.134115 0.932066 -0.094065
C16   C     C_2   0.236902 0.134531 0.067915 -0.093515
C17   C     C_2   0.256459 0.607607 0.085655 -0.096544
C18   C     C_2   0.743769 0.606579 0.914292 -0.097088
C19   C     C_2   0.756467 0.107618 0.085662 -0.096527
C20   C     C_2   0.243769 0.106581 0.914291 -0.097094
C21   C     C_2   0.307668 0.558219 0.046000 -0.160521
C22   C     C_2   0.692762 0.556473 0.954514 -0.161263
C23   C     C_2   0.807664 0.058214 0.045997 -0.160507
C24   C     C_2   0.192762 0.056476 0.954514 -0.161259
C25   C     C_2   0.318257 0.597780 0.971865 -0.170179
C26   C     C_2   0.682045 0.596624 0.028338 -0.169396
C27   C     C_2   0.818257 0.097779 0.971862 -0.170161
C28   C     C_2   0.182044 0.096628 0.028337 -0.169396
C29   C     C_2   0.519064 0.838529 0.587884 -0.102336
C30   C     C_2   0.546670 0.828902 0.434636 -0.095488
C31   C     C_2   0.019069 0.338515 0.587888 -0.102335
C32   C     C_2   0.046688 0.328915 0.434639 -0.095481
C33   C     C_2   0.569975 0.744475 0.480732 -0.168571
C34   C     C_2   0.545537 0.740443 0.554976 -0.152532
C35   C     C_2   0.069944 0.244417 0.480723 -0.168550
C36   C     C_2   0.045514 0.240411 0.554970 -0.152534
C37   C     C_2   0.254717 0.612804 0.569160 -0.093627
C38   C     C_2   0.753773 0.563627 0.416468 -0.103450
C39   C     C_2   0.754717 0.112804 0.569160 -0.093622
C40   C     C_2   0.253772 0.063628 0.416468 -0.103442
C41   C     C_2   0.257311 0.604730 0.413576 -0.097602
C42   C     C_2   0.762255 0.569357 0.571743 -0.100975
C43   C     C_2   0.757311 0.104730 0.413576 -0.097599
C44   C     C_2   0.262255 0.069358 0.571743 -0.100973
C45   C     C_R   0.472324 0.822059 0.852943 0.582670
C46   C     C_R   0.527751 0.822166 0.146955 0.592897
C47   C     C_R   0.972323 0.322060 0.852943 0.582665
C48   C     C_R   0.027751 0.322165 0.146956 0.592904
C49   C     C_2   0.217994 0.682613 0.450175 -0.161185
C50   C     C_2   0.818021 0.556509 0.527803 -0.151992
C51   C     C_2   0.717994 0.182613 0.450175 -0.161176
C52   C     C_2   0.318021 0.056509 0.527803 -0.151994
C53   C     C_2   0.229988 0.701359 0.525688 -0.150916
C54   C     C_2   0.813742 0.581166 0.451924 -0.152122
C55   C     C_2   0.729988 0.201359 0.525688 -0.150911
C56   C     C_2   0.313742 0.081165 0.451924 -0.152128
C57   C     C_R   0.272533 0.678597 0.859674 0.568990
C58   C     C_R   0.727559 0.678907 0.140134 0.569497
C59   C     C_R   0.772542 0.178632 0.859672 0.569002
C60   C     C_R   0.227558 0.178912 0.140135 0.569495
C61   C     C_R   0.273680 0.043065 0.646308 0.548254
C62   C     C_R   0.729200 0.048488 0.350158 0.547295
C63   C     C_R   0.773680 0.543065 0.646308 0.548258
C64   C     C_R   0.229200 0.548489 0.350158 0.547293
C65   C     C_R   0.473130 0.824503 0.649654 0.561593
C66   C     C_R   0.563492 0.819433 0.359582 0.569035
C67   C     C_R   0.973132 0.324501 0.649655 0.561595
C68   C     C_R   0.063495 0.319433 0.359581 0.569052
C69   C     C_R   0.261558 0.641938 0.643908 0.571122
C70   C     C_R   0.740138 0.633302 0.352411 0.565948
C71   C     C_R   0.761558 0.141937 0.643908 0.571131
C72   C     C_R   0.240138 0.133302 0.352411 0.565953
C73   C     C_R   0.497313 0.830002 0.074763 0.034131
C74   C     C_R   0.503031 0.829604 0.924964 0.035978
C75   C     C_R   0.997310 0.329999 0.074765 0.034132
C76   C     C_R   0.003028 0.329606 0.924966 0.035973
C77   C     C_R   0.493821 0.942353 0.036789 -0.002816
C78   C     C_R   0.507635 0.942056 0.962078 -0.001223
C79   C     C_R   0.993812 0.442351 0.036792 -0.002820
C80   C     C_R   0.007626 0.442058 0.962082 -0.001229
C81   C     C_R   0.502265 0.720225 0.963734 -0.173097
C82   C     C_R   0.497176 0.720425 0.036766 -0.172734
C83   C     C_R   0.002262 0.220225 0.963735 -0.173081
C84   C     C_R   0.997175 0.220423 0.036767 -0.172719
Cr1   Cr    Cr6+3 0.230530 0.836340 0.748870 1.055827
Cr2   Cr    Cr6+3 0.769470 0.836340 0.251130 1.054672
Cr3   Cr    Cr6+3 0.730530 0.336340 0.748870 1.055820
Cr4   Cr    Cr6+3 0.269470 0.336340 0.251130 1.054675
Cr5   Cr    Cr6+3 0.387420 0.989430 0.750820 1.077017
Cr6   Cr    Cr6+3 0.612580 0.989430 0.249180 1.076629
Cr7   Cr    Cr6+3 0.887420 0.489430 0.750820 1.077015
Cr8   Cr    Cr6+3 0.112580 0.489430 0.249180 1.076620
Cr9   Cr    Cr6+3 0.385640 0.677860 0.749230 1.034484
Cr10  Cr    Cr6+3 0.614360 0.677860 0.250770 1.027511
Cr11  Cr    Cr6+3 0.885640 0.177860 0.749230 1.034476
Cr12  Cr    Cr6+3 0.114360 0.177860 0.250770 1.027500
H1    H     H_    0.501262 0.632407 0.937462 0.139194
H2    H     H_    0.497401 0.632663 0.063660 0.140240
H3    H     H_    0.001260 0.132408 0.937463 0.139194
H4    H     H_    0.997403 0.132661 0.063660 0.140242
H5    H     H_    0.171585 0.724880 0.426767 0.156781
H6    H     H_    0.870232 0.535964 0.548690 0.155010
H7    H     H_    0.671585 0.224880 0.426767 0.156785
H8    H     H_    0.370231 0.035962 0.548690 0.155003
H9    H     H_    0.212405 0.788236 0.546891 0.156559
H10   H     H_    0.858814 0.626072 0.427130 0.165244
H11   H     H_    0.712405 0.288236 0.546891 0.156560
H12   H     H_    0.358814 0.126070 0.427130 0.165243
H13   H     H_    0.305962 0.568464 0.435784 0.115203
H14   H     H_    0.709442 0.589449 0.552663 0.084242
H15   H     H_    0.805962 0.068464 0.435784 0.115200
H16   H     H_    0.209442 0.089451 0.552663 0.084257
H17   H     H_    0.272787 0.525230 0.549741 0.096048
H18   H     H_    0.710488 0.511775 0.439924 0.092374
H19   H     H_    0.772787 0.025230 0.549741 0.096047
H20   H     H_    0.210487 0.011777 0.439924 0.092366
H21   H     H_    0.976631 0.750362 0.058516 0.142480
H22   H     H_    0.027891 0.749645 0.937898 0.142655
H23   H     H_    0.476672 0.250369 0.058512 0.142480
H24   H     H_    0.527932 0.249637 0.937894 0.142653
H25   H     H_    0.338466 0.481697 0.065608 0.151376
H26   H     H_    0.662037 0.479334 0.935533 0.149993
H27   H     H_    0.838445 0.981664 0.065595 0.151362
H28   H     H_    0.162037 0.979335 0.935534 0.150004
H29   H     H_    0.370598 0.590583 0.948799 0.152023
H30   H     H_    0.629687 0.588484 0.051422 0.151833
H31   H     H_    0.870581 0.090478 0.948780 0.152026
H32   H     H_    0.129688 0.088481 0.051422 0.151833
H33   H     H_    0.228075 0.687568 0.066953 0.115330
H34   H     H_    0.772141 0.687015 0.932376 0.115628
H35   H     H_    0.728097 0.187604 0.066975 0.115314
H36   H     H_    0.272140 0.187019 0.932374 0.115627
H37   H     H_    0.210033 0.634827 0.953764 0.136909
H38   H     H_    0.790109 0.636404 0.046206 0.137870
H39   H     H_    0.710063 0.135019 0.953788 0.136857
H40   H     H_    0.290106 0.136421 0.046204 0.137874
H41   H     H_    0.601166 0.668357 0.461595 0.131387
H42   H     H_    0.542972 0.651037 0.580148 0.156631
H43   H     H_    0.101078 0.168225 0.461572 0.131413
H44   H     H_    0.042924 0.151001 0.580137 0.156638
H45   H     H_    0.513757 0.904369 0.451194 0.108265
H46   H     H_    0.525591 0.929572 0.565808 0.103295
H47   H     H_    0.013840 0.404476 0.451210 0.108238
H48   H     H_    0.025620 0.429561 0.565822 0.103282
O1    O     O_R   0.215090 0.709860 0.828130 -0.454243
O2    O     O_R   0.784910 0.709860 0.171870 -0.454741
O3    O     O_R   0.715090 0.209860 0.828130 -0.454236
O4    O     O_R   0.284910 0.209860 0.171870 -0.454738
O5    O     O_R   0.445660 0.919250 0.676780 -0.487478
O6    O     O_R   0.554340 0.919250 0.323220 -0.474389
O7    O     O_R   0.945660 0.419250 0.676780 -0.487474
O8    O     O_R   0.054340 0.419250 0.323220 -0.474393
O9    O     O_R   0.456260 0.718170 0.670000 -0.511609
O10   O     O_R   0.543740 0.718170 0.330000 -0.495925
O11   O     O_R   0.956260 0.218170 0.670000 -0.511621
O12   O     O_R   0.043740 0.218170 0.330000 -0.495935
O13   O     O_R   0.320940 0.626760 0.674370 -0.489035
O14   O     O_R   0.679060 0.626760 0.325630 -0.520123
O15   O     O_R   0.820940 0.126760 0.674370 -0.489035
O16   O     O_R   0.179060 0.126760 0.325630 -0.520130
O17   O     O_3   0.334530 0.834540 0.749640 -0.285533
O18   O     O_3   0.665470 0.834540 0.250360 -0.304901
O19   O     O_3   0.834530 0.334540 0.749640 -0.285550
O20   O     O_3   0.165470 0.334540 0.250360 -0.304907
O21   O     O_R   0.236990 0.958390 0.823710 -0.513914
O22   O     O_R   0.763010 0.958390 0.176290 -0.512899
O23   O     O_R   0.736990 0.458390 0.823710 -0.513932
O24   O     O_R   0.263010 0.458390 0.176290 -0.512896
O25   O     O_R   0.332380 0.074750 0.830850 -0.502090
O26   O     O_R   0.667620 0.074750 0.169150 -0.502948
O27   O     O_R   0.832380 0.574750 0.830850 -0.502087
O28   O     O_R   0.167620 0.574750 0.169150 -0.502951
O29   O     O_R   0.445800 0.917770 0.825070 -0.450335
O30   O     O_R   0.554200 0.917770 0.174930 -0.445101
O31   O     O_R   0.945800 0.417770 0.825070 -0.450332
O32   O     O_R   0.054200 0.417770 0.174930 -0.445104
O33   O     O_R   0.456410 0.716580 0.829970 -0.542953
O34   O     O_R   0.543590 0.716580 0.170030 -0.537928
O35   O     O_R   0.956410 0.216580 0.829970 -0.542956
O36   O     O_R   0.043590 0.216580 0.170030 -0.537928
O37   O     O_R   0.321080 0.625290 0.822650 -0.490648
O38   O     O_R   0.678920 0.625290 0.177350 -0.491582
O39   O     O_R   0.821080 0.125290 0.822650 -0.490646
O40   O     O_R   0.178920 0.125290 0.177350 -0.491582
O41   O     O_R   0.214930 0.711450 0.668160 -0.493970
O42   O     O_R   0.785070 0.711450 0.331840 -0.491646
O43   O     O_R   0.714930 0.211450 0.668160 -0.493966
O44   O     O_R   0.285070 0.211450 0.331840 -0.491647
O45   O     O_R   0.236850 0.959870 0.675420 -0.505844
O46   O     O_R   0.763150 0.959870 0.324580 -0.501913
O47   O     O_R   0.736850 0.459870 0.675420 -0.505843
O48   O     O_R   0.263150 0.459870 0.324580 -0.501911
O49   O     O_R   0.332230 0.076350 0.670880 -0.506467
O50   O     O_R   0.667770 0.076350 0.329120 -0.517535
O51   O     O_R   0.832230 0.576350 0.670880 -0.506465
O52   O     O_R   0.167770 0.576350 0.329120 -0.517542
Cl1   Cl    Cl    0.432426 0.062869 0.152433 -0.581342
Cl2   Cl    Cl    0.569451 0.060955 0.845058 -0.587512
Cl3   Cl    Cl    0.932413 0.562848 0.152442 -0.581340
Cl4   Cl    Cl    0.069439 0.560975 0.845066 -0.587552

loop_
_geom_bond_atom_site_label_1
_geom_bond_atom_site_label_2
_ccdc_geom_bond_type
C16   C28   D    
C69   O41   A    
Cr3   O19   S    
C38   C70   S    
C60   O40   A    
C37   C69   S    
C9    H21   S    
C46   O34   A    
C35   C36   S    
Cr2   O22   S    
C53   H9    S    
Cr5   O29   S    
Cr6   O6    S    
C11   H23   S    
Cr10  O38   S    
C57   O37   A    
C81   C82   A    
C3    O23   A    
C62   O46   A    
Cr12  O12   S    
C77   C78   A    
Cr8   O32   S    
C31   C67   S    
C50   C54   S    
C30   H45   S    
Cr3   O3    S    
Cr6   O18   S    
Cr11  O15   S    
C7    C79   A    
Cr1   O1    S    
C47   C76   S    
C66   O6    A    
C45   O29   A    
C31   C36   D    
C16   C60   S    
C38   H18   S    
C49   C53   S    
C75   C84   A    
C6    C78   A    
C37   H17   S    
C51   H7    S    
C24   H28   S    
Cr1   O17   S    
C3    C18   S    
C67   O11   A    
C26   H30   S    
C41   C49   D    
C31   H48   S    
C25   H29   S    
C56   H12   S    
C32   H47   S    
C65   O9    A    
C35   H43   S    
C12   H24   S    
C27   H31   S    
C72   O44   A    
C20   C24   D    
C15   H39   S    
C33   H41   S    
C40   C56   D    
Cr6   O50   S    
Cr8   O8    S    
C69   O13   A    
C46   O30   A    
Cr2   O18   S    
C23   C27   S    
C4    O28   A    
C9    C10   A    
Cr10  O18   S    
C6    Cl2   S    
C30   C33   D    
C45   O33   A    
C32   C68   S    
C37   C53   D    
Cr8   O20   S    
Cr5   O5    S    
C28   H32   S    
Cr10  O14   S    
C41   H13   S    
C61   O45   A    
C82   H2    S    
C48   C75   S    
Cr7   O19   S    
Cr9   O37   S    
Cr12  O40   S    
Cr2   O2    S    
C76   C83   A    
Cr5   O17   S    
C64   O48   A    
C22   H26   S    
C7    C9    A    
C19   H35   S    
C14   C58   S    
C39   C55   D    
Cr2   O46   S    
C54   H10   S    
C67   O7    A    
C84   H4    S    
C32   C35   D    
C76   C80   A    
C21   C25   S    
C66   O10   A    
Cr9   O33   S    
Cr3   O43   S    
C14   H38   S    
C51   C55   S    
Cr4   O24   S    
Cr4   O20   S    
C17   H33   S    
C29   C34   D    
C34   H42   S    
C14   C26   D    
C4    O24   A    
C55   H11   S    
C45   C74   S    
C70   O14   A    
C20   H36   S    
C19   C23   D    
C68   O8    A    
Cr11  O19   S    
C10   H22   S    
Cr7   O51   S    
C57   O1    A    
C15   C27   D    
C83   C84   A    
C38   C54   D    
C1    O21   A    
Cr10  O10   S    
Cr5   O49   S    
Cr6   O26   S    
C33   C34   S    
Cr4   O4    S    
Cr7   O31   S    
Cr12  O36   S    
Cr9   O13   S    
C36   H44   S    
C30   C66   S    
C47   O35   A    
C42   C50   D    
C29   C65   S    
C4    C17   S    
C44   H16   S    
Cr11  O35   S    
Cr12  O16   S    
C2    O26   A    
Cr9   O17   S    
C50   H6    S    
C39   H19   S    
C3    O27   A    
C5    C11   A    
C22   C26   S    
C5    Cl1   S    
C63   O51   A    
C8    Cl4   S    
C75   C79   A    
C62   O50   A    
C74   C81   A    
C5    C77   A    
C16   H40   S    
C6    C12   A    
C61   O49   A    
C73   C82   A    
C48   O36   A    
Cr3   O47   S    
Cr4   O48   S    
C2    O22   A    
C52   H8    S    
C1    C20   S    
C15   C59   S    
C40   C72   S    
Cr11  O39   S    
C2    C19   S    
C18   C22   D    
C13   H37   S    
C24   C28   S    
C71   O43   A    
Cr8   O52   S    
C68   O12   A    
Cr10  O34   S    
C44   C52   D    
C23   H27   S    
C11   C12   A    
C58   O2    A    
Cr2   O42   S    
C44   C61   S    
Cr3   O23   S    
C71   O15   A    
Cr6   O30   S    
C72   O16   A    
Cr7   O27   S    
C58   O38   A    
Cr1   O21   S    
Cr7   O7    S    
Cr9   O9    S    
C42   H14   S    
Cr5   O25   S    
Cr1   O41   S    
C49   H5    S    
C43   C51   D    
C40   H20   S    
C81   H1    S    
C13   C25   D    
Cr8   O28   S    
C63   O47   A    
C29   H46   S    
C64   O52   A    
C1    O25   A    
Cr11  O11   S    
C7    Cl3   S    
C17   C21   D    
C18   H34   S    
C70   O42   A    
C79   C80   A    
C43   H15   S    
Cr12  O20   S    
Cr4   O44   S    
C13   C57   S    
C73   C77   A    
C8    C10   A    
C74   C78   A    
C8    C80   A    
C65   O5    A    
C39   C71   S    
C59   O39   A    
C21   H25   S    
C83   H3    S    
C60   O4    A    
C41   C64   S    
Cr1   O45   S    
C42   C63   S    
C46   C73   S    
C47   O31   A    
C52   C56   S    
C43   C62   S    
C48   O32   A    
C59   O3    A    
