data_mof_unit_15019.cif
_audit_creation_date              2012-12-10T16:55:00-0500
_audit_creation_method            fapswitch 2.2
_symmetry_space_group_name_H-M    P1
_symmetry_Int_Tables_number       1
_space_group_crystal_system       triclinic
_cell_length_a                    9.712801
_cell_length_b                    10.938011
_cell_length_c                    15.320032
_cell_angle_alpha                 89.972345
_cell_angle_beta                  73.82065
_cell_angle_gamma                 90.666763
_cell_volume                      1563.00137775

loop_
_atom_site_label
_atom_site_type_symbol
_atom_type_description
_atom_site_fract_x
_atom_site_fract_y
_atom_site_fract_z
_atom_type_partial_charge
C1    C     C_R   0.999796 0.265390 0.497900 0.848101
C2    C     C_R   0.668319 0.561300 0.903434 -0.009220
C3    C     C_R   0.759554 0.620544 0.948689 0.005419
C4    C     C_R   0.518032 0.552776 0.944616 -0.019464
C5    C     C_R   0.463749 0.577746 0.038892 -0.018590
C6    C     C_R   0.552131 0.648231 0.081228 0.097867
C7    C     C_R   0.699108 0.666174 0.037125 0.157645
C8    C     C_R   0.419324 0.521761 0.894238 0.085298
C9    C     C_R   0.281107 0.480976 0.939650 0.166843
C10   C     C_R   0.231029 0.489668 0.034330 0.066555
C11   C     C_R   0.322028 0.535422 0.085073 0.029999
C12   C     C_R   0.916982 0.504397 0.672578 0.823650
C13   C     C_R   0.089287 0.454894 0.078909 -0.079538
C14   C     C_R   0.036453 0.461039 0.172928 0.110073
C15   C     C_R   0.272009 0.527004 0.180595 -0.276250
C16   C     C_2   0.901640 0.930578 0.485950 -0.304380
C17   C     C_2   0.996615 0.867006 0.516317 0.273880
C18   C     C_2   0.885218 0.062748 0.498974 0.221671
C19   C     C_2   0.003069 0.133768 0.487304 -0.263353
C20   C     C_2   0.401875 0.419337 0.543464 -0.061152
C21   C     C_2   0.551362 0.432289 0.553769 0.062690
C22   C     C_R   0.999633 0.734708 0.503657 0.759279
C23   C     C_R   0.083159 0.497859 0.326752 0.791159
C24   C     C_R   0.871387 0.531058 0.770396 -0.106272
C25   C     C_R   0.129092 0.495683 0.225684 -0.114245
C26   C     C_R   0.907709 0.636758 0.901942 0.475015
C27   C     C_R   0.959527 0.596895 0.811648 -0.299729
C28   C     C_R   0.730878 0.505372 0.819441 -0.233437
Cu1   Cu    Cu3+1 0.138640 0.500020 0.499980 0.927633
Cu2   Cu    Cu3+1 0.861360 0.499980 0.500020 0.936067
H1    H     H_    0.016672 0.424438 0.040751 0.192660
H2    H     H_    0.832862 0.885098 0.450547 0.131275
H3    H     H_    0.108690 0.093800 0.465553 0.120760
H4    H     H_    0.336867 0.341940 0.576021 0.138408
H5    H     H_    0.398481 0.581353 0.484844 0.238117
H6    H     H_    0.575493 0.381386 0.608336 0.102406
H7    H     H_    0.345039 0.540695 0.221114 0.179525
H8    H     H_    0.069284 0.616644 0.773683 0.148621
H9    H     H_    0.670339 0.442611 0.789915 0.159163
N1    N     N_2   0.346430 0.498660 0.500980 -0.272164
N2    N     N_2   0.652550 0.498630 0.501000 -0.115165
O1    O     O_R   0.117050 0.321960 0.499980 -0.586698
O2    O     O_R   0.882890 0.321920 0.500020 -0.540877
O3    O     O_R   0.052910 0.500040 0.629810 -0.580246
O4    O     O_R   0.818750 0.499990 0.629840 -0.581438
O5    O     O_R   0.117110 0.678080 0.499980 -0.594927
O6    O     O_R   0.882950 0.678040 0.500020 -0.584686
O7    O     O_R   0.181250 0.500010 0.370160 -0.567806
O8    O     O_R   0.947090 0.499960 0.370190 -0.596830
N3    N     N_3   0.786025 0.734354 0.082359 -0.543249
H10   H     H_    0.745201 0.822572 0.095319 0.227322
H11   H     H_    0.780429 0.691521 0.144299 0.222872
O9    O     O_3   0.062150 0.920803 0.577339 -0.610210
C29   C     C_3   0.213473 0.909987 0.549019 0.064680
H12   H     H_    0.260444 0.003658 0.544719 0.146559
H13   H     H_    0.257031 0.869298 0.480218 0.130385
C30   C     C_3   0.263545 0.838930 0.620605 -0.321543
H14   H     H_    0.226739 0.886481 0.686990 0.205944
H15   H     H_    0.215808 0.745496 0.629096 0.237862
C31   C     C_3   0.426646 0.829515 0.594494 -0.919365
H16   H     H_    0.466946 0.783804 0.527687 0.253073
H17   H     H_    0.459009 0.775130 0.646595 0.264576
H18   H     H_    0.476319 0.922022 0.590630 0.245049
N4    N     N_3   0.743940 0.113105 0.520920 -0.567998
H19   H     H_    0.696884 0.087817 0.469888 0.203147
H20   H     H_    0.683729 0.072761 0.581637 0.212865
N5    N     N_3   0.634380 0.528327 0.416765 -0.530587
H21   H     H_    0.702594 0.602313 0.391181 0.237750
H22   H     H_    0.668288 0.453515 0.374213 0.233024
N6    N     N_3   0.889145 0.428373 0.211852 -0.605535
H23   H     H_    0.835408 0.506163 0.242264 0.223200
H24   H     H_    0.881792 0.358833 0.259817 0.231562
N7    N     N_3   0.192620 0.425716 0.889178 -0.594831
H25   H     H_    0.243533 0.346656 0.858596 0.204912
H26   H     H_    0.186888 0.485097 0.837304 0.258652
O10   O     O_3   0.004831 0.678186 0.946732 -0.565733
C32   C     C_3   0.056249 0.796079 0.915067 0.101834
H27   H     H_    0.968846 0.864054 0.936089 0.141191
H28   H     H_    0.099217 0.799348 0.839786 0.080428
C33   C     C_3   0.179139 0.832396 0.954615 -0.328993
H29   H     H_    0.267651 0.765972 0.932136 0.226374
H30   H     H_    0.221021 0.924090 0.927998 0.162089
C34   C     C_3   0.131611 0.836625 0.058373 -0.746863
H31   H     H_    0.043240 0.902745 0.082295 0.234675
H32   H     H_    0.223325 0.866100 0.083619 0.216144
H33   H     H_    0.094968 0.744802 0.087112 0.283610
N8    N     N_3   0.492971 0.722033 0.160234 -0.628132
H34   H     H_    0.386094 0.744090 0.167186 0.231037
H35   H     H_    0.506308 0.678786 0.218111 0.213782
N9    N     N_3   0.445668 0.552113 0.799427 -0.622436
H36   H     H_    0.526897 0.617946 0.777870 0.241673
H37   H     H_    0.467605 0.472906 0.760208 0.205888

loop_
_geom_bond_atom_site_label_1
_geom_bond_atom_site_label_2
_ccdc_geom_bond_type
C8    C9    A    
N8    H34   S    
Cu1   O1    S    
N7    H26   S    
N7    H25   S    
Cu2   O4    S    
C24   C27   A    
C4    C8    A    
N9    H36   S    
N2    N5    S    
C21   H6    S    
O9    C29   S    
C26   C27   A    
C31   H18   S    
C5    C11   A    
C3    C7    A    
C5    C6    A    
C20   N1    D    
C23   O8    A    
C27   H8    S    
C31   H17   S    
C18   C19   D    
C15   H7    S    
N9    H37   S    
C1    O2    A    
C16   C17   D    
N3    H11   S    
Cu2   N2    S    
N6    H23   S    
C9    C10   A    
C20   H4    S    
C22   O6    A    
C13   C14   A    
C14   N6    S    
C9    N7    S    
C33   C34   S    
C32   H28   S    
C29   H13   S    
C1    C19   S    
Cu1   O7    S    
N5    H21   S    
Cu2   O6    S    
O10   C32   S    
C33   H30   S    
C19   H3    S    
C33   H29   S    
C30   C31   S    
C28   H9    S    
C32   H27   S    
C6    N8    S    
C31   H16   S    
N5    H22   S    
N4    H20   S    
C2    C4    A    
Cu1   Cu2   S    
C26   O10   S    
C34   H31   S    
N3    H10   S    
C21   N2    D    
C34   H32   S    
Cu2   O8    S    
C11   C15   A    
N8    H35   S    
Cu1   O3    S    
Cu2   O2    S    
C8    N9    S    
C17   O9    S    
C32   C33   S    
C29   H12   S    
C23   O7    A    
C22   O5    A    
C13   H1    S    
C3    C26   A    
C24   C28   A    
C7    N3    S    
C12   O4    A    
C10   C13   A    
N6    H24   S    
C6    C7    A    
C16   H2    S    
C12   C24   S    
C17   C22   S    
Cu1   O5    S    
N4    H19   S    
C2    C3    A    
C12   O3    A    
C18   N4    S    
C30   H14   S    
Cu1   N1    S    
H5    N1    S    
C23   C25   S    
C14   C25   A    
C30   H15   S    
C10   C11   A    
C1    O1    A    
C4    C5    A    
C34   H33   S    
C20   C21   S    
C15   C25   A    
C16   C18   S    
C2    C28   A    
C29   C30   S    
