data_mof_unit_51185.cif
_audit_creation_date              2012-12-10T18:47:47-0500
_audit_creation_method            fapswitch 2.2
_symmetry_space_group_name_H-M    P1
_symmetry_Int_Tables_number       1
_space_group_crystal_system       triclinic
_cell_length_a                    9.863468
_cell_length_b                    10.649876
_cell_length_c                    15.602769
_cell_angle_alpha                 90.080328
_cell_angle_beta                  67.677917
_cell_angle_gamma                 90.140612
_cell_volume                      1516.16338454

loop_
_atom_site_label
_atom_site_type_symbol
_atom_type_description
_atom_site_fract_x
_atom_site_fract_y
_atom_site_fract_z
_atom_type_partial_charge
C1    C     C_R   0.501130 0.739672 0.498470 0.878810
C2    C     C_R   0.382369 0.932835 0.563305 -0.232757
C3    C     C_R   0.498050 0.127897 0.502435 -0.077562
C4    C     C_R   0.501951 0.872103 0.497565 -0.077562
C5    C     C_R   0.903656 0.404327 0.540389 -0.041019
C6    C     C_R   0.096342 0.595673 0.459613 -0.041023
C7    C     C_R   0.047260 0.404452 0.540497 -0.051211
C8    C     C_R   0.952739 0.595548 0.459506 -0.051214
C9    C     C_R   0.408417 0.500137 0.675660 0.871838
C10   C     C_R   0.591583 0.499863 0.324340 0.871838
C11   C     C_R   0.352042 0.507698 0.776172 -0.057568
C12   C     C_R   0.498870 0.260328 0.501530 0.878810
C13   C     C_R   0.647957 0.492302 0.223828 -0.057568
C14   C     C_R   0.170776 0.569499 0.923846 -0.208911
C15   C     C_R   0.829223 0.430501 0.076154 -0.208911
C16   C     C_R   0.212583 0.554576 0.828448 -0.199690
C17   C     C_R   0.787417 0.445424 0.171552 -0.199690
C18   C     C_R   0.448303 0.478145 0.819020 -0.227488
C19   C     C_R   0.551697 0.521854 0.180980 -0.227488
C20   C     C_R   0.417197 0.510178 0.910964 0.092885
C21   C     C_R   0.582802 0.489821 0.089036 0.092885
C22   C     C_R   0.271331 0.544336 0.965728 0.158511
C23   C     C_R   0.321434 0.507010 0.103045 -0.010996
C24   C     C_R   0.728669 0.455663 0.034272 0.158512
C25   C     C_R   0.524445 0.500445 0.950873 -0.001125
C26   C     C_R   0.475555 0.499554 0.049127 -0.001125
C27   C     C_1   0.254282 0.461340 0.197169 0.146090
C28   C     C_1   0.745718 0.538659 0.802831 0.146089
C29   C     C_1   0.740972 0.876140 0.361804 0.151273
C30   C     C_1   0.259030 0.123860 0.638198 0.151271
C31   C     C_R   0.678566 0.492989 0.896955 -0.010996
C32   C     C_R   0.224708 0.541778 0.061533 -0.274563
C33   C     C_R   0.775292 0.458221 0.938467 -0.274563
C34   C     C_R   0.620255 0.938118 0.433419 0.004894
C35   C     C_R   0.379746 0.061882 0.566582 0.004895
C36   C     C_R   0.617631 0.067165 0.436696 -0.232758
H1    H     H_    0.109404 0.554941 0.103793 0.156023
H2    H     H_    0.293120 0.879333 0.612877 0.154899
H3    H     H_    0.829652 0.327981 0.573117 0.131526
H4    H     H_    0.170345 0.672021 0.426888 0.131528
H5    H     H_    0.081593 0.328099 0.573088 0.143076
H6    H     H_    0.918403 0.671903 0.426918 0.143079
H7    H     H_    0.890596 0.445057 0.896207 0.156023
H8    H     H_    0.452958 0.572581 0.220346 0.160741
H9    H     H_    0.547042 0.427418 0.779654 0.160740
H10   H     H_    0.863428 0.421467 0.204000 0.162579
H11   H     H_    0.136572 0.578534 0.796000 0.162578
H12   H     H_    0.060573 0.600686 0.964709 0.151098
H13   H     H_    0.939426 0.399313 0.035291 0.151098
H14   H     H_    0.706880 0.120666 0.387124 0.154899
N1    N     N_R   0.142780 0.500030 0.500020 -0.081139
N2    N     N_R   0.857220 0.499970 0.499980 -0.081139
N3    N     N_1   0.199957 0.424004 0.272199 -0.191078
N4    N     N_1   0.800043 0.575994 0.727801 -0.191080
N5    N     N_1   0.837356 0.826599 0.304352 -0.216208
N6    N     N_1   0.162648 0.173400 0.695653 -0.216208
O1    O     O_R   0.385370 0.683250 0.500010 -0.627883
O2    O     O_R   0.614630 0.316750 0.499990 -0.627882
O3    O     O_R   0.614700 0.683220 0.500000 -0.611418
O4    O     O_R   0.385300 0.316780 0.500000 -0.611417
O5    O     O_R   0.319830 0.500020 0.632250 -0.613221
O6    O     O_R   0.680170 0.499980 0.367750 -0.613221
O7    O     O_R   0.549160 0.499990 0.632240 -0.606232
O8    O     O_R   0.450840 0.500010 0.367760 -0.606232
Zn1   Zn    Zn3+2 0.346870 0.500020 0.500000 0.965828
Zn2   Zn    Zn3+2 0.653130 0.499980 0.500000 0.965828

loop_
_geom_bond_atom_site_label_1
_geom_bond_atom_site_label_2
_ccdc_geom_bond_type
C2    C35   A    
C25   C31   A    
C2    C4    A    
C21   C26   A    
C31   C33   A    
C5    N2    A    
C3    C35   A    
C6    N1    A    
C11   C16   A    
C2    H2    S    
C18   C20   A    
C24   C33   A    
C13   C17   A    
C1    C4    S    
C12   O2    A    
C23   C32   A    
C14   C22   A    
C27   N3    T    
O7    Zn2   S    
C7    N1    A    
C1    O1    A    
C11   C18   A    
C32   H1    S    
O8    Zn1   S    
C15   H13   S    
C17   H10   S    
C9    C11   S    
C10   O6    A    
C22   C32   A    
C30   C35   S    
C14   H12   S    
C9    O5    A    
C3    C36   A    
C16   H11   S    
C15   C24   A    
C19   C21   A    
C1    O3    A    
C8    H6    S    
O4    Zn1   S    
C34   C36   A    
C23   C27   S    
C7    H5    S    
C4    C34   A    
C28   N4    T    
C14   C16   A    
C21   C24   A    
C20   C25   A    
O6    Zn2   S    
C12   O4    A    
C18   H9    S    
O5    Zn1   S    
C6    H4    S    
N2    Zn2   S    
C19   H8    S    
C5    C7    A    
N1    Zn1   S    
C23   C26   A    
O1    Zn1   S    
C15   C17   A    
C5    H3    S    
C8    N2    A    
C13   C19   A    
C6    C8    A    
C3    C12   S    
C29   N5    T    
C25   C26   A    
C9    O7    A    
C30   N6    T    
C29   C34   S    
O2    Zn2   S    
C28   C31   S    
C10   O8    A    
C36   H14   S    
C20   C22   A    
O3    Zn2   S    
C10   C13   S    
C33   H7    S    
