data_mof_unit_24136.cif
_audit_creation_date              2012-12-10T17:47:16-0500
_audit_creation_method            fapswitch 2.2
_symmetry_space_group_name_H-M    P1
_symmetry_Int_Tables_number       1
_space_group_crystal_system       triclinic
_cell_length_a                    11.678689
_cell_length_b                    14.781587
_cell_length_c                    14.837418
_cell_angle_alpha                 64.574524
_cell_angle_beta                  104.793959
_cell_angle_gamma                 102.047021
_cell_volume                      2222.16221486

loop_
_atom_site_label
_atom_site_type_symbol
_atom_type_description
_atom_site_fract_x
_atom_site_fract_y
_atom_site_fract_z
_atom_type_partial_charge
C1    C     C_R   0.479826 0.119806 0.312331 0.834017
C2    C     C_R   0.515465 0.880541 0.687589 0.818809
C3    C     C_R   0.431394 0.325297 0.000008 0.065798
C4    C     C_R   0.523540 0.680854 0.000416 0.094451
C5    C     C_R   0.482868 0.468645 0.052981 0.089407
C6    C     C_R   0.459113 0.536330 0.949565 0.065218
C7    C     C_R   0.409369 0.495865 0.875440 -0.166767
C8    C     C_R   0.527732 0.509418 0.127460 -0.202005
C9    C     C_R   0.398811 0.393268 0.899734 -0.124356
C10   C     C_R   0.544882 0.612543 0.101891 -0.163103
C11   C     C_R   0.724872 0.298194 0.645312 -0.141178
C12   C     C_R   0.296443 0.717424 0.328213 -0.143034
C13   C     C_R   0.679846 0.209087 0.628912 0.079983
C14   C     C_R   0.327333 0.796517 0.362616 0.068042
C15   C     C_R   0.511852 0.286459 0.511293 0.089408
C16   C     C_R   0.488637 0.713645 0.485703 0.104557
C17   C     C_R   0.562171 0.382702 0.514561 -0.074124
C18   C     C_R   0.471695 0.639672 0.443232 -0.072616
C19   C     C_R   0.673280 0.388224 0.580031 0.016977
C20   C     C_R   0.375720 0.644160 0.361026 0.017886
C21   C     C_R   0.504780 0.473388 0.457509 0.075035
C22   C     C_R   0.544238 0.558451 0.482783 0.088031
C23   C     C_R   0.284391 0.000405 0.499846 0.825863
C24   C     C_R   0.715601 0.999636 0.500096 0.837726
C25   C     C_R   0.661915 0.565659 0.534658 -0.213733
C26   C     C_R   0.421600 0.487682 0.367292 -0.252112
C27   C     C_R   0.728872 0.484212 0.578425 0.003874
C28   C     C_R   0.361575 0.573541 0.315811 0.019801
C29   C     C_1   0.162770 0.000804 0.500014 -0.121331
C30   C     C_1   0.837249 0.999251 0.499951 -0.101333
C31   C     C_1   0.060072 0.000423 0.500013 0.041364
C32   C     C_1   0.939960 0.999641 0.499968 0.045713
C33   C     C_R   0.465464 0.188732 0.204362 -0.075099
C34   C     C_R   0.515032 0.813651 0.795340 -0.091244
C35   C     C_R   0.425118 0.220269 0.024975 -0.028815
C36   C     C_R   0.545871 0.786837 0.973338 -0.021455
C37   C     C_R   0.441835 0.153235 0.127381 -0.171565
C38   C     C_R   0.540633 0.851631 0.870678 -0.170762
C39   C     C_R   0.476754 0.292236 0.179189 -0.199366
C40   C     C_R   0.484570 0.710455 0.821954 -0.233598
C41   C     C_R   0.464702 0.362513 0.078120 0.074073
C42   C     C_R   0.486055 0.642318 0.923290 0.081988
Cu1   Cu    Cu3+1 0.469550 0.918260 0.475690 1.001468
Cu2   Cu    Cu3+1 0.530450 0.081740 0.524310 1.005769
H1    H     H_    0.360586 0.367787 0.839008 0.195912
H2    H     H_    0.581713 0.637571 0.163020 0.179046
H3    H     H_    0.706600 0.638175 0.532457 0.182960
H4    H     H_    0.412926 0.437567 0.329848 0.179204
H5    H     H_    0.464220 0.684438 0.761961 0.193927
H6    H     H_    0.491233 0.316241 0.240369 0.183003
H7    H     H_    0.555475 0.932175 0.849675 0.226802
H8    H     H_    0.437855 0.073217 0.147028 0.212286
H9    H     H_    0.375551 0.541568 0.797360 0.178058
H10   H     H_    0.554358 0.464117 0.206950 0.141478
N1    N     N_R   0.576230 0.204580 0.560790 -0.263451
N2    N     N_R   0.423770 0.795420 0.439210 -0.263116
O1    O     O_R   0.459870 0.022090 0.338120 -0.576971
O2    O     O_R   0.540130 0.977910 0.661880 -0.575473
O3    O     O_R   0.511290 0.160150 0.379180 -0.561823
O4    O     O_R   0.488710 0.839850 0.620820 -0.581142
O5    O     O_R   0.311490 0.930960 0.479480 -0.572312
O6    O     O_R   0.688510 0.069040 0.520520 -0.568760
O7    O     O_R   0.362910 0.069020 0.520540 -0.562069
O8    O     O_R   0.637090 0.930980 0.479460 -0.539925
C43   C     C_2   0.406644 0.177970 0.947060 0.858533
O9    O     O_2   0.347154 0.096414 0.959144 -0.535013
O10   O     O_R   0.461626 0.228788 0.862325 -0.729115
H11   H     H_    0.443656 0.191504 0.815818 0.354797
C44   C     C_2   0.575076 0.833472 0.048863 0.862953
O11   O     O_2   0.646736 0.909186 0.036093 -0.550699
O12   O     O_R   0.517624 0.794036 0.132013 -0.733595
H12   H     H_    0.544312 0.833412 0.176800 0.340792
C45   C     C_2   0.859098 0.506239 0.611356 0.875258
O13   O     O_2   0.929785 0.466927 0.595261 -0.546979
O14   O     O_R   0.901000 0.575440 0.656833 -0.730867
H13   H     H_    0.991228 0.585132 0.674615 0.345413
C46   C     C_2   0.294709 0.589612 0.211233 0.878399
O15   O     O_2   0.294255 0.674368 0.143790 -0.534661
O16   O     O_R   0.236992 0.506745 0.188771 -0.738111
H14   H     H_    0.197318 0.526879 0.114695 0.345946
C47   C     C_2   0.557137 0.690204 0.590328 0.870621
O17   O     O_2   0.525293 0.613312 0.659179 -0.611083
O18   O     O_R   0.662453 0.749383 0.609842 -0.737103
H15   H     H_    0.701568 0.723073 0.684306 0.338390
C48   C     C_2   0.383318 0.269372 0.471673 0.894841
O19   O     O_2   0.310937 0.268065 0.519076 -0.553418
O20   O     O_R   0.344127 0.258222 0.379399 -0.764007
H16   H     H_    0.254009 0.248724 0.360310 0.342411
C49   C     C_2   0.245914 0.875012 0.320885 0.956193
O21   O     O_2   0.261718 0.951151 0.245403 -0.562790
O22   O     O_R   0.142967 0.856011 0.360824 -0.749560
H17   H     H_    0.091273 0.913295 0.323664 0.335255
C50   C     C_2   0.743784 0.119439 0.690765 0.951449
O23   O     O_2   0.714646 0.058931 0.770629 -0.598422
O24   O     O_R   0.846819 0.111218 0.664566 -0.702462
H18   H     H_    0.885491 0.048513 0.714756 0.339963
C51   C     C_2   0.814792 0.293168 0.738604 0.886128
O25   O     O_2   0.795352 0.325827 0.795667 -0.545735
O26   O     O_R   0.921143 0.252045 0.760770 -0.691013
H19   H     H_    0.974466 0.253472 0.825942 0.350679
C52   C     C_2   0.174388 0.705050 0.269100 0.893161
O27   O     O_2   0.111777 0.624504 0.298585 -0.552504
O28   O     O_R   0.131445 0.784953 0.180299 -0.690261
H20   H     H_    0.047566 0.766845 0.147430 0.350921

loop_
_geom_bond_atom_site_label_1
_geom_bond_atom_site_label_2
_ccdc_geom_bond_type
C14   N2    A    
C21   C26   A    
C4    C36   A    
C9    H1    S    
C50   O23   D    
C45   O13   D    
O24   H18   S    
Cu1   Cu2   S    
C51   O25   D    
C1    C33   S    
C39   C41   A    
C48   O19   D    
C11   C19   A    
C33   C39   A    
O18   H15   S    
C34   C40   A    
C23   C29   S    
C35   C37   A    
C1    O3    A    
C5    C6    A    
C2    O4    A    
C35   C43   S    
Cu2   O3    S    
C40   H5    S    
C15   C17   A    
C44   O12   S    
C47   O18   S    
C31   C32   S    
Cu2   O2    S    
C43   O10   S    
C22   C25   A    
C10   H2    S    
C49   O22   S    
C19   C27   A    
C25   H3    S    
C26   H4    S    
C15   C48   S    
C2    C34   S    
C40   C42   A    
C52   O28   S    
C34   C38   A    
C21   C22   A    
C45   O14   S    
C51   O26   S    
Cu1   O8    S    
C47   O17   D    
C24   C30   S    
C46   O16   S    
Cu2   O7    S    
C48   O20   S    
O10   H11   S    
C52   O27   D    
C8    H10   S    
O22   H17   S    
C37   H8    S    
C38   H7    S    
C20   C28   A    
Cu2   O6    S    
C46   O15   D    
C33   C37   A    
C13   C50   S    
C15   N1    A    
O14   H13   S    
C16   N2    A    
C14   C49   S    
C3    C9    A    
C1    O1    A    
O26   H19   S    
C3    C35   A    
C12   C20   A    
C28   C46   S    
Cu1   O4    S    
C8    C10   A    
C12   C14   A    
C7    H9    S    
C4    C10   A    
C36   C44   S    
Cu1   O5    S    
C7    C9    A    
C5    C41   A    
C3    C41   A    
C24   O6    A    
C18   C22   A    
C5    C8    A    
C2    O2    A    
C6    C7    A    
C25   C27   A    
C26   C28   A    
C11   C51   S    
C36   C38   A    
C12   C52   S    
C29   C31   T    
C30   C32   T    
C11   C13   A    
Cu2   N1    S    
C50   O24   S    
C4    C42   A    
C23   O7    A    
C16   C47   S    
C17   C19   A    
C24   O8    A    
C18   C20   A    
C44   O11   D    
C17   C21   A    
Cu1   O1    S    
O16   H14   S    
Cu1   N2    S    
C23   O5    A    
C39   H6    S    
O12   H12   S    
O20   H16   S    
C16   C18   A    
C43   O9    D    
C6    C42   A    
O28   H20   S    
C49   O21   D    
C27   C45   S    
C13   N1    A    
