data_mof_unit_5512.cif
_audit_creation_date              2013-03-05T16:34:12-0500
_audit_creation_method            fapswitch 2.2
_symmetry_space_group_name_H-M    P1
_symmetry_Int_Tables_number       1
_space_group_crystal_system       triclinic
_cell_length_a                    10.992879
_cell_length_b                    10.875447
_cell_length_c                    9.718034
_cell_angle_alpha                 89.413679
_cell_angle_beta                  91.538165
_cell_angle_gamma                 91.101884
_cell_volume                      1161.12671213

loop_
_atom_site_label
_atom_site_type_symbol
_atom_site_description
_atom_site_fract_x
_atom_site_fract_y
_atom_site_fract_z
_atom_type_partial_charge
O1    O     O_R   0.500000 0.319640 0.618810 -0.583272
O2    O     O_R   0.500010 0.319680 0.381230 -0.601442
C1    C     C_R   0.507382 0.263188 0.500767 0.801635
O3    O     O_R   0.319640 0.499990 0.618790 -0.598312
O4    O     O_R   0.319650 0.500030 0.381210 -0.583792
C2    C     C_R   0.263224 0.495063 0.497441 0.769118
Cu1   Cu    Cu3+1 0.499990 0.499980 0.640670 0.941019
Cu2   Cu    Cu3+1 0.500010 0.500020 0.359330 0.935986
O5    O     O_R   0.499990 0.680320 0.618770 -0.580236
O6    O     O_R   0.500000 0.680360 0.381190 -0.598383
O7    O     O_R   0.680350 0.499970 0.618790 -0.563573
O8    O     O_R   0.680360 0.500010 0.381210 -0.574965
C3    C     C_R   0.492012 0.737164 0.498583 0.783163
C4    C     C_R   0.738077 0.496851 0.501496 0.792986
C5    C     C_R   0.171512 0.750517 0.094323 -0.000896
C6    C     C_R   0.137124 0.709515 0.227869 -0.025274
C7    C     C_R   0.116715 0.581752 0.251503 0.027014
C8    C     C_R   0.145797 0.496090 0.149091 0.203555
C9    C     C_R   0.185826 0.537741 0.022201 -0.150641
H1    H     H_    0.204284 0.471800 0.942926 0.162539
C10   C     C_R   0.195265 0.663232 0.992656 0.015618
C11   C     C_R   0.935165 0.543378 0.392716 -0.215666
H2    H     H_    0.882798 0.595292 0.320324 0.248901
C12   C     C_R   0.873697 0.488691 0.501093 -0.122262
C13   C     C_R   0.943333 0.429543 0.604790 0.030315
C14   C     C_R   0.070121 0.425688 0.597231 -0.204072
H3    H     H_    0.122791 0.388205 0.683454 0.160027
C15   C     C_R   0.130157 0.483749 0.489606 -0.106669
C16   C     C_R   0.061220 0.535858 0.380467 -0.024016
C17   C     C_R   0.910306 0.538832 0.810264 -0.292222
H4    H     H_    0.940114 0.619889 0.753170 0.127291
C18   C     C_R   0.885329 0.547920 0.947884 0.052241
C19   C     C_R   0.842771 0.440188 0.017447 0.197982
C20   C     C_R   0.833198 0.327319 0.947643 -0.190599
H5    H     H_    0.801315 0.245129 0.000464 0.157965
C21   C     C_R   0.863479 0.320376 0.810230 -0.136522
H6    H     H_    0.858120 0.233290 0.757145 0.149828
C22   C     C_R   0.900126 0.427418 0.742725 0.131562
C23   C     C_R   0.501681 0.061839 0.622975 0.066365
C24   C     C_R   0.520315 0.129622 0.502179 -0.174050
C25   C     C_R   0.538398 0.064253 0.379593 0.166599
C26   C     C_R   0.498531 0.940993 0.371636 0.045738
C27   C     C_R   0.486308 0.872003 0.495326 -0.248318
C28   C     C_R   0.486552 0.935047 0.620026 0.038698
C29   C     C_3   0.385837 0.940404 0.722006 -0.209002
C30   C     C_3   0.408939 0.078330 0.729681 -0.399040
H7    H     H_    0.407944 0.890953 0.819634 0.156427
H8    H     H_    0.332624 0.137062 0.693209 0.221450
H9    H     H_    0.451691 0.105894 0.829808 0.189505
C31   C     C_R   0.512570 0.607025 0.072001 0.225772
N1    N     N_R   0.500790 0.500930 0.147930 -0.201765
C32   C     C_R   0.464903 0.399066 0.073646 -0.096969
H10   H     H_    0.431739 0.318439 0.126569 0.153934
C33   C     C_R   0.467433 0.398198 0.926259 -0.068037
H11   H     H_    0.440949 0.315233 0.872818 0.144184
N2    N     N_R   0.500790 0.500890 0.852020 -0.191878
C34   C     C_R   0.512256 0.606894 0.925987 0.231131
C35   C     C_3   0.613867 0.697274 0.919512 -0.466744
C36   C     C_3   0.618719 0.692822 0.075999 -0.443512
H12   H     H_    0.692187 0.659681 0.866786 0.211475
H13   H     H_    0.584187 0.787422 0.877801 0.204185
H14   H     H_    0.694443 0.644171 0.124997 0.268833
H15   H     H_    0.603250 0.782700 0.121898 0.229603
N3    N     N_3   0.218645 0.702047 0.854762 -0.642858
H16   H     H_    0.300304 0.664749 0.825060 0.241267
H17   H     H_    0.150058 0.665491 0.790020 0.225703
N4    N     N_3   0.802387 0.443109 0.154505 -0.573717
H18   H     H_    0.711969 0.412492 0.151340 0.242967
H19   H     H_    0.849138 0.376286 0.211411 0.210938
N5    N     N_3   0.599587 0.118547 0.264654 -0.532635
H20   H     H_    0.670651 0.176273 0.300064 0.209996
H21   H     H_    0.537868 0.168824 0.205444 0.253138
C37   C     C_2   0.443462 0.896189 0.239315 0.395292
H22   H     H_    0.389672 0.812018 0.235961 0.091073
O9    O     O_2   0.451884 0.955461 0.132447 -0.590511
C38   C     C_2   0.262786 0.904538 0.660536 0.485664
H23   H     H_    0.252001 0.818344 0.605970 0.055644
O10   O     O_2   0.173956 0.968348 0.675577 -0.530858
C39   C     C_2   0.170563 0.882279 0.052282 0.513138
H24   H     H_    0.234688 0.916903 0.977777 0.107371
O11   O     O_2   0.093838 0.951575 0.093713 -0.486634
C40   C     C_2   0.120269 0.797073 0.342626 0.405173
H25   H     H_    0.062870 0.772157 0.427909 0.079696
O12   O     O_2   0.174184 0.896156 0.346748 -0.530789
N6    N     N_3   0.135317 0.365695 0.171063 -0.570384
H26   H     H_    0.194518 0.340104 0.251626 0.246705
H27   H     H_    0.046990 0.343164 0.199680 0.234111
C41   C     C_2   0.902562 0.674469 0.002879 0.340546
H28   H     H_    0.924462 0.749853 0.933035 0.106997
O13   O     O_2   0.894568 0.699195 0.123353 -0.577544

loop_
_geom_bond_atom_site_label_1
_geom_bond_atom_site_label_2
_geom_bond_distance
_ccdc_geom_bond_type
C11   C16   1.398018 A    
C2    C15   1.465608 S    
C7    C16   1.486109 S    
C37   H22   1.080462 S    
C9    H1    1.083637 S    
Cu1   Cu2   2.734072 S    
N6    H26   1.043595 S    
C28   C29   1.507948 S    
Cu1   O7    1.999714 S    
C30   H9    1.110641 S    
C14   H3    1.086079 S    
C29   C38   1.509914 S    
C31   C36   1.479934 S    
C15   C16   1.407626 A    
C9    C10   1.394245 A    
C38   O10   1.221596 D    
C8    C9    1.389047 A    
O4    C2    1.303301 A    
O7    C4    1.320450 A    
C35   H12   1.101125 S    
C5    C6    1.426202 A    
C18   C41   1.488376 S    
N2    C34   1.366789 A    
C17   C22   1.385133 A    
C20   H5    1.083293 S    
C25   C26   1.404532 A    
C4    C12   1.495306 S    
O5    C3    1.317516 A    
C10   N3    1.429246 S    
C5    C39   1.486202 S    
C6    C7    1.420551 A    
C36   H14   1.090929 S    
N5    H20   1.045918 S    
C35   H13   1.108611 S    
N6    H27   1.041205 S    
C37   O9    1.221410 D    
Cu1   N2    2.053814 S    
O3    Cu1   1.988253 S    
C32   C33   1.433455 A    
C19   C20   1.409333 A    
C30   H8    1.112386 S    
C29   H7    1.109337 S    
C33   N2    1.372670 A    
C8    N6    1.434821 S    
N4    H18   1.041914 S    
C12   C13   1.406969 A    
O3    C2    1.318683 A    
C23   C24   1.397428 A    
C39   O11   1.220789 D    
C31   N1    1.369127 A    
C13   C14   1.399112 A    
C29   C30   1.518785 S    
N1    C32   1.374154 A    
N4    H19   1.043535 S    
N3    H17   1.044268 S    
C27   C28   1.398356 A    
C13   C22   1.433903 S    
Cu2   O8    1.988254 S    
C6    C40   1.491438 S    
C7    C8    1.417085 A    
C38   H23   1.084661 S    
Cu2   N1    2.054563 S    
C23   C30   1.488107 S    
C24   C25   1.414065 A    
C41   O13   1.209797 D    
C1    C24   1.462135 S    
C40   O12   1.220287 D    
C11   C12   1.389063 A    
C26   C27   1.418521 A    
C3    C27   1.468958 S    
C32   H10   1.074637 S    
C19   N4    1.416086 S    
Cu1   O5    1.970624 S    
C33   H11   1.077010 S    
C21   H6    1.082972 S    
C26   C37   1.489009 S    
O1    Cu1   1.974912 S    
C31   C34   1.418904 A    
C14   C15   1.391293 A    
O2    Cu2   1.970626 S    
O8    C4    1.315439 A    
O6    C3    1.308713 A    
O4    Cu2   1.999714 S    
C23   C28   1.386235 A    
C36   H15   1.096672 S    
N3    H16   1.041145 S    
C21   C22   1.388663 A    
O2    C1    1.309865 A    
C35   C36   1.520555 S    
C18   C19   1.424174 A    
C17   C18   1.377399 A    
C34   C35   1.475828 S    
C17   H4    1.086723 S    
C20   C21   1.388044 A    
C39   H24   1.083765 S    
C5    C10   1.409964 A    
C41   H28   1.086544 S    
Cu2   O6    1.974912 S    
C40   H25   1.084130 S    
C11   H2    1.061935 S    
N5    H21   1.037917 S    
O1    C1    1.311784 A    
C25   N5    1.435382 S    
