data_mof_unit_7035.cif
_audit_creation_date              2012-12-10T17:16:15-0500
_audit_creation_method            fapswitch 2.2
_symmetry_space_group_name_H-M    P1
_symmetry_Int_Tables_number       1
_space_group_crystal_system       triclinic
_cell_length_a                    19.280297
_cell_length_b                    13.003832
_cell_length_c                    11.732048
_cell_angle_alpha                 99.516294
_cell_angle_beta                  92.696946
_cell_angle_gamma                 91.437875
_cell_volume                      2896.12765291

loop_
_atom_site_label
_atom_site_type_symbol
_atom_type_description
_atom_site_fract_x
_atom_site_fract_y
_atom_site_fract_z
_atom_type_partial_charge
C1    C     C_R   0.500243 0.299786 0.478930 0.860925
C2    C     C_R   0.498675 0.700611 0.521019 0.751859
C3    C     C_R   0.495927 0.814345 0.533510 -0.145017
C4    C     C_R   0.494522 0.187165 0.468091 -0.076844
C5    C     C_R   0.423633 0.031792 0.394105 0.011015
C6    C     C_R   0.536647 0.981309 0.643112 -0.044783
C7    C     C_R   0.440344 0.136636 0.395915 -0.231171
C8    C     C_R   0.528670 0.873527 0.632452 -0.146344
C9    C     C_R   0.534732 0.132954 0.540355 -0.063686
C10   C     C_R   0.461760 0.864173 0.449329 -0.092167
C11   C     C_R   0.512690 0.030402 0.550106 -0.025754
C12   C     C_R   0.464907 0.974650 0.463752 0.063717
C13   C     C_R   0.453671 0.379776 0.024136 -0.285277
C14   C     C_R   0.546375 0.620211 0.975920 -0.257092
C15   C     C_R   0.454441 0.395175 0.145206 0.030614
C16   C     C_R   0.545460 0.604914 0.854826 0.040078
C17   C     C_R   0.522000 0.552134 0.156435 0.636772
C18   C     C_R   0.478159 0.447738 0.843617 0.622347
C19   C     C_R   0.517324 0.543786 0.033474 -0.083364
C20   C     C_R   0.482780 0.456167 0.966585 -0.087914
C21   C     C_R   0.367720 0.501119 0.501292 0.718126
C22   C     C_R   0.632419 0.501361 0.498922 0.782419
C23   C     C_R   0.260927 0.591951 0.568500 -0.048384
C24   C     C_R   0.743686 0.438624 0.414539 -0.042416
C25   C     C_R   0.187752 0.598663 0.564523 -0.054393
C26   C     C_R   0.816836 0.447501 0.412299 -0.066831
C27   C     C_R   0.146207 0.513742 0.504910 -0.090049
C28   C     C_R   0.854253 0.523351 0.493768 -0.073124
C29   C     C_R   0.176757 0.423814 0.445352 -0.009584
C30   C     C_R   0.819509 0.594800 0.573951 -0.010872
C31   C     C_R   0.249802 0.421694 0.440501 -0.083294
C32   C     C_R   0.746374 0.586827 0.575812 -0.070426
C33   C     C_R   0.291546 0.504677 0.504031 -0.189212
C34   C     C_R   0.708847 0.508370 0.496792 -0.180833
C35   C     C_R   0.930536 0.524403 0.498160 0.445223
C36   C     C_R   0.070417 0.519849 0.503865 0.424038
Cu1   Cu    Cu3+1 0.505120 0.507730 0.615930 1.013591
Cu2   Cu    Cu3+1 0.494880 0.492270 0.384070 0.985012
H1    H     H_    0.430275 0.307948 0.976570 0.191484
H2    H     H_    0.569798 0.692010 0.023518 0.203694
H3    H     H_    0.549805 0.834989 0.700932 0.194854
H4    H     H_    0.408851 0.180851 0.343860 0.181530
H5    H     H_    0.569643 0.663300 0.812517 0.171326
H6    H     H_    0.430100 0.336920 0.187548 0.169149
N1    N     N_R   0.034793 0.546285 0.411139 -0.145171
N2    N     N_R   0.966264 0.499159 0.591457 -0.202370
N3    N     N_R   0.965809 0.548235 0.408166 -0.165231
N4    N     N_R   0.035236 0.496713 0.594196 -0.223154
N5    N     N_R   0.512830 0.519350 0.790130 -0.218283
N6    N     N_R   0.487170 0.480650 0.209870 -0.225447
O1    O     O_R   0.503640 0.354460 0.582000 -0.489483
O2    O     O_R   0.496360 0.645540 0.418000 -0.528581
O3    O     O_R   0.494980 0.341410 0.386200 -0.616372
O4    O     O_R   0.505020 0.658590 0.613800 -0.610029
O5    O     O_R   0.404470 0.506520 0.597930 -0.582807
O6    O     O_R   0.595530 0.493480 0.402070 -0.592162
O7    O     O_R   0.395820 0.493460 0.402130 -0.574360
O8    O     O_R   0.604180 0.506540 0.597870 -0.533829
C37   C     C_2   0.306267 0.675766 0.638799 0.473974
H7    H     H_    0.354805 0.699580 0.606183 0.030918
O9    O     O_2   0.291100 0.715945 0.735595 -0.489670
C38   C     C_2   0.703245 0.351129 0.339849 0.405570
H8    H     H_    0.658593 0.315612 0.373011 0.101989
O10   O     O_2   0.717349 0.320106 0.240034 -0.478333
C39   C     C_2   0.153564 0.695431 0.617658 0.483916
H9    H     H_    0.103413 0.690634 0.654997 0.095628
O11   O     O_2   0.179503 0.781673 0.615489 -0.491048
C40   C     C_2   0.856063 0.372889 0.331928 0.499569
H10   H     H_    0.893751 0.323924 0.366410 0.077976
O12   O     O_2   0.849925 0.370863 0.227563 -0.435759
C41   C     C_2   0.133614 0.328666 0.394689 0.473780
H11   H     H_    0.154561 0.251939 0.394214 0.102764
O13   O     O_2   0.075278 0.334187 0.351499 -0.505681
C42   C     C_2   0.859298 0.681394 0.651125 0.415019
H12   H     H_    0.844190 0.708426 0.738353 0.148770
O14   O     O_2   0.909127 0.725128 0.616949 -0.516206
C43   C     C_2   0.283658 0.332720 0.369940 0.367476
H13   H     H_    0.333852 0.308414 0.398410 0.040771
O15   O     O_2   0.257349 0.288948 0.277331 -0.500023
C44   C     C_2   0.707622 0.665034 0.653510 0.371484
H14   H     H_    0.663346 0.701917 0.618676 0.054101
O16   O     O_2   0.722059 0.684232 0.757387 -0.539304
C45   C     C_2   0.428772 0.800293 0.342875 0.409353
H15   H     H_    0.393050 0.735896 0.349379 0.067694
O17   O     O_2   0.442995 0.817478 0.247280 -0.484488
C46   C     C_2   0.605797 0.173323 0.586975 0.337298
H16   H     H_    0.641939 0.121593 0.620237 0.099579
O18   O     O_2   0.626600 0.262204 0.584206 -0.548199
C47   C     C_2   0.356563 0.990361 0.334033 0.459834
H17   H     H_    0.328098 0.927262 0.362907 0.048714
O19   O     O_2   0.331508 0.027884 0.253208 -0.481203
C48   C     C_2   0.562439 0.041776 0.756810 0.371417
H18   H     H_    0.553544 0.124673 0.777696 0.096673
O20   O     O_2   0.592919 0.999525 0.829202 -0.501544
O21   O     O_3   0.440671 0.365465 0.776610 -0.575007
C49   C     C_3   0.368583 0.382988 0.782675 0.072421
H19   H     H_    0.355525 0.463199 0.769574 0.169944
H20   H     H_    0.349331 0.372139 0.867600 0.147117
C50   C     C_3   0.329201 0.304427 0.690191 -0.734615
H21   H     H_    0.335538 0.224294 0.709454 0.250934
H22   H     H_    0.273092 0.321768 0.687829 0.207002
H23   H     H_    0.349683 0.308071 0.604204 0.224647
O22   O     O_3   0.559783 0.634084 0.223513 -0.551932
C51   C     C_3   0.631802 0.616158 0.217014 0.077565
H24   H     H_    0.650928 0.627260 0.132084 0.148904
H25   H     H_    0.644638 0.535741 0.229557 0.172807
C52   C     C_3   0.671594 0.694140 0.309659 -0.697741
H26   H     H_    0.651537 0.690260 0.395971 0.223323
H27   H     H_    0.727662 0.676493 0.311217 0.215549
H28   H     H_    0.665353 0.774466 0.290948 0.254608

loop_
_geom_bond_atom_site_label_1
_geom_bond_atom_site_label_2
_ccdc_geom_bond_type
C4    C9    A    
C27   C29   A    
O21   C49   S    
C19   C20   A    
C35   N3    A    
C51   H25   S    
C21   O5    A    
C43   H13   S    
C23   C37   S    
Cu1   Cu2   S    
C42   O14   D    
C24   C26   A    
C15   H6    S    
C30   C42   S    
C46   O18   D    
C7    H4    S    
C21   C33   S    
C49   C50   S    
C10   C45   S    
C15   N6    A    
C1    O3    A    
C38   O10   D    
C45   H15   S    
C28   C35   S    
C40   H10   S    
C39   O11   D    
C49   H20   S    
C52   H26   S    
C31   C33   A    
C47   O19   D    
Cu1   O8    S    
N1    N3    A    
C37   H7    S    
C18   O21   S    
C52   H27   S    
C4    C7    A    
C10   C12   A    
C51   H24   S    
C31   C43   S    
C43   O15   D    
C22   C34   S    
N2    N4    A    
C37   O9    D    
C42   H12   S    
C25   C39   S    
C16   N5    A    
C5    C12   A    
C44   O16   D    
C3    C8    A    
C2    O4    A    
C6    C11   A    
C5    C7    A    
C46   H16   S    
C22   O6    A    
C23   C33   A    
C24   C34   A    
C32   C34   A    
C21   O7    A    
C38   H8    S    
C9    C46   S    
C32   C44   S    
Cu2   O7    S    
Cu1   N5    S    
C50   H21   S    
C49   H19   S    
C48   O20   D    
Cu2   O6    S    
C36   N1    A    
C8    H3    S    
C9    C11   A    
C16   H5    S    
C2    O2    A    
Cu1   O4    S    
C45   O17   D    
C13   C15   A    
C52   H28   S    
C14   C16   A    
C41   O13   D    
C24   C38   S    
C13   C20   A    
C50   H22   S    
C14   C19   A    
C44   H14   S    
C17   N6    A    
C22   O8    A    
C6    C8    A    
C11   C12   A    
Cu2   N6    S    
C27   C36   S    
C25   C27   A    
C26   C28   A    
C1    O1    A    
C1    C4    S    
C26   C40   S    
C28   C30   A    
C2    C3    S    
C17   O22   S    
C41   H11   S    
C29   C31   A    
C3    C10   A    
C30   C32   A    
Cu2   O3    S    
Cu1   O1    S    
C48   H18   S    
C17   C19   A    
C36   N4    A    
C18   C20   A    
C6    C48   S    
C23   C25   A    
C13   H1    S    
C14   H2    S    
Cu1   O5    S    
C50   H23   S    
Cu2   O2    S    
C40   O12   D    
C39   H9    S    
O22   C51   S    
C47   H17   S    
C35   N2    A    
C51   C52   S    
C5    C47   S    
C18   N5    A    
C29   C41   S    
