data_mof_unit_20819.cif
_audit_creation_date              2012-12-10T18:19:59-0500
_audit_creation_method            fapswitch 2.2
_symmetry_space_group_name_H-M    P1
_symmetry_Int_Tables_number       1
_space_group_crystal_system       triclinic
_cell_length_a                    10.63525
_cell_length_b                    10.640017
_cell_length_c                    9.449008
_cell_angle_alpha                 90.123976
_cell_angle_beta                  90.993755
_cell_angle_gamma                 89.847134
_cell_volume                      1069.0755458

loop_
_atom_site_label
_atom_site_type_symbol
_atom_type_description
_atom_site_fract_x
_atom_site_fract_y
_atom_site_fract_z
_atom_type_partial_charge
C1    C     C_R   0.500820 0.259642 0.499988 0.843803
C2    C     C_3   0.401572 0.446097 0.046669 0.103939
C3    C     C_R   0.259695 0.503360 0.498971 0.828534
C4    C     C_R   0.740288 0.496321 0.501080 0.832924
C5    C     C_3   0.045365 0.386148 0.517437 0.279152
C6    C     C_3   0.954600 0.613211 0.483103 0.277815
C7    C     C_3   0.957744 0.424261 0.393660 -0.217706
C8    C     C_3   0.042284 0.575018 0.606726 -0.234434
C9    C     C_3   0.877093 0.494617 0.502951 -0.088735
C10   C     C_3   0.122887 0.504729 0.497375 -0.085242
C11   C     C_3   0.963812 0.453459 0.627219 -0.154625
C12   C     C_R   0.498776 0.740276 0.500021 0.847631
C13   C     C_3   0.036105 0.545940 0.373147 -0.134862
C14   C     C_3   0.594582 0.038838 0.581665 0.048589
C15   C     C_3   0.404200 0.960718 0.418396 0.049871
C16   C     C_3   0.608780 0.955990 0.448873 -0.262833
C17   C     C_3   0.390013 0.043726 0.551129 -0.266086
C18   C     C_3   0.497619 0.876907 0.499494 -0.045541
C19   C     C_3   0.501278 0.122862 0.500547 -0.045015
C20   C     C_3   0.018084 0.164531 0.574298 -0.618850
C21   C     C_3   0.980765 0.834605 0.424811 -0.619253
C22   C     C_2   0.700950 0.077969 0.678095 0.793069
C23   C     C_3   0.484456 0.958197 0.633202 -0.177780
C24   C     C_2   0.297538 0.919726 0.323254 0.795335
C25   C     C_2   0.712268 0.619818 0.899556 0.858117
C26   C     C_2   0.286474 0.382572 0.099854 0.854380
C27   C     C_3   0.514268 0.041475 0.366732 -0.179293
C28   C     C_3   0.501965 0.613923 0.051140 -0.102761
C29   C     C_3   0.497993 0.386169 0.948894 -0.099280
C30   C     C_3   0.402601 0.559333 0.947097 -0.079190
C31   C     C_3   0.597549 0.440912 0.052810 -0.069032
C32   C     C_3   0.598382 0.554201 0.953201 0.097191
Cu1   Cu    Cu3+1 0.500030 0.499990 0.643150 0.994552
Cu2   Cu    Cu3+1 0.499970 0.500010 0.356850 0.993299
H1    H     H_    0.921427 0.360408 0.309426 0.165639
H2    H     H_    0.679655 0.391699 0.101499 0.151766
H3    H     H_    0.504541 0.709787 0.097682 0.161575
H4    H     H_    0.495322 0.290291 0.902403 0.162199
H5    H     H_    0.159093 0.239316 0.450598 0.258984
H6    H     H_    0.938180 0.157433 0.497345 0.219931
H7    H     H_    0.982711 0.183055 0.681946 0.247610
H8    H     H_    0.069274 0.073576 0.577049 0.221781
H9    H     H_    0.843216 0.760264 0.553697 0.281149
H10   H     H_    0.929571 0.925568 0.422862 0.221529
H11   H     H_    0.013892 0.815529 0.316301 0.245510
H12   H     H_    0.078826 0.638879 0.690824 0.154498
H13   H     H_    0.062218 0.842024 0.499632 0.222564
H14   H     H_    0.787204 0.218158 0.785790 0.322712
H15   H     H_    0.212037 0.778061 0.217270 0.321113
H16   H     H_    0.901369 0.625677 0.892053 0.333807
H17   H     H_    0.213230 0.236927 0.204626 0.348603
H18   H     H_    0.932574 0.413405 0.729014 0.188786
H19   H     H_    0.067261 0.585713 0.271176 0.188322
H20   H     H_    0.697700 0.917927 0.406515 0.167607
H21   H     H_    0.301119 0.081698 0.593617 0.167739
H22   H     H_    0.472716 0.922359 0.742471 0.172225
H23   H     H_    0.525925 0.077244 0.257427 0.175743
H24   H     H_    0.320579 0.608624 0.898314 0.146569
N1    N     N_3   0.500090 0.499970 0.858290 -0.196162
N2    N     N_3   0.499910 0.500030 0.141710 -0.194963
N3    N     N_2   0.102668 0.263464 0.533944 -0.442412
N4    N     N_2   0.897064 0.735940 0.468107 -0.442610
O1    O     O_R   0.500060 0.316850 0.620870 -0.556981
O2    O     O_R   0.718831 0.204671 0.711364 -0.777345
O3    O     O_2   0.226041 0.998437 0.272976 -0.606329
O4    O     O_R   0.281404 0.792753 0.290216 -0.774769
O5    O     O_2   0.700287 0.715621 0.829510 -0.570484
O6    O     O_R   0.831790 0.572462 0.932558 -0.779012
O7    O     O_2   0.182744 0.427450 0.073852 -0.622578
O8    O     O_R   0.297975 0.271124 0.176497 -0.741113
O9    O     O_R   0.499940 0.683150 0.379130 -0.556150
O10   O     O_R   0.500000 0.316860 0.379090 -0.568204
O11   O     O_R   0.500000 0.683140 0.620910 -0.571245
O12   O     O_R   0.316880 0.499960 0.620870 -0.587269
O13   O     O_R   0.683120 0.500040 0.379130 -0.587251
O14   O     O_R   0.316830 0.499970 0.379090 -0.560160
O15   O     O_R   0.683170 0.500030 0.620910 -0.559137
O16   O     O_2   0.770169 0.997844 0.729772 -0.571470

loop_
_geom_bond_atom_site_label_1
_geom_bond_atom_site_label_2
_ccdc_geom_bond_type
C14   C23   S    
C15   C18   S    
C25   O5    D    
C6    C9    S    
C20   H7    S    
C23   H22   S    
C17   C23   S    
C2    C29   S    
C5    C11   S    
C20   H6    S    
C2    N2    S    
H14   O2    S    
C15   C17   S    
C20   N3    S    
C4    O15   A    
C3    O12   A    
C4    O13   A    
C11   H18   S    
C29   N1    S    
C29   H4    S    
H17   O8    S    
C19   C27   S    
C17   H21   S    
C13   H19   S    
C24   O4    S    
Cu2   O13   S    
C25   C32   S    
Cu1   N1    S    
C12   O11   A    
Cu2   N2    S    
C25   O6    S    
C1    O1    A    
C21   H11   S    
C28   N2    S    
H5    N3    S    
C1    C19   S    
C1    O10   A    
H15   O4    S    
C18   C23   S    
C28   C32   S    
C22   O16   D    
C27   H23   S    
C5    C7    S    
C6    C8    S    
C31   N2    S    
C21   H10   S    
C15   C27   S    
C31   C32   S    
Cu1   O1    S    
C30   N1    S    
Cu1   Cu2   S    
C5    N3    S    
C2    C26   S    
C16   C18   S    
C3    O14   A    
C9    C11   S    
C21   N4    S    
C24   O3    D    
Cu1   O11   S    
C15   C24   S    
C12   O9    A    
C26   O8    S    
C14   C16   S    
Cu2   O10   S    
C7    C9    S    
C7    H1    S    
C14   C19   S    
C10   C13   S    
C20   H8    S    
C32   N1    S    
C6    N4    S    
C2    C30   S    
C14   C22   S    
C28   C30   S    
C5    C10   S    
C29   C31   S    
C3    C10   S    
C6    C13   S    
Cu1   O15   S    
C28   H3    S    
C16   C27   S    
C8    C11   S    
C30   H24   S    
C17   C19   S    
C16   H20   S    
C22   O2    S    
Cu1   O12   S    
C7    C13   S    
C8    C10   S    
C12   C18   S    
C26   O7    D    
C31   H2    S    
C8    H12   S    
C4    C9    S    
H16   O6    S    
Cu2   O9    S    
H9    N4    S    
Cu2   O14   S    
C21   H13   S    
