data_mof_unit_41191.cif
_audit_creation_date              2012-12-10T20:31:58-0500
_audit_creation_method            fapswitch 2.2
_symmetry_space_group_name_H-M    P1
_symmetry_Int_Tables_number       1
_space_group_crystal_system       triclinic
_cell_length_a                    9.853399
_cell_length_b                    10.642828
_cell_length_c                    15.407599
_cell_angle_alpha                 90.775005
_cell_angle_beta                  69.607226
_cell_angle_gamma                 89.742001
_cell_volume                      1514.28628382

loop_
_atom_site_label
_atom_site_type_symbol
_atom_type_description
_atom_site_fract_x
_atom_site_fract_y
_atom_site_fract_z
_atom_type_partial_charge
C1    C     C_R   0.502661 0.739889 0.495002 0.915131
C2    C     C_R   0.741845 0.468844 0.030452 0.189348
C3    C     C_R   0.593472 0.452649 0.081717 0.012399
C4    C     C_R   0.412569 0.482327 0.673680 0.900551
C5    C     C_R   0.839610 0.493439 0.076049 -0.179667
C6    C     C_R   0.790242 0.500180 0.172248 -0.194236
C7    C     C_R   0.541958 0.492070 0.174996 -0.071827
C8    C     C_R   0.381053 0.936874 0.495878 0.038147
C9    C     C_R   0.510333 0.871199 0.478630 -0.213219
C10   C     C_R   0.644519 0.933924 0.445204 0.488273
C11   C     C_R   0.641052 0.065655 0.446369 -0.359146
C12   C     C_R   0.443258 0.380155 0.895597 -0.051653
C13   C     C_R   0.507817 0.128580 0.483033 -0.160134
C14   C     C_R   0.379773 0.064418 0.498831 0.158488
C15   C     C_3   0.241632 0.071772 0.579882 -0.522412
C16   C     C_R   0.501699 0.260046 0.497163 0.881449
C17   C     C_3   0.242295 0.929584 0.576152 -0.392139
C18   C     C_R   0.902737 0.592200 0.546510 0.154600
C19   C     C_R   0.956641 0.415124 0.448183 -0.126084
C20   C     C_R   0.100540 0.415045 0.448259 -0.054268
C21   C     C_R   0.044614 0.590450 0.548696 0.189898
C22   C     C_3   0.987936 0.608098 0.652016 0.257364
C23   C     C_R   0.297298 0.351479 0.949357 0.088242
C24   C     C_3   0.836943 0.618718 0.647214 -0.598859
C25   C     C_R   0.588763 0.503317 0.324065 0.881838
C26   C     C_R   0.368771 0.428747 0.766675 -0.167846
C27   C     C_R   0.640966 0.500289 0.222622 -0.128177
C28   C     C_R   0.192921 0.342199 0.904724 -0.003777
C29   C     C_R   0.225612 0.397147 0.817380 -0.414288
C30   C     C_R   0.477315 0.388540 0.799942 0.419565
C31   C     C_3   0.889928 0.913508 0.429698 0.102843
C32   C     C_3   0.001528 0.969182 0.342984 -0.337129
C33   C     C_3   0.127757 0.027234 0.364414 -0.967937
C34   C     C_R   0.546744 0.405493 0.938984 0.101195
C35   C     C_2   0.404952 0.566968 0.207959 0.397525
C36   C     C_3   0.981722 0.728863 0.778334 0.081787
C37   C     C_3   0.997494 0.862837 0.810376 -0.357151
C38   C     C_3   0.924598 0.878322 0.915074 -0.909129
C39   C     C_2   0.055862 0.270762 0.941410 0.357265
C40   C     C_3   0.605269 0.226410 0.706563 0.119197
C41   C     C_3   0.636868 0.130174 0.770357 -0.368845
C42   C     C_3   0.650844 0.997456 0.729038 -0.970168
C43   C     C_R   0.499666 0.407030 0.036686 0.054185
C44   C     C_R   0.361237 0.360943 0.087267 -0.231919
C45   C     C_R   0.260631 0.336446 0.044930 -0.165419
C46   C     C_R   0.692011 0.439535 0.889481 -0.209756
C47   C     C_R   0.788777 0.465404 0.934468 -0.304369
H1    H     H_    0.152213 0.313935 0.089394 0.205409
H2    H     H_    0.006985 0.523027 0.687990 0.076862
H3    H     H_    0.764012 0.543465 0.684106 0.231616
H4    H     H_    0.788925 0.714910 0.661420 0.219154
H5    H     H_    0.868322 0.510597 0.206843 0.179520
H6    H     H_    0.899945 0.486844 0.893826 0.122438
H7    H     H_    0.143208 0.405496 0.786042 0.162719
H8    H     H_    0.328746 0.344844 0.160744 0.198487
H9    H     H_    0.736173 0.447624 0.815988 0.196813
H10   H     H_    0.942482 0.834242 0.452456 0.165888
H11   H     H_    0.857636 0.982326 0.488712 0.106199
H12   H     H_    0.954137 0.503957 0.037661 0.141053
H13   H     H_    0.043677 0.893716 0.289565 0.240386
H14   H     H_    0.950084 0.042369 0.313731 0.223672
H15   H     H_    0.088183 0.103412 0.417402 0.250492
H16   H     H_    0.205678 0.067817 0.300521 0.273434
H17   H     H_    0.184758 0.954278 0.389948 0.276478
H18   H     H_    0.401427 0.657291 0.176967 0.062484
H19   H     H_    0.046088 0.663964 0.805304 0.140987
H20   H     H_    0.864999 0.703283 0.808107 0.151575
H21   H     H_    0.114019 0.885350 0.791533 0.217473
H22   H     H_    0.947565 0.930231 0.775515 0.237985
H23   H     H_    0.739979 0.119014 0.422688 0.168953
H24   H     H_    0.806630 0.860401 0.935867 0.259610
H25   H     H_    0.939827 0.975819 0.936277 0.295221
H26   H     H_    0.973120 0.812017 0.951425 0.265407
H27   H     H_    0.979225 0.273355 0.905293 0.082538
H28   H     H_    0.690649 0.216946 0.637024 0.179179
H29   H     H_    0.500422 0.205147 0.697058 0.111982
H30   H     H_    0.739380 0.154798 0.781235 0.230511
H31   H     H_    0.547791 0.132070 0.838660 0.228969
H32   H     H_    0.550140 0.971194 0.716491 0.264835
H33   H     H_    0.669695 0.929550 0.777853 0.270692
H34   H     H_    0.256301 0.111035 0.643300 0.194072
H35   H     H_    0.743816 0.991455 0.662701 0.256348
H36   H     H_    0.151941 0.114805 0.562067 0.206757
H37   H     H_    0.153351 0.890482 0.555571 0.235706
H38   H     H_    0.257946 0.885581 0.636919 0.214023
H39   H     H_    0.924636 0.345146 0.407667 0.141787
H40   H     H_    0.177389 0.345184 0.407604 0.164248
N1    N     N_R   0.856900 0.500860 0.500610 -0.092159
N2    N     N_R   0.142540 0.500820 0.500610 -0.130670
O1    O     O_R   0.385310 0.683210 0.499990 -0.601784
O2    O     O_2   0.294987 0.527179 0.265730 -0.576854
O3    O     O_3   0.033392 0.722138 0.680407 -0.628672
O4    O     O_2   0.030731 0.201219 0.007346 -0.589780
O5    O     O_3   0.611998 0.350476 0.739162 -0.677783
O6    O     O_R   0.614650 0.683240 0.500000 -0.572031
O7    O     O_R   0.319830 0.499970 0.632240 -0.621175
O8    O     O_R   0.549170 0.500000 0.632250 -0.579459
O9    O     O_R   0.385350 0.316760 0.500000 -0.624269
O10   O     O_R   0.614690 0.316790 0.500010 -0.640864
O11   O     O_R   0.450830 0.500000 0.367750 -0.563272
O12   O     O_R   0.680170 0.500030 0.367760 -0.613282
O13   O     O_3   0.772385 0.864016 0.407655 -0.622658
Zn1   Zn    Zn3+2 0.346870 0.499980 0.499990 0.979215
Zn2   Zn    Zn3+2 0.653130 0.500020 0.500010 0.973801

loop_
_geom_bond_atom_site_label_1
_geom_bond_atom_site_label_2
_ccdc_geom_bond_type
C20   H40   S    
C42   H33   S    
C1    O1    A    
C23   C45   A    
C37   H22   S    
C18   C21   A    
C41   C42   S    
C19   C20   A    
C42   H35   S    
C19   H39   S    
C16   O9    A    
C11   H23   S    
C15   H34   S    
C21   N2    A    
C44   C45   A    
C12   C23   A    
C3    C43   A    
C17   H38   S    
C31   H11   S    
C21   C22   S    
C36   C37   S    
C32   H14   S    
C3    C7    A    
C41   H30   S    
C5    C6    A    
C36   H19   S    
C29   H7    S    
C35   H18   S    
O9    Zn1   S    
C37   H21   S    
C7    C27   A    
C39   H27   S    
C39   O4    D    
C46   C47   A    
C31   C32   S    
C33   H15   S    
C34   C46   A    
C9    C10   A    
C33   H16   S    
C47   H6    S    
C36   O3    S    
C24   H4    S    
O10   Zn2   S    
C42   H32   S    
C4    O7    A    
C4    O8    A    
N2    Zn1   S    
N1    Zn2   S    
C24   H3    S    
C38   H25   S    
C36   H20   S    
C5    H12   S    
C31   O13   S    
C10   O13   S    
C1    C9    S    
C19   N1    A    
C41   H31   S    
C8    C9    A    
C15   H36   S    
C28   C39   S    
O11   Zn1   S    
C18   N1    A    
C40   H29   S    
C43   C44   A    
C37   C38   S    
C25   O11   A    
C6    C27   A    
C1    O6    A    
C23   C28   A    
C22   H2    S    
C40   C41   S    
C26   C30   A    
O12   Zn2   S    
C18   C24   S    
C13   C16   S    
C2    C5    A    
C32   H13   S    
C12   C34   A    
O6    Zn2   S    
C45   H1    S    
C15   C17   S    
C38   H24   S    
C28   C29   A    
C8    C14   A    
C12   C30   A    
C7    C35   S    
C34   C43   A    
C40   O5    S    
C4    C26   S    
C16   O10   A    
C2    C47   A    
C25   C27   S    
C20   N2    A    
C8    C17   S    
C40   H28   S    
C17   H37   S    
C32   C33   S    
C31   H10   S    
C2    C3    A    
C30   O5    S    
C11   C13   A    
C44   H8    S    
C25   O12   A    
C33   H17   S    
C22   C24   S    
O1    Zn1   S    
O8    Zn2   S    
C10   C11   A    
C26   C29   A    
O7    Zn1   S    
C46   H9    S    
C22   O3    S    
C14   C15   S    
C6    H5    S    
C13   C14   A    
C38   H26   S    
C35   O2    D    
