data_mof_unit_13997.cif
_audit_creation_date              2013-03-05T16:12:46-0500
_audit_creation_method            fapswitch 2.2
_symmetry_space_group_name_H-M    P1
_symmetry_Int_Tables_number       1
_space_group_crystal_system       triclinic
_cell_length_a                    10.707268
_cell_length_b                    9.821998
_cell_length_c                    27.636432
_cell_angle_alpha                 90.005249
_cell_angle_beta                  90.085531
_cell_angle_gamma                 90.011554
_cell_volume                      2906.43083652

loop_
_atom_site_label
_atom_site_type_symbol
_atom_site_description
_atom_site_fract_x
_atom_site_fract_y
_atom_site_fract_z
_atom_type_partial_charge
O1    O     O_R   0.316770 0.614620 0.500000 -0.625720
O2    O     O_R   0.683230 0.385380 0.500000 -0.625836
O3    O     O_R   0.683230 0.614620 0.500000 -0.627044
O4    O     O_R   0.316770 0.385380 0.500000 -0.627142
C1    C     C_R   0.259831 0.499989 0.499969 0.876888
C2    C     C_R   0.740169 0.500012 0.500030 0.876878
O5    O     O_R   0.500030 0.614650 0.428760 -0.623291
O6    O     O_R   0.499970 0.385350 0.571240 -0.622416
O7    O     O_R   0.499970 0.614650 0.571240 -0.620964
O8    O     O_R   0.500030 0.385350 0.428760 -0.620090
C3    C     C_R   0.499557 0.500131 0.405875 0.877713
C4    C     C_R   0.500440 0.500140 0.594125 0.877699
Zn1   Zn    Zn3+2 0.500000 0.653120 0.500000 0.953964
Zn2   Zn    Zn3+2 0.500000 0.346880 0.500000 0.954175
C5    C     C_R   0.383953 0.542267 0.177027 0.518034
C6    C     C_R   0.616017 0.542293 0.822976 0.518002
O9    O     O_2   0.276882 0.556712 0.202241 -0.545957
O10   O     O_2   0.723098 0.556716 0.797765 -0.545901
N1    N     N_R   0.492669 0.512299 0.200682 -0.360940
N2    N     N_R   0.507287 0.512353 0.799318 -0.360946
C7    C     C_R   0.602928 0.495813 0.176591 0.512883
C8    C     C_R   0.397017 0.495892 0.823407 0.512921
C9    C     C_R   0.503323 0.382802 0.276262 -0.092878
C10   C     C_R   0.496587 0.382843 0.723733 -0.092768
C11   C     C_R   0.505331 0.379680 0.326616 -0.213340
C12   C     C_R   0.494593 0.379710 0.673379 -0.215131
C13   C     C_R   0.486618 0.626253 0.328422 -0.210287
C14   C     C_R   0.513413 0.626284 0.671583 -0.208397
C15   C     C_R   0.484249 0.628937 0.278261 -0.102235
C16   C     C_R   0.515770 0.628978 0.721744 -0.102332
C17   C     C_R   0.492719 0.507506 0.252190 0.315803
C18   C     C_R   0.507240 0.507552 0.747810 0.315798
C19   C     C_R   0.496428 0.544202 0.101239 -0.053311
C20   C     C_R   0.503541 0.544238 0.898764 -0.053314
C21   C     C_R   0.383618 0.558500 0.126730 -0.014007
C22   C     C_R   0.616360 0.558515 0.873275 -0.014012
C23   C     C_R   0.274527 0.594537 0.101935 -0.222491
C24   C     C_R   0.725471 0.594519 0.898074 -0.222492
C25   C     C_R   0.607103 0.511782 0.126347 -0.021949
C26   C     C_R   0.392848 0.511853 0.873652 -0.021946
C27   C     C_R   0.497319 0.501630 0.352993 -0.044142
C28   C     C_R   0.502667 0.501655 0.647007 -0.044147
H1    H     H_    0.479957 0.721720 0.347867 0.161467
H2    H     H_    0.520122 0.721746 0.652141 0.161698
H3    H     H_    0.476538 0.725393 0.259504 0.140535
H4    H     H_    0.523520 0.725437 0.740506 0.140538
H5    H     H_    0.189593 0.615685 0.121903 0.189225
H6    H     H_    0.810417 0.615652 0.878109 0.189238
C29   C     C_R   0.386226 0.554990 0.974494 0.079047
C30   C     C_R   0.613748 0.554952 0.025510 0.079044
C31   C     C_R   0.615278 0.578196 0.974958 0.037260
C32   C     C_R   0.384709 0.578214 0.025048 0.037265
C33   C     C_R   0.501596 0.560422 0.949442 0.040447
C34   C     C_R   0.498381 0.560402 0.050563 0.040450
C35   C     C_R   0.278222 0.515041 0.948917 -0.131903
C36   C     C_R   0.721729 0.514966 0.051083 -0.131912
C37   C     C_R   0.281222 0.495140 0.899186 -0.130073
C38   C     C_R   0.718718 0.495048 0.100811 -0.130071
O11   O     O_2   0.291678 0.466346 0.798643 -0.545113
O12   O     O_2   0.708250 0.466238 0.201352 -0.545076
C39   C     C_R   0.274625 0.610259 0.051695 -0.039719
C40   C     C_R   0.725381 0.610223 0.948315 -0.039705
H7    H     H_    0.486265 0.282444 0.655193 0.161717
H8    H     H_    0.513619 0.282418 0.344798 0.161997
H9    H     H_    0.489798 0.288883 0.744055 0.142501
H10   H     H_    0.510065 0.288839 0.255937 0.142523
H11   H     H_    0.195778 0.465833 0.880903 0.190304
H12   H     H_    0.804145 0.465714 0.119091 0.190318
H13   H     H_    0.191373 0.493393 0.967234 0.137681
H14   H     H_    0.808565 0.493302 0.032763 0.137690
C41   C     C_R   0.063957 0.378898 0.509850 -0.185123
C42   C     C_R   0.936043 0.621104 0.490149 -0.184923
C43   C     C_R   0.936074 0.378929 0.509903 -0.183741
C44   C     C_R   0.063927 0.621071 0.490094 -0.183581
H15   H     H_    0.112724 0.284859 0.517838 0.159098
H16   H     H_    0.887276 0.715143 0.482161 0.159211
H17   H     H_    0.887332 0.284916 0.517935 0.154858
H18   H     H_    0.112669 0.715085 0.482061 0.154840
C45   C     C_R   0.872572 0.500026 0.500040 -0.015218
C46   C     C_R   0.127429 0.499975 0.499958 -0.015138
C47   C     C_R   0.577900 0.072043 0.530021 -0.073034
C48   C     C_R   0.422106 0.927953 0.469976 -0.073257
C49   C     C_R   0.422104 0.071989 0.469978 -0.073208
C50   C     C_R   0.577890 0.928008 0.530024 -0.073460
H19   H     H_    0.640120 0.126788 0.553993 0.126560
H20   H     H_    0.359899 0.873204 0.445999 0.125265
H21   H     H_    0.359895 0.126689 0.446002 0.130133
H22   H     H_    0.640086 0.873303 0.554006 0.128843
N3    N     N_R   0.500000 0.857200 0.500000 -0.080585
N4    N     N_R   0.500000 0.142800 0.500000 -0.081007
C51   C     C_2   0.163527 0.677790 0.030309 0.374537
H23   H     H_    0.073126 0.668005 0.047715 0.091945
O13   O     O_2   0.172924 0.750944 0.994773 -0.536064
C52   C     C_2   0.836517 0.677721 0.969709 0.374539
H24   H     H_    0.926913 0.667921 0.952303 0.091896
O14   O     O_2   0.827161 0.750864 0.005254 -0.536089

loop_
_geom_bond_atom_site_label_1
_geom_bond_atom_site_label_2
_geom_bond_distance
_ccdc_geom_bond_type
C49   H21   1.081802 S    
C13   C15   1.386710 A    
C42   H16   1.083694 S    
O3    C2    1.280287 A    
N1    C17   1.424268 S    
O5    C3    1.290378 A    
C30   C34   1.418003 A    
C48   N3    1.365757 A    
O1    C1    1.280265 A    
C9    H10   1.082848 S    
C21   C23   1.398942 A    
C10   C12   1.392080 A    
C42   C45   1.396831 A    
C32   C39   1.425975 A    
O7    Zn1   2.004782 S    
Zn2   N4    2.004473 S    
C4    C28   1.461684 S    
C23   H5    1.084552 S    
C24   H6    1.084552 S    
O3    Zn1   1.998078 S    
O6    C4    1.292709 A    
Zn1   N3    2.004473 S    
C44   C46   1.396835 A    
O2    C2    1.280269 A    
C31   C40   1.425974 A    
C37   H11   1.083348 S    
C5    C21   1.399162 A    
C41   C46   1.396829 A    
C32   C34   1.416597 A    
C16   C18   1.396422 A    
C7    O12   1.349918 S    
C42   C44   1.369288 A    
O8    Zn2   2.004787 S    
C11   C27   1.404830 A    
C8    O11   1.349917 S    
C41   C43   1.369285 A    
C48   H20   1.081851 S    
C25   C38   1.398534 A    
C14   H2    1.083139 S    
C30   C36   1.410059 A    
C15   H3    1.083080 S    
C31   C33   1.416594 A    
C11   H8    1.083041 S    
C9    C17   1.398454 A    
C5    N1    1.366353 A    
C12   H7    1.083048 S    
C10   C18   1.398460 A    
C51   O13   1.221190 D    
C13   C27   1.404469 A    
C7    C25   1.398179 A    
C6    N2    1.366351 A    
C29   C32   1.415730 A    
C8    C26   1.398180 A    
C30   C31   1.415731 A    
C43   C45   1.396832 A    
C35   C37   1.388601 A    
C19   C25   1.408879 A    
C1    C46   1.417662 S    
C52   O14   1.221191 D    
C35   H13   1.080537 S    
C10   H9    1.082854 S    
C47   N4    1.365767 A    
C38   H12   1.083348 S    
N2    C8    1.365899 A    
C36   H14   1.080538 S    
C40   C52   1.484118 S    
C20   C26   1.408880 A    
O1    Zn1   1.997929 S    
C50   N3    1.365770 A    
C51   H23   1.085775 S    
C47   C50   1.414718 A    
C12   C28   1.404841 A    
N2    C18   1.424268 S    
C19   C34   1.409693 A    
C5    O9    1.349974 S    
C49   N4    1.365785 A    
O6    Zn2   2.004714 S    
C26   C37   1.398535 A    
N1    C7    1.365900 A    
C16   H4    1.083088 S    
C50   H22   1.081819 S    
O4    C1    1.280290 A    
C23   C39   1.397022 A    
C22   C24   1.398942 A    
C14   C16   1.386713 A    
C15   C17   1.396414 A    
C29   C35   1.410060 A    
C6    C22   1.399160 A    
C41   H15   1.083695 S    
C2    C45   1.417664 S    
C29   C33   1.418005 A    
C14   C28   1.404475 A    
C19   C21   1.406273 A    
C36   C38   1.388600 A    
C3    C27   1.461690 S    
C20   C22   1.406273 A    
C9    C11   1.392082 A    
O4    Zn2   1.998078 S    
C52   H24   1.085775 S    
O2    Zn2   1.997929 S    
O7    C4    1.290404 A    
O8    C3    1.292732 A    
C13   H1    1.083133 S    
O5    Zn1   2.004719 S    
C20   C33   1.409694 A    
C6    O10   1.349976 S    
C48   C49   1.414717 A    
C44   H18   1.083748 S    
C43   H17   1.083747 S    
C47   H19   1.081834 S    
C39   C51   1.484117 S    
C24   C40   1.397022 A    
