data_mof_unit_53542.cif
_audit_creation_date              2012-12-10T17:43:35-0500
_audit_creation_method            fapswitch 2.2
_symmetry_space_group_name_H-M    P1
_symmetry_Int_Tables_number       1
_space_group_crystal_system       triclinic
_cell_length_a                    14.929713
_cell_length_b                    10.69561
_cell_length_c                    9.969031
_cell_angle_alpha                 93.428284
_cell_angle_beta                  90.957752
_cell_angle_gamma                 94.010809
_cell_volume                      1584.78904074

loop_
_atom_site_label
_atom_site_type_symbol
_atom_type_description
_atom_site_fract_x
_atom_site_fract_y
_atom_site_fract_z
_atom_type_partial_charge
C1    C     C_R   0.506156 0.261354 0.496555 0.845347
C2    C     C_R   0.910369 0.603742 0.583041 0.042835
C3    C     C_R   0.942484 0.324908 0.348080 -0.208294
C4    C     C_R   0.035444 0.322724 0.348755 0.201089
C5    C     C_R   0.087759 0.417320 0.426219 0.116286
C6    C     C_R   0.046631 0.513013 0.502203 -0.023750
C7    C     C_R   0.098972 0.609495 0.577211 0.078649
C8    C     C_R   0.055903 0.700711 0.654876 -0.184373
C9    C     C_R   0.962387 0.699709 0.658838 -0.038627
C10   C     C_R   0.180377 0.417690 0.430601 -0.313074
C11   C     C_R   0.232217 0.513952 0.499633 -0.031825
C12   C     C_R   0.327458 0.504352 0.499624 0.860189
C13   C     C_R   0.193339 0.612974 0.571844 0.173799
C14   C     C_R   0.619014 0.147222 0.685773 -0.130365
C15   C     C_R   0.636779 0.107878 0.814054 0.160281
C16   C     C_R   0.594650 0.993652 0.851622 0.051476
C17   C     C_R   0.546908 0.914063 0.753080 -0.235787
C18   C     C_R   0.533606 0.951308 0.620637 0.009847
C19   C     C_R   0.558466 0.075695 0.596336 0.047327
C20   C     C_R   0.515112 0.129247 0.490072 -0.146537
C21   C     C_R   0.460569 0.056980 0.396765 -0.219482
C22   C     C_R   0.447451 0.929275 0.406349 0.183678
C23   C     C_R   0.496472 0.740287 0.504500 0.868076
C24   C     C_R   0.488941 0.874490 0.514634 -0.126651
C25   C     C_R   0.418572 0.290892 0.120375 0.201266
C26   C     C_R   0.419064 0.177820 0.041916 -0.227008
C27   C     C_R   0.406128 0.180688 0.903357 0.116005
C28   C     C_R   0.406361 0.299197 0.848682 0.036338
C29   C     C_R   0.452549 0.403651 0.920943 0.075978
C30   C     C_R   0.456108 0.400919 0.064386 0.103492
C31   C     C_R   0.549709 0.587042 0.079266 -0.018139
C32   C     C_R   0.554100 0.583359 0.936293 0.027277
C33   C     C_R   0.672637 0.501025 0.501135 0.863893
C34   C     C_R   0.816692 0.595059 0.585143 -0.253479
C35   C     C_R   0.767877 0.503659 0.503741 -0.036921
C36   C     C_R   0.809106 0.415963 0.423060 -0.235153
C37   C     C_R   0.901580 0.417266 0.424531 0.086494
C38   C     C_R   0.953025 0.511639 0.503348 0.072956
H1    H     H_    0.779925 0.658877 0.647372 0.132042
H2    H     H_    0.647841 0.237889 0.658909 0.155914
H3    H     H_    0.511842 0.830622 0.786282 0.201270
H4    H     H_    0.590541 0.657104 0.140199 0.204121
H5    H     H_    0.401174 0.090376 0.087687 0.183186
H6    H     H_    0.768760 0.345138 0.361662 0.142096
H7    H     H_    0.901523 0.253628 0.288407 0.154183
H8    H     H_    0.213185 0.341145 0.382715 0.157851
H9    H     H_    0.094796 0.774621 0.713099 0.199240
H10   H     H_    0.424821 0.100984 0.319677 0.160908
N1    N     N_R   0.499150 0.498800 0.142780 -0.141598
N2    N     N_R   0.499120 0.498720 0.857170 -0.164921
O1    O     O_R   0.500000 0.316780 0.614690 -0.638390
O2    O     O_R   0.499990 0.316750 0.385360 -0.616019
O3    O     O_R   0.367850 0.499980 0.614680 -0.584781
O4    O     O_R   0.367840 0.499960 0.385350 -0.626686
O5    O     O_R   0.500010 0.683250 0.614640 -0.670425
O6    O     O_R   0.500000 0.683220 0.385310 -0.597430
O7    O     O_R   0.632160 0.500040 0.614650 -0.654462
O8    O     O_R   0.632150 0.500020 0.385320 -0.606758
Zn1   Zn    Zn3+2 0.500010 0.500020 0.653130 0.934247
Zn2   Zn    Zn3+2 0.499990 0.499980 0.346870 0.950426
C39   C     C_3   0.693238 0.194108 0.912135 -0.933011
H11   H     H_    0.720545 0.279944 0.865098 0.260021
H12   H     H_    0.651857 0.224180 0.998210 0.235891
H13   H     H_    0.750844 0.144664 0.949240 0.248189
C40   C     C_2   0.595433 0.960524 0.994190 0.439354
H14   H     H_    0.644018 0.006746 0.066121 0.087852
O9    O     O_2   0.539755 0.883164 0.034244 -0.622611
C41   C     C_3   0.382893 0.856133 0.306990 -0.804849
H15   H     H_    0.340064 0.785668 0.358789 0.227402
H16   H     H_    0.337097 0.918574 0.258876 0.215143
H17   H     H_    0.420411 0.808543 0.226031 0.292518
C42   C     C_3   0.335173 0.298301 0.201764 -0.820028
H18   H     H_    0.304922 0.388875 0.189209 0.262700
H19   H     H_    0.282039 0.225192 0.166012 0.207553
H20   H     H_    0.348477 0.281554 0.308019 0.238503
C43   C     C_3   0.364221 0.064097 0.827935 -0.908074
H21   H     H_    0.387574 0.978128 0.870277 0.271878
H22   H     H_    0.290025 0.061455 0.835812 0.243889
H23   H     H_    0.381803 0.063470 0.720296 0.240799
C44   C     C_2   0.326493 0.317149 0.765634 0.519892
H24   H     H_    0.311926 0.259111 0.673717 0.029127
O10   O     O_2   0.272917 0.392190 0.803970 -0.566517
C45   C     C_2   0.625166 0.663036 0.875031 0.408123
H25   H     H_    0.624280 0.676558 0.769130 0.120527
O11   O     O_2   0.687920 0.713472 0.942972 -0.596398
C46   C     C_3   0.076661 0.220478 0.264413 -0.892349
H26   H     H_    0.120724 0.263171 0.188382 0.250909
H27   H     H_    0.116279 0.163100 0.329491 0.235823
H28   H     H_    0.024892 0.156161 0.209758 0.254434
C47   C     C_3   0.251030 0.722517 0.639420 -0.890814
H29   H     H_    0.323035 0.721396 0.616360 0.242251
H30   H     H_    0.229441 0.812350 0.603812 0.224289
H31   H     H_    0.244656 0.722234 0.750204 0.265878
C48   C     C_2   0.921975 0.802528 0.739674 0.437290
H32   H     H_    0.853949 0.826759 0.720717 0.067537
O12   O     O_2   0.965533 0.864029 0.828575 -0.560253

loop_
_geom_bond_atom_site_label_1
_geom_bond_atom_site_label_2
_ccdc_geom_bond_type
C33   O8    A    
C31   H4    S    
O5    Zn1   S    
C13   C47   S    
C19   C20   A    
C43   H23   S    
O3    Zn1   S    
C23   O6    A    
O4    Zn2   S    
C26   C27   A    
C37   C38   A    
N1    Zn2   S    
C18   C24   A    
N2    Zn1   S    
C36   C37   A    
C43   H22   S    
C18   C19   A    
C5    C6    A    
C44   H24   S    
C46   H27   S    
O7    Zn1   S    
C4    C46   S    
O8    Zn2   S    
C15   C16   A    
C34   C35   A    
C39   H12   S    
O2    Zn2   S    
C45   H25   S    
C8    C9    A    
C40   O9    D    
C10   H8    S    
C23   C24   S    
C6    C38   A    
C12   O3    A    
C21   H10   S    
C2    C34   A    
C21   C22   A    
C48   H32   S    
C31   N1    A    
C42   H20   S    
C26   H5    S    
C29   N2    A    
C34   H1    S    
C7    C8    A    
C43   H21   S    
C44   O10   D    
C46   H26   S    
C41   H15   S    
C25   C26   A    
C3    H7    S    
O6    Zn2   S    
C35   C36   A    
C39   H13   S    
C29   C30   A    
C2    C38   A    
C47   H30   S    
C31   C32   A    
C7    C13   A    
C22   C41   S    
C17   C18   A    
C15   C39   S    
C25   C42   S    
C48   O12   D    
C1    O1    A    
C32   N2    A    
C42   H19   S    
C45   O11   D    
C30   N1    A    
C22   C24   A    
C36   H6    S    
O1    Zn1   S    
C27   C43   S    
C47   H31   S    
C25   C30   A    
C32   C45   S    
C28   C29   A    
C1    C20   S    
C33   O7    A    
C14   C19   A    
C42   H18   S    
C46   H28   S    
C11   C12   S    
C23   O5    A    
C6    C7    A    
C8    H9    S    
C5    C10   A    
C11   C13   A    
C47   H29   S    
C16   C17   A    
C41   H17   S    
C33   C35   S    
C39   H11   S    
C28   C44   S    
C1    O2    A    
C17   H3    S    
C10   C11   A    
C14   H2    S    
C4    C5    A    
C20   C21   A    
C3    C37   A    
C41   H16   S    
C40   H14   S    
C27   C28   A    
C14   C15   A    
C16   C40   S    
C2    C9    A    
C9    C48   S    
C12   O4    A    
C3    C4    A    
