data_mof_unit_7497.cif
_audit_creation_date              2012-12-10T20:57:54-0500
_audit_creation_method            fapswitch 2.2
_symmetry_space_group_name_H-M    P1
_symmetry_Int_Tables_number       1
_space_group_crystal_system       triclinic
_cell_length_a                    18.199177
_cell_length_b                    18.262117
_cell_length_c                    18.407353
_cell_angle_alpha                 120.271795
_cell_angle_beta                  90.030095
_cell_angle_gamma                 119.973174
_cell_volume                      4308.68067174

loop_
_atom_site_label
_atom_site_type_symbol
_atom_type_description
_atom_site_fract_x
_atom_site_fract_y
_atom_site_fract_z
_atom_type_partial_charge
C1    C     C_R   0.360218 0.220190 0.360571 0.783470
C2    C     C_3   0.800404 0.941558 0.719204 -0.399467
C3    C     C_3   0.698942 0.897451 0.698926 0.210434
C4    C     C_R   0.641054 0.780983 0.639951 0.733451
C5    C     C_3   0.799429 0.102436 0.802999 0.207774
C6    C     C_3   0.740169 0.058437 0.850218 -0.403334
C7    C     C_3   0.859047 0.061123 0.779479 -0.375220
C8    C     C_3   0.638485 0.420081 0.201003 -0.389985
C9    C     C_3   0.697778 0.419942 0.141857 -0.374915
C10   C     C_3   0.757944 0.609326 0.320593 -0.418692
C11   C     C_3   0.758911 0.471126 0.319506 -0.404795
C12   C     C_3   0.274805 0.576331 0.360517 -0.386610
C13   C     C_3   0.697771 0.500177 0.301382 0.175351
C14   C     C_3   0.799181 0.500366 0.199998 0.159366
C15   C     C_3   0.819432 0.610538 0.262398 -0.005031
C16   C     C_R   0.359358 0.500695 0.640826 0.787460
C17   C     C_3   0.817999 0.470162 0.259286 -0.468168
C18   C     C_R   0.564234 0.223123 0.478486 -0.127563
C19   C     C_R   0.489507 0.172402 0.406818 -0.138940
C20   C     C_R   0.402038 0.104958 0.401547 0.138217
C21   C     C_R   0.390957 0.087848 0.468371 -0.140338
C22   C     C_R   0.465966 0.138658 0.539888 -0.145721
C23   C     C_3   0.299716 0.500270 0.302242 0.205625
C24   C     C_R   0.552472 0.206246 0.544932 -0.099749
C25   C     C_R   0.263840 0.944579 0.273101 -0.255006
C26   C     C_R   0.191728 0.892203 0.198014 -0.037722
C27   C     C_R   0.175165 0.947441 0.175888 0.002717
C28   C     C_R   0.640654 0.500117 0.359233 0.756538
C29   C     C_R   0.233648 0.055405 0.229153 -0.252817
C30   C     C_R   0.305798 0.107777 0.304215 -0.039085
C31   C     C_R   0.322313 0.052522 0.326347 0.000389
C32   C     C_R   0.106549 0.912364 0.033977 -0.140532
C33   C     C_R   0.031581 0.861549 0.962413 -0.142415
C34   C     C_3   0.197565 0.500094 0.200830 0.210289
C35   C     C_R   0.945080 0.793653 0.957137 -0.112195
C36   C     C_R   0.933282 0.776502 0.023429 -0.112470
C37   C     C_R   0.007977 0.827239 0.095148 -0.122262
C38   C     C_R   0.095450 0.894971 0.100634 0.125320
C39   C     C_R   0.897053 0.563832 0.534202 -0.221314
C40   C     C_R   0.641970 0.499732 0.639567 0.801017
C41   C     C_R   0.847307 0.522005 0.577220 -0.169741
C42   C     C_R   0.836253 0.584145 0.654875 0.110645
C43   C     C_R   0.875895 0.688752 0.689483 -0.106187
C44   C     C_R   0.924905 0.730618 0.645717 0.284563
C45   C     C_3   0.151074 0.389772 0.178535 -0.399484
C46   C     C_R   0.935369 0.667547 0.567881 -0.121412
C47   C     C_R   0.838962 0.539722 0.758931 -0.258923
C48   C     C_R   0.799327 0.498461 0.805957 -0.056280
C49   C     C_R   0.707881 0.457361 0.797613 -0.033036
C50   C     C_R   0.658792 0.460207 0.743197 -0.261305
C51   C     C_R   0.698405 0.501393 0.696115 -0.051224
C52   C     C_R   0.357851 0.500065 0.359387 0.742846
C53   C     C_R   0.789694 0.541881 0.704000 -0.018191
C54   C     C_R   0.621803 0.306511 0.806913 -0.092232
C55   C     C_R   0.572037 0.261537 0.848085 -0.130027
C56   C     C_3   0.215193 0.576312 0.301316 -0.388958
C57   C     C_R   0.559262 0.320646 0.925609 -0.138081
C58   C     C_R   0.596830 0.425050 0.962469 -0.132155
C59   C     C_R   0.647541 0.470658 0.922103 -0.133385
C60   C     C_R   0.660403 0.411604 0.844192 0.147667
C61   C     C_R   0.397493 0.806480 0.725083 -0.130665
C62   C     C_R   0.376445 0.739431 0.750068 -0.115117
C63   C     C_R   0.295432 0.639340 0.700078 0.155975
C64   C     C_3   0.349752 0.534621 0.245453 -0.398467
C65   C     C_R   0.235327 0.607586 0.625732 -0.137122
C66   C     C_R   0.256582 0.674959 0.601109 -0.138193
C67   C     C_3   0.678062 0.939969 0.653180 -0.395740
C68   C     C_R   0.337733 0.774166 0.650535 -0.102354
C69   C     C_R   0.219861 0.564586 0.778794 -0.256837
C70   C     C_R   0.195215 0.498386 0.805419 -0.056549
C71   C     C_R   0.225027 0.433104 0.777553 -0.015214
C72   C     C_R   0.278556 0.436073 0.724113 -0.254823
C73   C     C_R   0.303271 0.502349 0.697553 -0.057242
C74   C     C_R   0.273434 0.567603 0.725407 -0.015188
C75   C     C_R   0.255040 0.394119 0.881778 -0.119462
C76   C     C_3   0.289732 0.534683 0.185943 -0.398568
C77   C     C_R   0.232324 0.325096 0.904787 -0.129270
C78   C     C_3   0.736867 0.060342 0.714425 -0.398802
C79   C     C_R   0.156761 0.222030 0.847972 -0.100496
C80   C     C_R   0.104032 0.187630 0.767810 -0.139478
C81   C     C_R   0.126417 0.256400 0.744579 -0.133072
C82   C     C_R   0.201829 0.360152 0.801712 0.155745
C83   C     C_R   0.856932 0.499747 0.142779 0.793629
C84   C     C_R   0.138544 0.499469 0.861556 0.786243
C85   C     C_R   0.856829 0.218991 0.862129 0.729088
C86   C     C_R   0.137436 0.779807 0.141648 0.786797
C87   C     C_R   0.855774 0.500187 0.862565 0.807837
C88   C     C_3   0.211066 0.389897 0.238256 -0.396349
C89   C     C_3   0.681119 0.938045 0.789090 -0.394902
C90   C     C_R   0.139659 0.499885 0.143020 0.738047
C91   C     C_3   0.965986 0.842162 0.682823 -0.990937
H1    H     H_    0.368005 0.481054 0.202392 0.174226
H2    H     H_    0.695998 0.085834 0.867246 0.171389
H3    H     H_    0.817646 0.913448 0.753231 0.171648
H4    H     H_    0.413544 0.613876 0.290048 0.152687
H5    H     H_    0.815672 0.913926 0.655832 0.172652
H6    H     H_    0.901596 0.090495 0.744414 0.172528
H7    H     H_    0.905124 0.089879 0.841591 0.174539
H8    H     H_    0.696111 0.908999 0.823453 0.149760
H9    H     H_    0.783712 0.087322 0.913908 0.149567
H10   H     H_    0.594138 0.439372 0.185609 0.180136
H11   H     H_    0.594194 0.340682 0.184974 0.175920
H12   H     H_    0.150180 0.553376 0.314379 0.168589
H13   H     H_    0.681944 0.340550 0.097693 0.169236
H14   H     H_    0.681510 0.438495 0.098063 0.213248
H15   H     H_    0.714529 0.630487 0.307147 0.184073
H16   H     H_    0.324524 0.614016 0.202005 0.152278
H17   H     H_    0.803049 0.528675 0.390570 0.194585
H18   H     H_    0.717123 0.393458 0.307153 0.158420
H19   H     H_    0.803562 0.391375 0.216530 0.164068
H20   H     H_    0.890296 0.525516 0.301936 0.176713
H21   H     H_    0.800625 0.668862 0.392421 0.169329
H22   H     H_    0.890820 0.666540 0.307583 0.151006
H23   H     H_    0.173723 0.363791 0.277606 0.151363
H24   H     H_    0.610435 0.245490 0.600240 0.124366
H25   H     H_    0.631285 0.275590 0.482555 0.110736
H26   H     H_    0.499752 0.185873 0.355578 0.098156
H27   H     H_    0.279529 0.481401 0.114601 0.171752
H28   H     H_    0.324261 0.036253 0.465643 0.126788
H29   H     H_    0.457033 0.125809 0.591526 0.124395
H30   H     H_    0.276614 0.900853 0.288163 0.149762
H31   H     H_    0.220888 0.099149 0.214106 0.151271
H32   H     H_    0.173240 0.964188 0.036868 0.124907
H33   H     H_    0.040539 0.874625 0.910908 0.125418
H34   H     H_    0.084748 0.363440 0.188976 0.148441
H35   H     H_    0.887170 0.754398 0.901751 0.127164
H36   H     H_    0.866237 0.723808 0.019203 0.138328
H37   H     H_    0.997710 0.813565 0.146261 0.135723
H38   H     H_    0.973158 0.698442 0.533255 0.123142
H39   H     H_    0.226421 0.333276 0.195142 0.177403
H40   H     H_    0.905759 0.515702 0.474461 0.138255
H41   H     H_    0.818311 0.441680 0.550753 0.124673
H42   H     H_    0.868661 0.737388 0.750337 0.112642
H43   H     H_    0.908927 0.570091 0.764285 0.178811
H44   H     H_    0.588765 0.429598 0.737678 0.178366
H45   H     H_    0.605642 0.909957 0.637985 0.175328
H46   H     H_    0.630216 0.259691 0.746134 0.100685
H47   H     H_    0.542808 0.180692 0.819523 0.114424
H48   H     H_    0.520386 0.285654 0.957236 0.122396
H49   H     H_    0.586750 0.470654 0.022435 0.143833
H50   H     H_    0.138108 0.333290 0.107050 0.177147
H51   H     H_    0.675912 0.551401 0.950828 0.130600
H52   H     H_    0.354167 0.826105 0.631244 0.111994
H53   H     H_    0.460026 0.883521 0.763521 0.109143
H54   H     H_    0.423309 0.764963 0.807696 0.107111
H55   H     H_    0.172491 0.530697 0.586783 0.114525
H56   H     H_    0.691075 0.912540 0.588602 0.152296
H57   H     H_    0.210151 0.650303 0.543745 0.116096
H58   H     H_    0.197317 0.614751 0.799504 0.175630
H59   H     H_    0.300863 0.385667 0.703165 0.176113
H60   H     H_    0.313523 0.473900 0.926340 0.109725
H61   H     H_    0.273345 0.351378 0.966544 0.112125
H62   H     H_    0.238114 0.552932 0.401515 0.171531
H63   H     H_    0.139240 0.168734 0.865896 0.116183
H64   H     H_    0.045895 0.107649 0.723663 0.122638
H65   H     H_    0.084958 0.229156 0.682509 0.116217
H66   H     H_    0.336971 0.656619 0.407294 0.175097
H67   H     H_    0.777970 0.090870 0.679214 0.151126
H68   H     H_    0.249112 0.656590 0.319730 0.175050
H69   H     H_    0.003532 0.864507 0.641866 0.242086
H70   H     H_    0.912062 0.854445 0.683820 0.247669
H71   H     H_    0.013360 0.893368 0.752038 0.236241
H72   H     H_    0.692430 0.087513 0.728635 0.172738
H73   H     H_    0.608859 0.908109 0.777045 0.171306
I1    I     I_    0.808043 0.671171 0.191223 -0.516834
O1    O     O_3   0.500000 0.500000 0.500000 -0.472560
O2    O     O_R   0.113800 0.731630 0.056520 -0.629244
O3    O     O_R   0.819390 0.439310 0.886160 -0.637094
O4    O     O_R   0.383400 0.268380 0.323710 -0.650754
O5    O     O_R   0.115110 0.560720 0.179280 -0.654590
O6    O     O_R   0.941380 0.560750 0.885620 -0.640051
O7    O     O_R   0.115110 0.439270 0.057830 -0.643345
O8    O     O_R   0.942690 0.268390 0.886930 -0.644628
O9    O     O_R   0.114340 0.731630 0.178520 -0.641722
O10   O     O_R   0.820160 0.439310 0.057830 -0.633912
O11   O     O_R   0.113800 0.560730 0.885620 -0.649779
O12   O     O_R   0.383400 0.560740 0.616060 -0.634229
O13   O     O_R   0.555060 0.731630 0.615290 -0.643243
O14   O     O_R   0.383950 0.439280 0.616600 -0.648292
O15   O     O_R   0.677590 0.560710 0.444390 -0.639657
O16   O     O_R   0.556370 0.439260 0.616600 -0.638901
O17   O     O_R   0.382640 0.439290 0.322940 -0.649780
O18   O     O_R   0.678360 0.560700 0.616060 -0.644510
O19   O     O_R   0.382640 0.560750 0.444390 -0.643915
O20   O     O_R   0.555060 0.439270 0.322940 -0.652683
O21   O     O_R   0.383950 0.268380 0.445700 -0.625922
O22   O     O_R   0.677590 0.731610 0.615290 -0.648897
O23   O     O_3   0.997750 0.500010 0.002220 -0.473700
O24   O     O_R   0.942690 0.560750 0.179280 -0.647757
O25   O     O_R   0.114340 0.439270 0.886160 -0.634251
O26   O     O_R   0.820160 0.268410 0.886930 -0.650119
Zn1   Zn    Zn3+2 0.456040 0.586770 0.543190 0.961851
Zn2   Zn    Zn3+2 0.456820 0.413240 0.543960 0.972917
Zn3   Zn    Zn3+2 0.631110 0.586750 0.543190 0.957314
Zn4   Zn    Zn3+2 0.456040 0.413240 0.369660 0.945114
Zn5   Zn    Zn3+2 0.041710 0.413240 0.959030 0.958571
Zn6   Zn    Zn3+2 0.866640 0.413270 0.959030 0.969063
Zn7   Zn    Zn3+2 0.040930 0.586780 0.958260 0.975853
Zn8   Zn    Zn3+2 0.041710 0.586770 0.132560 0.957496

loop_
_geom_bond_atom_site_label_1
_geom_bond_atom_site_label_2
_ccdc_geom_bond_type
C25   C31   A    
C66   C68   A    
C63   C65   A    
C34   C56   S    
C8    C13   S    
C7    H7    S    
C83   O10   A    
C11   H18   S    
C41   C42   A    
O21   Zn2   S    
C35   C36   A    
C14   C17   S    
O1    Zn2   S    
C88   H39   S    
C12   H62   S    
C43   C44   A    
C17   H19   S    
C46   H38   S    
C81   C82   A    
C57   C58   A    
C39   C41   A    
C54   C60   A    
C1    O21   A    
C22   H29   S    
C12   C23   S    
O26   Zn6   S    
C26   C27   A    
C37   C38   A    
C49   C60   S    
C89   H8    S    
C18   C24   A    
C4    O22   A    
C36   C37   A    
C52   O17   A    
C56   H68   S    
C10   C15   S    
C65   H55   S    
C42   C53   S    
C30   C31   A    
C54   H46   S    
C27   C29   A    
C27   C38   S    
C9    H14   S    
O18   Zn3   S    
C57   H48   S    
C68   H52   S    
C18   C19   A    
C73   C74   A    
C43   H42   S    
C87   O3    A    
O10   Zn6   S    
C81   H65   S    
C78   H67   S    
C11   C17   S    
C2    C7    S    
C59   H51   S    
C75   H60   S    
C8    C9    S    
C62   H54   S    
C33   H33   S    
C85   O8    A    
O19   Zn1   S    
C91   H71   S    
C10   H21   S    
C70   C71   A    
C32   C38   A    
C12   H66   S    
C29   C30   A    
C70   C84   S    
C8    H10   S    
C89   H73   S    
C66   H57   S    
C16   O14   A    
O25   Zn5   S    
C47   C53   A    
C37   H37   S    
C5    C85   S    
O24   Zn8   S    
C8    H11   S    
C78   H72   S    
O12   Zn1   S    
C21   C22   A    
C45   H50   S    
C32   H32   S    
C61   C62   A    
C67   C78   S    
C14   C83   S    
O20   Zn4   S    
O9    Zn8   S    
C17   H20   S    
C77   H61   S    
O5    Zn8   S    
C44   C46   A    
C28   O15   A    
C77   C79   A    
O3    Zn6   S    
C16   C73   S    
O1    Zn3   S    
C2    H3    S    
C45   C88   S    
O1    Zn4   S    
C64   H4    S    
O4    Zn4   S    
C18   H25   S    
C5    C7    S    
C4    O13   A    
C72   C73   A    
O23   Zn8   S    
C25   C26   A    
C76   H27   S    
C86   O9    A    
C6    H9    S    
C35   H35   S    
C9    C14   S    
C34   C90   S    
C62   C63   A    
O13   Zn1   S    
C61   H53   S    
C47   C48   A    
O16   Zn2   S    
O23   Zn7   S    
C26   C86   S    
C6    H2    S    
C87   O6    A    
C29   H31   S    
C90   O5    A    
O8    Zn5   S    
C15   H22   S    
C50   C51   A    
C64   C76   S    
C48   C87   S    
C69   C74   A    
C13   C28   S    
C34   C45   S    
C84   O25   A    
C75   C77   A    
O23   Zn5   S    
C91   H69   S    
C12   C56   S    
C44   C91   S    
C39   C46   A    
C23   C64   S    
C49   C50   A    
C76   H16   S    
C72   H59   S    
C23   C88   S    
C55   C57   A    
C47   H43   S    
C67   H56   S    
C22   C24   A    
C10   H15   S    
C36   H36   S    
C85   O26   A    
C42   C43   A    
C64   H1    S    
C90   O7    A    
C3    C4    S    
C6    C89   S    
O15   Zn3   S    
C16   O12   A    
C80   H64   S    
C40   O16   A    
O14   Zn2   S    
C58   H49   S    
C54   C55   A    
C48   C49   A    
C7    H6    S    
C83   O24   A    
C3    C67   S    
C86   O2    A    
C52   O19   A    
C56   H12   S    
O11   Zn7   S    
C80   C81   A    
C10   C13   S    
C41   H41   S    
C75   C82   A    
C63   C74   S    
O6    Zn7   S    
C40   C51   S    
C3    C89   S    
C50   H44   S    
C69   H58   S    
C32   C33   A    
C71   C82   S    
C19   C20   A    
C2    H5    S    
C67   H45   S    
C58   C59   A    
C71   C72   A    
O22   Zn3   S    
C40   O18   A    
C28   O20   A    
C79   H63   S    
C11   C13   S    
C61   C68   A    
C23   C52   S    
C5    C6    S    
C39   H40   S    
O23   Zn6   S    
C91   H70   S    
C9    H13   S    
C1    O4    A    
C1    C30   S    
C33   C35   A    
O2    Zn7   S    
C2    C3    S    
O1    Zn1   S    
C88   H23   S    
C69   C70   A    
O7    Zn5   S    
C55   H47   S    
C79   C80   A    
C59   C60   A    
C20   C21   A    
C19   H26   S    
C24   H24   S    
C21   H28   S    
C65   C66   A    
C45   H34   S    
C11   H17   S    
C14   C15   S    
C15   I1    S    
O17   Zn4   S    
C51   C53   A    
C5    C78   S    
C84   O11   A    
C25   H30   S    
C34   C76   S    
C20   C31   S    
