data_mof_unit_28858.cif
_audit_creation_date              2012-12-10T20:03:05-0500
_audit_creation_method            fapswitch 2.2
_symmetry_space_group_name_H-M    P1
_symmetry_Int_Tables_number       1
_space_group_crystal_system       triclinic
_cell_length_a                    8.611911
_cell_length_b                    18.665817
_cell_length_c                    18.500115
_cell_angle_alpha                 89.786598
_cell_angle_beta                  99.511938
_cell_angle_gamma                 91.032357
_cell_volume                      2932.49905118

loop_
_atom_site_label
_atom_site_type_symbol
_atom_type_description
_atom_site_fract_x
_atom_site_fract_y
_atom_site_fract_z
_atom_type_partial_charge
C1    C     C_R   0.494945 0.364683 0.499806 0.854391
C2    C     C_R   0.492168 0.635504 0.499206 0.877455
C3    C     C_R   0.240767 0.958988 0.525846 -0.072170
C4    C     C_R   0.265721 0.040458 0.399010 -0.072753
C5    C     C_R   0.238803 0.034401 0.528913 -0.023334
C6    C     C_R   0.278946 0.965316 0.397223 -0.027245
C7    C     C_R   0.265974 0.074914 0.467145 -0.075663
C8    C     C_R   0.279937 0.925540 0.462553 -0.075172
C9    C     C_R   0.626306 0.526136 0.738120 0.024784
C10   C     C_R   0.379870 0.468111 0.262947 0.052282
C11   C     C_R   0.626715 0.522959 0.814949 -0.179730
C12   C     C_R   0.379839 0.468830 0.186242 -0.173840
C13   C     C_R   0.492777 0.495426 0.841535 -0.084915
C14   C     C_R   0.508909 0.500370 0.158575 -0.082046
C15   C     C_R   0.363876 0.468585 0.790191 -0.125715
C16   C     C_R   0.633631 0.531803 0.209104 -0.115761
C17   C     C_R   0.372924 0.470870 0.714608 -0.057468
C18   C     C_R   0.623467 0.531727 0.284684 -0.045030
C19   C     C_R   0.508203 0.432551 0.963774 -0.054815
C20   C     C_R   0.492720 0.563065 0.036164 -0.086280
C21   C     C_R   0.518252 0.434219 0.040348 -0.108410
C22   C     C_R   0.483337 0.561425 0.959613 -0.135870
C23   C     C_R   0.200623 0.499877 0.480632 0.957027
C24   C     C_R   0.799356 0.499913 0.519358 0.992024
C25   C     C_R   0.510533 0.499486 0.077441 0.195974
C26   C     C_R   0.490356 0.496136 0.922548 0.187826
C27   C     C_2   0.035134 0.500089 0.470371 -0.386311
C28   C     C_2   0.964840 0.499622 0.529600 -0.382811
C29   C     C_R   0.330412 0.728017 0.431014 -0.168652
C30   C     C_R   0.308630 0.270312 0.521146 -0.166584
C31   C     C_R   0.273463 0.797132 0.421442 -0.117824
C32   C     C_R   0.242279 0.202279 0.507613 -0.106523
C33   C     C_R   0.339877 0.851492 0.468991 0.131235
C34   C     C_R   0.324014 0.150088 0.475862 0.126264
C35   C     C_R   0.457701 0.834731 0.528101 -0.154699
C36   C     C_R   0.468041 0.168435 0.453715 -0.162425
C37   C     C_R   0.495908 0.763674 0.545253 -0.041152
C38   C     C_R   0.527556 0.238634 0.460118 -0.007400
C39   C     C_R   0.441849 0.710226 0.492804 -0.101262
C40   C     C_R   0.449415 0.289285 0.496562 -0.045273
H1    H     H_    0.971630 0.500586 0.414458 0.191891
H2    H     H_    0.028310 0.498988 0.585504 0.184612
H3    H     H_    0.276284 0.449827 0.675191 0.179961
H4    H     H_    0.717157 0.555874 0.323609 0.174812
H5    H     H_    0.516199 0.381759 0.936661 0.130487
H6    H     H_    0.484869 0.613887 0.063244 0.132495
H7    H     H_    0.530960 0.384440 0.070838 0.125257
H8    H     H_    0.471480 0.611215 0.929109 0.123162
H9    H     H_    0.281089 0.687345 0.391756 0.173557
H10   H     H_    0.245454 0.309625 0.547383 0.140865
H11   H     H_    0.178568 0.808064 0.376857 0.152065
H12   H     H_    0.128836 0.190129 0.523111 0.143568
H13   H     H_    0.508037 0.876828 0.565378 0.138659
H14   H     H_    0.533115 0.128062 0.429946 0.136230
N1    N     N_R   0.500020 0.499980 0.689440 -0.138472
N2    N     N_R   0.499980 0.500020 0.310560 -0.140570
O1    O     O_R   0.500010 0.398180 0.560840 -0.618442
O2    O     O_R   0.499990 0.601820 0.439160 -0.615133
O3    O     O_R   0.499930 0.398180 0.439210 -0.563180
O4    O     O_R   0.500070 0.601820 0.560790 -0.588174
O5    O     O_R   0.271780 0.500000 0.546590 -0.639133
O6    O     O_R   0.728220 0.500000 0.453410 -0.627501
O7    O     O_R   0.271710 0.499990 0.424960 -0.611089
O8    O     O_R   0.728290 0.500010 0.575040 -0.602044
Zn1   Zn    Zn3+2 0.500050 0.500000 0.581210 0.970861
Zn2   Zn    Zn3+2 0.499950 0.500000 0.418790 0.987000
C41   C     C_2   0.217635 0.438490 0.812574 0.946556
O9    O     O_2   0.179947 0.454974 0.871116 -0.576883
O10   O     O_R   0.120229 0.391968 0.765402 -0.798600
H15   H     H_    0.023475 0.375627 0.786042 0.367341
C42   C     C_2   0.778048 0.562785 0.185708 0.939597
O11   O     O_2   0.857531 0.607716 0.223981 -0.615818
O12   O     O_R   0.826710 0.539453 0.121400 -0.768801
H16   H     H_    0.927277 0.564308 0.112207 0.369346
C43   C     C_R   0.568229 0.748527 0.621860 0.154489
C44   C     C_R   0.480571 0.710923 0.667976 -0.036850
C45   C     C_R   0.535005 0.706999 0.743355 -0.161588
C46   C     C_R   0.676105 0.741410 0.773493 -0.053143
C47   C     C_R   0.763001 0.779660 0.728322 -0.105217
C48   C     C_R   0.708507 0.783868 0.652946 -0.157296
H17   H     H_    0.367442 0.686728 0.645965 0.126156
H18   H     H_    0.466639 0.678157 0.778498 0.124813
H19   H     H_    0.717104 0.739217 0.831962 0.159871
H20   H     H_    0.870779 0.807368 0.751964 0.140441
H21   H     H_    0.772275 0.816661 0.618974 0.134286
C49   C     C_R   0.664284 0.258142 0.424438 0.117492
C50   C     C_R   0.658550 0.242682 0.349794 -0.110741
C51   C     C_R   0.784867 0.261053 0.314621 -0.166127
C52   C     C_R   0.917789 0.295385 0.353571 -0.126358
C53   C     C_R   0.923651 0.312420 0.427458 -0.118948
C54   C     C_R   0.798011 0.293358 0.463190 -0.151651
H22   H     H_    0.555087 0.217383 0.318638 0.150876
H23   H     H_    0.779130 0.248966 0.257066 0.134120
H24   H     H_    0.015717 0.308760 0.326230 0.186099
H25   H     H_    0.025410 0.340457 0.456921 0.138994
H26   H     H_    0.804854 0.306107 0.520705 0.122443
C55   C     C_R   0.216855 0.914233 0.590709 0.149433
C56   C     C_R   0.110042 0.855768 0.581481 -0.109545
C57   C     C_R   0.103029 0.807621 0.638955 -0.177948
C58   C     C_R   0.197526 0.818774 0.707012 -0.125608
C59   C     C_R   0.302928 0.876944 0.717164 -0.107190
C60   C     C_R   0.314225 0.923947 0.659210 -0.143507
H27   H     H_    0.036561 0.846009 0.528913 0.135082
H28   H     H_    0.025784 0.761009 0.630479 0.154558
H29   H     H_    0.191404 0.781472 0.751424 0.136639
H30   H     H_    0.378920 0.884541 0.769414 0.139327
H31   H     H_    0.403131 0.966176 0.667043 0.148763
C61   C     C_R   0.261297 0.084294 0.330954 0.148886
C62   C     C_R   0.135743 0.130908 0.309131 -0.109868
C63   C     C_R   0.131251 0.172706 0.245923 -0.103361
C64   C     C_R   0.251701 0.168463 0.204079 -0.071907
C65   C     C_R   0.377386 0.122611 0.225465 -0.160281
C66   C     C_R   0.383344 0.081274 0.288994 -0.152703
H32   H     H_    0.041331 0.134671 0.340969 0.136918
H33   H     H_    0.034301 0.208331 0.229124 0.131782
H34   H     H_    0.247945 0.200932 0.155243 0.153442
H35   H     H_    0.471552 0.119915 0.193446 0.142700
H36   H     H_    0.483909 0.047574 0.305882 0.145728
C67   C     C_2   0.215397 0.069808 0.597867 0.866535
O13   O     O_2   0.320808 0.106768 0.632342 -0.617745
O14   O     O_R   0.074144 0.058565 0.624445 -0.793278
H37   H     H_    0.072412 0.084586 0.672297 0.351425
C68   C     C_2   0.299274 0.929590 0.327923 0.873563
O15   O     O_2   0.418405 0.895876 0.324701 -0.616008
O16   O     O_R   0.183316 0.936225 0.265908 -0.785074
H38   H     H_    0.210981 0.910352 0.221784 0.351869
C69   C     C_2   0.766532 0.555302 0.711160 1.002157
O17   O     O_2   0.756044 0.607993 0.671527 -0.616817
O18   O     O_R   0.912525 0.523527 0.732909 -0.792286
H39   H     H_    0.000443 0.549037 0.712217 0.326349
C70   C     C_2   0.246300 0.434636 0.291268 0.994671
O19   O     O_2   0.265374 0.379872 0.327655 -0.637392
O20   O     O_R   0.096895 0.464350 0.273708 -0.797270
H40   H     H_    0.013667 0.436658 0.295608 0.323785
C71   C     C_2   0.767775 0.547453 0.867696 0.956326
O21   O     O_2   0.832086 0.604959 0.858714 -0.645762
O22   O     O_R   0.827041 0.504362 0.927572 -0.743100
H41   H     H_    0.922568 0.526724 0.959448 0.386941
C72   C     C_2   0.244825 0.436211 0.135413 0.943462
O23   O     O_2   0.182979 0.469302 0.081376 -0.590323
O24   O     O_R   0.188558 0.367714 0.149626 -0.821955
H42   H     H_    0.096369 0.351560 0.111448 0.349814

loop_
_geom_bond_atom_site_label_1
_geom_bond_atom_site_label_2
_ccdc_geom_bond_type
C22   H8    S    
C50   C51   A    
C59   C60   A    
C35   H13   S    
C11   C13   A    
O12   H16   S    
C64   C65   A    
C69   O18   S    
C55   C56   A    
C68   O15   D    
C29   H9    S    
C45   C46   A    
C4    C61   S    
C58   H29   S    
C9    C69   S    
O16   H38   S    
C38   C49   S    
C35   C37   A    
C1    O1    A    
C49   C54   A    
C1    O3    A    
O3    Zn2   S    
C47   H20   S    
C2    O4    A    
C68   O16   S    
C20   C25   A    
C56   H27   S    
C61   C62   A    
C71   O22   S    
C52   H24   S    
C19   C26   A    
C3    C55   S    
C10   C70   S    
C32   H12   S    
C1    C40   S    
C54   H26   S    
C63   C64   A    
C2    C39   S    
O2    Zn2   S    
C31   C33   A    
C64   H34   S    
C9    N1    A    
C23   C27   S    
C10   N2    A    
C43   C48   A    
C17   N1    A    
C55   C60   A    
C18   N2    A    
C23   O7    A    
C57   H28   S    
C30   H10   S    
O7    Zn2   S    
C24   O8    A    
C38   C40   A    
C50   H22   S    
C5    C67   S    
C16   C42   S    
C6    C68   S    
C4    C7    A    
C46   H19   S    
C65   C66   A    
N1    Zn1   S    
C67   O14   S    
O6    Zn2   S    
C41   O9    D    
C71   O21   D    
C44   C45   A    
C4    C6    A    
C3    C8    A    
O1    Zn1   S    
C5    C7    A    
C49   C50   A    
C6    C8    A    
C70   O20   S    
C66   H36   S    
C41   O10   S    
C32   C34   A    
C61   C66   A    
C43   C44   A    
C17   H3    S    
C48   H21   S    
C11   C71   S    
C27   H1    S    
C57   C58   A    
C67   O13   D    
C15   C41   S    
C29   C39   A    
C19   H5    S    
C12   C72   S    
C30   C40   A    
C60   H31   S    
C9    C11   A    
O14   H37   S    
C10   C12   A    
C62   H32   S    
C16   C18   A    
C12   C14   A    
O4    Zn1   S    
C13   C15   A    
O20   H40   S    
C7    C34   S    
C14   C16   A    
C13   C26   S    
C20   C22   A    
C69   O17   D    
C18   H4    S    
C42   O12   S    
O18   H39   S    
C59   H30   S    
C15   C17   A    
C21   C25   A    
C51   H23   S    
C24   O6    A    
C19   C21   A    
C46   C47   A    
C24   C28   S    
C31   H11   S    
C3    C5    A    
C53   H25   S    
C44   H17   S    
C72   O23   D    
C2    O2    A    
O22   H41   S    
O8    Zn1   S    
C36   C38   A    
C42   O11   D    
C37   C39   A    
C62   C63   A    
C30   C32   A    
C72   O24   S    
C53   C54   A    
C65   H35   S    
C45   H18   S    
N2    Zn2   S    
C28   H2    S    
C58   C59   A    
C33   C35   A    
C34   C36   A    
C8    C33   S    
C14   C25   S    
C37   C43   S    
O10   H15   S    
C36   H14   S    
C47   C48   A    
O5    Zn1   S    
C23   O5    A    
C51   C52   A    
C29   C31   A    
C56   C57   A    
C22   C26   A    
C27   C28   D    
C52   C53   A    
O24   H42   S    
C63   H33   S    
C20   H6    S    
C70   O19   D    
C21   H7    S    
