data_mof_unit_53872.cif
_audit_creation_date              2012-12-10T19:16:17-0500
_audit_creation_method            fapswitch 2.2
_symmetry_space_group_name_H-M    P1
_symmetry_Int_Tables_number       1
_space_group_crystal_system       triclinic
_cell_length_a                    10.7155
_cell_length_b                    9.80724
_cell_length_c                    27.183684
_cell_angle_alpha                 91.480987
_cell_angle_beta                  94.334165
_cell_angle_gamma                 89.714806
_cell_volume                      2847.58506464

loop_
_atom_site_label
_atom_site_type_symbol
_atom_type_description
_atom_site_fract_x
_atom_site_fract_y
_atom_site_fract_z
_atom_type_partial_charge
C1    C     C_R   0.258816 0.500486 0.504673 1.038136
C2    C     C_R   0.530862 0.430659 0.270725 -0.117197
C3    C     C_R   0.632009 0.515136 0.262254 0.158543
C4    C     C_R   0.687890 0.565899 0.113038 -0.092989
C5    C     C_R   0.632438 0.673012 0.139917 -0.157385
C6    C     C_R   0.593850 0.793288 0.114973 0.416883
C7    C     C_R   0.738746 0.451496 0.137865 0.003027
C8    C     C_R   0.548679 0.499746 0.356566 -0.123086
C9    C     C_R   0.520820 0.508261 0.648349 -0.028540
C10   C     C_R   0.602581 0.668588 0.984102 0.070307
C11   C     C_R   0.740098 0.466612 0.982105 0.042922
C12   C     C_R   0.507251 0.498828 0.406198 1.006988
C13   C     C_R   0.661481 0.563824 0.957318 0.077474
C14   C     C_R   0.516922 0.756253 0.958365 -0.206508
C15   C     C_R   0.491833 0.742468 0.907690 -0.127236
C16   C     C_R   0.552601 0.642316 0.880821 -0.022651
C17   C     C_R   0.639406 0.554473 0.905344 -0.054287
C18   C     C_R   0.702419 0.455807 0.877936 -0.023073
C19   C     C_R   0.678396 0.447851 0.826543 0.517775
C20   C     C_R   0.526913 0.626515 0.829797 0.512727
C21   C     C_R   0.529629 0.399004 0.727405 -0.086528
C22   C     C_R   0.508638 0.391258 0.676203 -0.211882
C23   C     C_R   0.741958 0.499356 0.501274 0.846347
C24   C     C_R   0.556888 0.632072 0.672244 -0.176254
C25   C     C_R   0.581553 0.638572 0.723050 -0.080393
C26   C     C_R   0.567121 0.522609 0.751002 0.285509
C27   C     C_R   0.625719 0.678123 0.035946 -0.013331
C28   C     C_R   0.688213 0.570268 0.061038 0.088692
C29   C     C_R   0.746058 0.463909 0.034388 0.066391
C30   C     C_R   0.587870 0.792296 0.063568 -0.306753
C31   C     C_R   0.798594 0.349057 0.111721 -0.101512
C32   C     C_R   0.806426 0.372682 0.953479 -0.208726
C33   C     C_R   0.788221 0.368057 0.902295 -0.121526
C34   C     C_R   0.504051 0.501830 0.594421 0.947252
C35   C     C_R   0.802817 0.355172 0.060949 -0.208119
C36   C     C_3   0.071187 0.606454 0.546074 0.320951
C37   C     C_3   0.070760 0.349960 0.513687 0.321713
C38   C     C_3   0.930899 0.581090 0.549758 -0.435992
C39   C     C_3   0.927656 0.349165 0.506653 -0.427106
C40   C     C_3   0.062865 0.548999 0.456525 -0.518361
C41   C     C_3   0.121532 0.499886 0.507612 -0.163099
C42   C     C_3   0.877687 0.497383 0.503532 0.033769
C43   C     C_3   0.920037 0.557892 0.455900 -0.441308
C44   C     C_3   0.382567 0.080527 0.470525 0.262335
C45   C     C_3   0.377449 0.916454 0.475005 0.267556
C46   C     C_3   0.611314 0.077810 0.477091 -0.240657
C47   C     C_3   0.602854 0.917461 0.471837 -0.267455
C48   C     C_3   0.502667 0.083588 0.549650 -0.354737
C49   C     C_3   0.513854 0.922840 0.549700 -0.356268
C50   C     C_R   0.614011 0.651651 0.189948 0.618338
C51   C     C_R   0.724159 0.439496 0.188181 0.599982
C52   C     C_R   0.695187 0.588781 0.301603 0.439170
C53   C     C_R   0.651703 0.581609 0.348405 -0.301137
C54   C     C_R   0.489429 0.422418 0.317880 -0.099816
H1    H     H_    0.408676 0.360698 0.323630 0.225719
H2    H     H_    0.839376 0.261078 0.130235 0.199756
H3    H     H_    0.874485 0.302345 0.969568 0.151354
H4    H     H_    0.569153 0.723495 0.651636 0.163693
H5    H     H_    0.840188 0.293402 0.881944 0.196073
H6    H     H_    0.612177 0.734052 0.740792 0.162143
H7    H     H_    0.845473 0.269055 0.043306 0.145962
H8    H     H_    0.077578 0.708836 0.529565 0.131315
H9    H     H_    0.103778 0.285458 0.482982 0.102593
H10   H     H_    0.915280 0.524327 0.583653 0.233955
H11   H     H_    0.885120 0.295444 0.536738 0.225905
H12   H     H_    0.481620 0.375308 0.240253 0.190562
H13   H     H_    0.882388 0.681288 0.552870 0.178296
H14   H     H_    0.897779 0.290964 0.472010 0.165650
H15   H     H_    0.095077 0.653066 0.449357 0.279779
H16   H     H_    0.089166 0.481065 0.425789 0.203840
H17   H     H_    0.889277 0.666302 0.453071 0.224034
H18   H     H_    0.877198 0.501081 0.422899 0.186410
H19   H     H_    0.301188 0.119210 0.489813 0.107307
H20   H     H_    0.304400 0.896905 0.501052 0.095062
H21   H     H_    0.627146 0.123276 0.441404 0.218598
H22   H     H_    0.590120 0.886630 0.432186 0.218700
H23   H     H_    0.582453 0.128775 0.572995 0.194759
H24   H     H_    0.605916 0.892788 0.568036 0.184661
H25   H     H_    0.416783 0.114796 0.567357 0.210843
H26   H     H_    0.441703 0.881055 0.572367 0.221331
H27   H     H_    0.697209 0.104997 0.500897 0.160342
H28   H     H_    0.693584 0.872650 0.485997 0.173879
H29   H     H_    0.483859 0.294010 0.658547 0.159763
H30   H     H_    0.517810 0.308801 0.748701 0.164734
H31   H     H_    0.423878 0.810569 0.889691 0.197267
H32   H     H_    0.462913 0.832357 0.976817 0.160825
H33   H     H_    0.556244 0.884089 0.045486 0.187695
H34   H     H_    0.697887 0.640635 0.378702 0.177186
N1    N     N_R   0.659965 0.536990 0.212538 -0.353517
N2    N     N_R   0.590602 0.531441 0.803609 -0.353735
N3    N     N_3   0.499750 0.138610 0.498940 -0.107172
N4    N     N_3   0.499750 0.861390 0.498940 -0.115255
O1    O     O_R   0.314910 0.616040 0.499990 -0.558837
O2    O     O_R   0.314910 0.383960 0.499990 -0.567781
O3    O     O_R   0.500140 0.616020 0.428740 -0.555522
O4    O     O_R   0.500140 0.383980 0.428740 -0.523712
O5    O     O_R   0.685320 0.616040 0.499970 -0.656125
O6    O     O_R   0.685320 0.383960 0.499970 -0.651083
O7    O     O_R   0.500090 0.616050 0.571230 -0.615246
O8    O     O_R   0.500090 0.383950 0.571230 -0.617839
O9    O     O_2   0.545139 0.739747 0.215514 -0.424509
O10   O     O_2   0.438028 0.704793 0.806530 -0.544678
O11   O     O_2   0.770917 0.329972 0.212479 -0.483554
O12   O     O_2   0.742883 0.358123 0.799689 -0.543198
Zn1   Zn    Zn3+2 0.500150 0.654960 0.499980 1.004895
Zn2   Zn    Zn3+2 0.500150 0.345040 0.499980 1.014044
S1    S     S_3+6 0.824618 0.694737 0.293164 0.087115
O13   O     O_2   0.899425 0.638649 0.252585 -0.282026
O14   O     O_2   0.777481 0.834337 0.279635 -0.148630
O15   O     O_3   0.917588 0.708477 0.345725 -0.522228
H35   H     H_    0.963372 0.620605 0.347966 0.355071
S2    S     S_3+6 0.151234 0.638976 0.606033 0.047263
O16   O     O_2   0.278337 0.696068 0.599853 -0.337477
O17   O     O_2   0.077545 0.745873 0.632027 -0.257201
O18   O     O_3   0.164797 0.503006 0.642128 -0.459427
H36   H     H_    0.223268 0.531609 0.670443 0.385414
S3    S     S_3+6 0.121359 0.259791 0.569016 0.033031
O19   O     O_2   0.033166 0.286117 0.608716 -0.241910
O20   O     O_2   0.120011 0.109663 0.556345 -0.324603
O21   O     O_3   0.266395 0.302815 0.590884 -0.541463
H37   H     H_    0.281217 0.250255 0.621396 0.376211
S4    S     S_3+6 0.349094 0.152164 0.407438 0.093614
O22   O     O_2   0.466445 0.156407 0.380678 -0.270789
O23   O     O_2   0.254530 0.080372 0.372732 -0.167263
O24   O     O_3   0.285609 0.308572 0.410885 -0.571968
H38   H     H_    0.194166 0.294722 0.405601 0.343216
S5    S     S_3+6 0.308587 0.828766 0.418070 0.093165
O25   O     O_2   0.177328 0.883471 0.410711 -0.259780
O26   O     O_2   0.384038 0.862346 0.375528 -0.204395
O27   O     O_3   0.283786 0.660647 0.412888 -0.561325
H39   H     H_    0.248757 0.643822 0.378476 0.378498
S6    S     S_3+6 0.559217 0.950630 0.145144 0.104257
O28   O     O_2   0.428916 0.945415 0.161923 -0.174079
O29   O     O_2   0.650551 0.976308 0.189119 -0.179932
O30   O     O_3   0.566792 0.081201 0.106534 -0.550071
H40   H     H_    0.655793 0.085245 0.099143 0.341674

loop_
_geom_bond_atom_site_label_1
_geom_bond_atom_site_label_2
_ccdc_geom_bond_type
C10   C27   A    
C21   C26   A    
C43   H18   S    
C39   H11   S    
C39   H14   S    
S2    O17   D    
O30   H40   S    
C52   C53   A    
C23   C42   S    
C40   H16   S    
C48   H25   S    
C28   C29   A    
C47   H22   S    
C38   C42   S    
S3    O20   D    
C5    C6    A    
C9    C22   A    
C20   O10   S    
C51   O11   S    
C15   C16   A    
C49   H24   S    
C18   C19   A    
C47   N4    S    
C47   H28   S    
C45   N4    S    
O15   H35   S    
S2    O16   D    
O3    Zn1   S    
O1    Zn1   S    
C54   H1    S    
C40   C43   S    
O2    Zn2   S    
C52   S1    S    
C16   C17   A    
C48   N3    S    
C36   S2    S    
C34   O8    A    
S1    O13   D    
C12   O3    A    
C25   H6    S    
C31   H2    S    
C8    C12   S    
C15   H31   S    
O5    Zn1   S    
C33   H5    S    
C21   C22   A    
C27   C30   A    
S1    O14   D    
N3    Zn2   S    
C36   C41   S    
C32   H3    S    
C4    C7    A    
C36   H8    S    
C46   H21   S    
C37   H9    S    
C17   C18   A    
C39   C42   S    
C38   H10   S    
O7    Zn1   S    
C7    C31   A    
C40   H15   S    
C24   H4    S    
C24   C25   A    
C14   H32   S    
C6    S6    S    
C10   C14   A    
S3    O21   S    
C8    C54   A    
S6    O28   D    
C46   N3    S    
C25   C26   A    
C20   N2    A    
C45   H20   S    
C48   H23   S    
S5    O26   D    
C46   H27   S    
C19   O12   S    
C50   N1    A    
C21   H30   S    
C16   C20   A    
C34   O7    A    
C35   H7    S    
C44   N3    S    
C1    O1    A    
C48   C49   S    
C6    C30   A    
C11   C32   A    
C2    C54   A    
O24   H38   S    
S1    O15   S    
C31   C35   A    
C5    C50   A    
C42   C43   S    
C49   N4    S    
S4    O23   D    
S5    O25   D    
O21   H37   S    
C1    C41   S    
O4    Zn2   S    
C46   C47   S    
C40   C41   S    
C43   H17   S    
C23   O5    A    
C44   C45   S    
C4    C5    A    
C2    H12   S    
C10   C13   A    
C8    C53   A    
C1    O2    A    
C3    C52   A    
C9    C24   A    
C26   N2    S    
C29   C35   A    
O8    Zn2   S    
O6    Zn2   S    
C49   H26   S    
C13   C17   A    
C3    N1    S    
C32   C33   A    
S4    O24   S    
C36   C38   S    
C2    C3    A    
C30   H33   S    
S5    O27   S    
C7    C51   A    
C37   C39   S    
C19   N2    A    
S3    O19   D    
C51   N1    A    
C22   H29   S    
C11   C13   A    
C9    C34   S    
C45   S5    S    
S6    O30   S    
C44   S4    S    
O27   H39   S    
C53   H34   S    
C37   C41   S    
C44   H19   S    
C18   C33   A    
N4    Zn1   S    
C23   O6    A    
C37   S3    S    
C38   H13   S    
C11   C29   A    
C50   O9    S    
S6    O29   D    
C4    C28   A    
C27   C28   A    
C14   C15   A    
C12   O4    A    
S4    O22   D    
S2    O18   S    
O18   H36   S    
