data_mof_unit_66830.cif
_audit_creation_date              2013-03-05T15:41:46-0500
_audit_creation_method            fapswitch 2.2
_symmetry_space_group_name_H-M    P1
_symmetry_Int_Tables_number       1
_space_group_crystal_system       triclinic
_cell_length_a                    8.416553
_cell_length_b                    15.271555
_cell_length_c                    15.526632
_cell_angle_alpha                 98.569925
_cell_angle_beta                  100.628939
_cell_angle_gamma                 97.922734
_cell_volume                      1911.28765646

loop_
_atom_site_label
_atom_site_type_symbol
_atom_site_description
_atom_site_fract_x
_atom_site_fract_y
_atom_site_fract_z
_atom_type_partial_charge
P1    P     P_3+3 0.004200 0.709230 0.580350 0.580138
O1    O     O_2   0.174080 0.723060 0.553930 -0.316657
O2    O     O_3   0.901570 0.609580 0.550840 -0.298745
O3    O     O_3   0.370350 0.665080 0.388270 -0.337467
O4    O     O_2   0.273368 0.818516 0.439156 -0.333506
O5    O     O_3   0.097245 0.732379 0.695898 -0.604731
O6    O     O_3   0.370937 0.807866 0.289564 -0.484307
H1    H     H_    0.298430 0.674634 0.227177 0.101346
C1    C     C_3   0.370592 0.756753 0.136262 -0.941265
H2    H     H_    0.244165 0.769568 0.114197 0.272296
H3    H     H_    0.459357 0.817239 0.135243 0.287799
P2    P     P_3+3 0.305000 0.425570 0.290900 0.624300
P3    P     P_3+3 0.882185 0.609654 0.224313 0.546236
O7    O     O_2   0.134790 0.452800 0.278150 -0.327836
O8    O     O_3   0.937650 0.618620 0.340860 -0.323216
O9    O     O_2   0.984387 0.543724 0.185136 -0.350587
O10   O     O_3   0.341004 0.315066 0.257734 -0.567152
O11   O     O_3   0.965535 0.708866 0.192790 -0.557920
C2    C     C_3   0.846127 0.762908 0.172993 1.041487
H4    H     H_    0.719151 0.724978 0.152213 -0.150565
C3    C     C_3   0.880190 0.808476 0.095721 -0.968135
H5    H     H_    0.005456 0.848851 0.112467 0.281048
H6    H     H_    0.870854 0.756651 0.035842 0.244870
C4    C     C_3   0.797805 0.260926 0.248137 0.917469
H7    H     H_    0.927799 0.270512 0.279108 -0.004117
C5    C     C_3   0.742647 0.174259 0.180028 -0.787653
H8    H     H_    0.768665 0.115841 0.211326 0.241622
H9    H     H_    0.608725 0.163423 0.153986 0.244295
H10   H     H_    0.805164 0.177090 0.123814 0.304227
Ba1   Ba    Ba6+2 0.154730 0.543770 0.458180 1.807882
C6    C     C_3   0.994713 0.739887 0.757997 0.955754
C7    C     C_3   0.047655 0.827498 0.824942 -0.933649
H11   H     H_    0.167838 0.831166 0.869257 0.256949
H12   H     H_    0.955940 0.834920 0.867529 0.229357
H13   H     H_    0.053937 0.884224 0.789441 0.310991
C8    C     C_3   0.212296 0.242653 0.230603 0.723142
H14   H     H_    0.101191 0.263789 0.195717 0.021626
C9    C     C_3   0.270332 0.172347 0.166328 0.033063
H15   H     H_    0.356475 0.135074 0.202839 0.116812
H16   H     H_    0.340990 0.206652 0.124200 0.193776
P4    P     P_3+3 0.806080 0.290760 0.419570 0.568554
O12   O     O_2   0.636200 0.276890 0.446040 -0.321429
O13   O     O_3   0.908720 0.390410 0.449080 -0.347473
O14   O     O_3   0.439930 0.334910 0.611650 -0.396639
O15   O     O_3   0.698518 0.260917 0.309362 -0.563830
P5    P     P_3+3 0.920509 0.371892 0.770808 0.593255
O16   O     O_3   0.402060 0.547860 0.609750 -0.304040
O17   O     O_3   0.872630 0.381370 0.659060 -0.393133
O18   O     O_2   0.810171 0.428839 0.816388 -0.336108
O19   O     O_3   0.847671 0.260315 0.777281 -0.453464
Ba2   Ba    Ba6+2 0.655430 0.456220 0.541750 1.775132
P6    P     P_3+3 0.410556 0.783127 0.397433 0.576498
C10   C     C_3   0.392368 0.734214 0.229432 0.529168
H17   H     H_    0.517302 0.717875 0.248342 0.028275
H18   H     H_    0.391623 0.699500 0.089073 0.205712
O20   O     O_3   0.408220 0.452130 0.390170 -0.303830
C11   C     C_3   0.496508 0.740991 0.742867 0.251931
H19   H     H_    0.583434 0.762583 0.702617 0.164290
H20   H     H_    0.371682 0.716865 0.702773 0.162720
C12   C     C_3   0.501980 0.822907 0.811941 0.101521
H21   H     H_    0.408584 0.809829 0.851805 0.109602
P7    P     P_3+3 0.497078 0.566885 0.727092 0.592157
O21   O     O_2   0.675490 0.547140 0.721820 -0.221739
O22   O     O_3   0.556342 0.676592 0.787480 -0.588037
H22   H     H_    0.788926 0.852722 0.079363 0.248253
C13   C     C_3   0.866999 0.204594 0.700448 0.257146
H23   H     H_    0.803158 0.225471 0.639764 0.071917
H24   H     H_    0.998747 0.207782 0.698575 0.025919
C14   C     C_3   0.783786 0.108280 0.695742 0.289600
H25   H     H_    0.737770 0.076189 0.625008 -0.046384
H26   H     H_    0.676592 0.108140 0.727124 0.194607
P8    P     P_3+3 0.388945 0.218132 0.600018 0.458213
C15   C     C_3   0.384487 0.241743 0.766494 0.218035
H27   H     H_    0.276277 0.196673 0.773450 0.182862
O23   O     O_2   0.500569 0.176873 0.542298 -0.393075
O24   O     O_3   0.462162 0.195416 0.705695 -0.534991
H28   H     H_    0.341095 0.301826 0.745253 -0.025360
C16   C     C_3   0.501804 0.274593 0.856370 0.197068
H29   H     H_    0.451097 0.324782 0.896951 0.042253
H30   H     H_    0.620203 0.308411 0.847482 0.160777
C17   C     C_R   0.167094 0.170486 0.553995 0.225266
C18   C     C_R   0.102555 0.077355 0.540721 0.011799
C19   C     C_R   0.962147 0.893103 0.535196 0.025765
C20   C     C_R   0.129891 0.925165 0.566860 0.028722
C21   C     C_R   0.199074 0.014557 0.568640 -0.042362
C22   C     C_R   0.888549 0.803001 0.539719 0.026788
H31   H     H_    0.208863 0.882066 0.593534 0.206403
H32   H     H_    0.328113 0.035311 0.596787 0.150570
C23   C     C_R   0.715244 0.782825 0.514810 0.106463
C24   C     C_R   0.905261 0.201678 0.475651 0.222442
C25   C     C_R   0.838165 0.107560 0.463988 -0.054018
C26   C     C_R   0.934706 0.046631 0.501593 0.047271
C27   C     C_R   0.677185 0.072311 0.418632 -0.078223
C28   C     C_R   0.605018 0.984334 0.420285 -0.048589
C29   C     C_R   0.694685 0.925050 0.462112 -0.023892
C30   C     C_R   0.863688 0.954775 0.499871 0.124917
C31   C     C_R   0.621045 0.836696 0.466145 0.126860
C32   C     C_R   0.061940 0.230830 0.530216 -0.398782
H33   H     H_    0.476743 0.964001 0.389120 0.189761
H34   H     H_    0.603860 0.113450 0.383764 0.205487
H35   H     H_    0.109739 0.302144 0.546637 0.162318
C33   C     C_R   0.237348 0.453585 0.766440 -0.420655
C34   C     C_R   0.141755 0.416393 0.821054 0.191426
C35   C     C_R   0.211174 0.418847 0.912071 0.310166
C36   C     C_R   0.359543 0.480726 0.954463 -0.079861
C37   C     C_R   0.447951 0.521457 0.895414 -0.238058
C38   C     C_R   0.393819 0.502389 0.801480 0.240557
C39   C     C_R   0.593801 0.541969 0.090392 -0.306087
C40   C     C_R   0.661299 0.561303 0.181813 0.217680
C41   C     C_R   0.404230 0.492992 0.214289 0.258895
C42   C     C_R   0.330322 0.486807 0.122308 -0.188538
C43   C     C_R   0.426552 0.503343 0.056673 0.175796
C44   C     C_R   0.567837 0.533337 0.241741 -0.325429
H36   H     H_    0.677125 0.554950 0.047009 0.143822
H37   H     H_    0.199957 0.463157 0.101800 0.206447
H38   H     H_    0.557089 0.571149 0.920856 0.179466
H39   H     H_    0.628787 0.531838 0.307826 0.177203
H40   H     H_    0.186320 0.447981 0.696153 0.156017
S1    S     S_3+6 0.015078 0.650111 0.817402 -0.021520
O25   O     O_2   0.887618 0.641059 0.873260 -0.320276
O26   O     O_2   0.993517 0.566906 0.749154 -0.250400
O27   O     O_3   0.203395 0.665387 0.882701 -0.587361
H41   H     H_    0.192664 0.696539 0.941468 0.350337
H42   H     H_    0.868230 0.741518 0.728799 0.013253
S2    S     S_3+6 0.191859 0.198922 0.328896 -0.070254
O28   O     O_2   0.032993 0.136277 0.317470 -0.350813
O29   O     O_2   0.329327 0.149854 0.357750 -0.319192
O30   O     O_3   0.203118 0.289772 0.406075 -0.586153
H43   H     H_    0.319273 0.304073 0.437814 0.398135
S3    S     S_3+6 0.109516 0.092772 0.092934 -0.014352
O31   O     O_2   0.001619 0.140973 0.035354 -0.166835
O32   O     O_2   0.183599 0.029302 0.034795 -0.308295
O33   O     O_3   0.997576 0.033505 0.150057 -0.513441
H44   H     H_    0.078546 0.006887 0.188142 0.392759
H45   H     H_    0.623990 0.838191 0.858266 0.123206
S4    S     S_3+6 0.476163 0.917569 0.760328 -0.028084
O34   O     O_2   0.307218 0.938300 0.757604 -0.266164
O35   O     O_2   0.597408 0.995168 0.816009 -0.184689
O36   O     O_3   0.509546 0.899066 0.656073 -0.571672
H46   H     H_    0.529943 0.959004 0.639761 0.347361
S5    S     S_3+6 0.914213 0.039952 0.746952 -0.006235
O37   O     O_2   0.842201 0.943804 0.707340 -0.351872
O38   O     O_2   0.083751 0.059912 0.730328 -0.307554
O39   O     O_3   0.923536 0.056445 0.857077 -0.362337
H47   H     H_    0.981244 0.009104 0.878511 0.397036
S6    S     S_3+6 0.535364 0.187642 0.918343 0.064233
O40   O     O_2   0.700143 0.162901 0.913239 -0.109941
O41   O     O_2   0.533717 0.223028 0.013189 -0.274832
O42   O     O_3   0.387160 0.097253 0.881168 -0.448701
H48   H     H_    0.401118 0.059718 0.927932 0.401509
S7    S     S_3+6 0.858951 0.844317 0.269652 -0.034861
O43   O     O_2   0.828683 0.793852 0.342174 -0.378239
O44   O     O_2   0.027052 0.900772 0.297624 -0.243728
O45   O     O_3   0.716160 0.910075 0.251719 -0.560367
H49   H     H_    0.760635 0.953913 0.217645 0.375815
S8    S     S_3+6 0.612464 0.684202 0.537775 0.015976
O46   O     O_2   0.691231 0.656980 0.619960 -0.315491
O47   O     O_2   0.445804 0.696075 0.549752 -0.234485
O48   O     O_3   0.608478 0.602802 0.452745 -0.456922
H50   H     H_    0.693399 0.628606 0.423102 0.291878
S9    S     S_3+6 0.134753 0.325746 0.957275 0.001755
O49   O     O_2   0.244194 0.315732 0.041596 -0.316370
O50   O     O_2   0.966989 0.334661 0.972513 -0.204927
O51   O     O_3   0.117484 0.231491 0.883279 -0.497743
H51   H     H_    0.167829 0.189015 0.917428 0.434277
S10   S     S_3+6 0.765859 0.353926 0.199102 -0.002274
O52   O     O_2   0.587148 0.347032 0.159496 -0.293500
O53   O     O_2   0.819018 0.431592 0.274717 -0.288413
O54   O     O_3   0.876792 0.364389 0.121462 -0.489391
H52   H     H_    0.816383 0.399250 0.081607 0.391432

loop_
_geom_bond_atom_site_label_1
_geom_bond_atom_site_label_2
_geom_bond_distance
_ccdc_geom_bond_type
C13   H24   1.109160 S    
Ba1   Ba2   4.702231 S    
C27   C28   1.402059 A    
O33   H44   0.989295 S    
P4    O12   1.554784 D    
C4    S10   1.738117 S    
C2    H4    1.108243 S    
S8    O48   1.665067 S    
C20   H31   1.070896 S    
P8    O24   1.745837 S    
O30   H43   0.988757 S    
O16   P7    1.812204 S    
P2    C41   1.914953 S    
C17   C18   1.420822 A    
C11   H19   1.094594 S    
C10   H17   1.111046 S    
P5    O18   1.549597 D    
C5    H8    1.106260 S    
P3    O11   1.755543 S    
O3    P6    1.767007 S    
C4    O15   1.376615 S    
C9    S3    1.781088 S    
O51   H51   0.988353 S    
C2    C3    1.525335 S    
C4    C5    1.522485 S    
O6    P6    1.753956 S    
Ba2   O20   2.825958 S    
S5    O38   1.495009 D    
O48   H50   0.987795 S    
C9    H15   1.108763 S    
C16   H30   1.099501 S    
C11   H20   1.100321 S    
C13   C14   1.524610 S    
C37   C38   1.418187 A    
C14   S5    1.779649 S    
P6    C31   1.894491 S    
C26   C30   1.441375 A    
C18   C26   1.414459 A    
C39   C40   1.398633 A    
P1    O1    1.554401 D    
C15   H27   1.095672 S    
S7    O45   1.680172 S    
C39   H36   1.077312 S    
C14   H26   1.101515 S    
C23   C31   1.421411 A    
C41   C42   1.432253 A    
P3    C40   1.860299 S    
S8    O47   1.480319 D    
O17   Ba2   2.816798 S    
C29   C30   1.417083 A    
P2    O10   1.773260 S    
S2    O30   1.672205 S    
P7    O22   1.750380 S    
S7    O43   1.495696 D    
O4    P6    1.545507 D    
O14   P8    1.749756 S    
C1    H18   1.110045 S    
O10   C8    1.391560 S    
P8    O23   1.545415 D    
C1    H2    1.109439 S    
C12   S4    1.773945 S    
P8    C17   1.872133 S    
C33   H40   1.082538 S    
C40   C44   1.401005 A    
O12   Ba2   2.882864 S    
P2    Ba1   3.470996 S    
C13   H23   1.108205 S    
C3    H5    1.109616 S    
S10   O53   1.493400 D    
P4    O13   1.598711 S    
C33   C34   1.399366 A    
O7    Ba1   2.894303 S    
S4    O36   1.682986 S    
C35   C36   1.439348 A    
S9    O50   1.494950 D    
S9    O49   1.496501 D    
S6    O41   1.494427 D    
S1    O26   1.494868 D    
P5    O17   1.739766 S    
C8    S2    1.781473 S    
P1    O5    1.781377 S    
C7    H13   1.094312 S    
Ba1   O16   2.826437 S    
Ba2   O21   2.894411 S    
C20   C21   1.402554 A    
S4    O35   1.492976 D    
S5    O39   1.676294 S    
C35   S9    1.771907 S    
O2    Ba2   2.872786 S    
C16   H29   1.100931 S    
O11   C2    1.405683 S    
C23   S8    1.748879 S    
O16   Ba2   2.972170 S    
P7    C38   1.879572 S    
Ba1   O20   2.973091 S    
C39   C43   1.418008 A    
C37   H38   1.077186 S    
C12   H21   1.101800 S    
P1    O2    1.598684 S    
C7    H12   1.111767 S    
O2    Ba1   2.984996 S    
S3    O32   1.502220 D    
P7    O21   1.585960 D    
C25   C27   1.398365 A    
S6    O42   1.678345 S    
C1    H3    1.109109 S    
C2    S7    1.776752 S    
C19   C20   1.398695 A    
C27   H34   1.074097 S    
C11   O22   1.382570 S    
C15   C16   1.523315 S    
C33   C38   1.389276 A    
O54   H52   0.990767 S    
C4    H7    1.091106 S    
S1    O25   1.503397 D    
O19   C13   1.407457 S    
C12   H45   1.112557 S    
C6    S1    1.772890 S    
O45   H49   0.988799 S    
P2    O20   1.586671 S    
C5    H10   1.102232 S    
C44   H39   1.064226 S    
O14   Ba2   2.880771 S    
C36   C43   1.551988 S    
P2    O7    1.532498 D    
C28   C29   1.412008 A    
P3    O8    1.763007 S    
S10   O52   1.499172 D    
C15   O24   1.405417 S    
Ba1   O13   2.872101 S    
S3    O33   1.675075 S    
C1    C10   1.520775 S    
O6    C10   1.405152 S    
C32   H35   1.082395 S    
C25   C26   1.436060 A    
S9    O51   1.673593 S    
O8    Ba1   2.816296 S    
S6    O40   1.499508 D    
P5    C34   1.869559 S    
C21   H32   1.076897 S    
P1    C22   1.955284 S    
S8    O46   1.470589 D    
C15   H28   1.105538 S    
C42   C43   1.443291 A    
C3    H22   1.110562 S    
C6    C7    1.522949 S    
O39   H47   0.989058 S    
C11   C12   1.511082 S    
C22   C23   1.415838 A    
H1    C10   1.111832 S    
C6    H42   1.082615 S    
O36   H46   0.986565 S    
C29   C31   1.420441 A    
C18   C21   1.405814 A    
C36   C37   1.440553 A    
P5    O19   1.753619 S    
C5    H9    1.105387 S    
O1    Ba1   2.882388 S    
C7    H11   1.102685 S    
C3    H6    1.110649 S    
S3    O31   1.498914 D    
S5    O37   1.499878 D    
C9    H16   1.102586 S    
O13   Ba2   2.986012 S    
C24   C25   1.441711 A    
S2    O28   1.497948 D    
C28   H33   1.079934 S    
C19   C30   1.440847 A    
C8    C9    1.546736 S    
P1    Ba1   3.453807 S    
S1    O27   1.682047 S    
P4    Ba2   3.454461 S    
O5    C6    1.410249 S    
S7    O44   1.503044 D    
C14   H25   1.107573 S    
C16   S6    1.775620 S    
C19   C22   1.446339 A    
S10   O54   1.667926 S    
C8    H14   1.104772 S    
C17   C32   1.405185 A    
P3    O9    1.540435 D    
C41   C44   1.388799 A    
C34   C35   1.418963 A    
S2    O29   1.499579 D    
P4    O15   1.742901 S    
S4    O34   1.493261 D    
C42   H37   1.078578 S    
O27   H41   0.989909 S    
O42   H48   0.990310 S    
C24   C32   1.403043 A    
O3    Ba1   2.881479 S    
P4    C24   1.924517 S    
