data_mof_unit_7708.cif
_audit_creation_date              2012-12-11T15:49:13-0500
_audit_creation_method            fapswitch 2.2
_symmetry_space_group_name_H-M    P1
_symmetry_Int_Tables_number       1
_space_group_crystal_system       triclinic
_cell_length_a                    21.688428
_cell_length_b                    7.174578
_cell_length_c                    14.871311
_cell_angle_alpha                 90.000077
_cell_angle_beta                  106.064138
_cell_angle_gamma                 89.999531
_cell_volume                      2223.69710947

loop_
_atom_site_label
_atom_site_type_symbol
_atom_type_description
_atom_site_fract_x
_atom_site_fract_y
_atom_site_fract_z
_atom_type_partial_charge
O1    O     O_R   0.335860 0.638190 0.002110 -0.548709
O2    O     O_R   0.664140 0.361810 0.997890 -0.548709
O3    O     O_R   0.164140 0.138190 0.997890 -0.548709
O4    O     O_R   0.835860 0.861810 0.002110 -0.548709
O5    O     O_R   0.217530 0.305920 0.861960 -0.535688
O6    O     O_R   0.782470 0.694080 0.138040 -0.535688
O7    O     O_R   0.282470 0.805920 0.138040 -0.535689
O8    O     O_R   0.717530 0.194080 0.861960 -0.535689
C1    C     C_R   0.205072 0.476731 0.826035 0.792188
C2    C     C_R   0.794928 0.523269 0.173965 0.792187
C3    C     C_R   0.294929 0.976730 0.173965 0.792169
C4    C     C_R   0.705071 0.023270 0.826035 0.792169
O9    O     O_R   0.338690 0.308320 0.993240 -0.525940
O10   O     O_R   0.661310 0.691680 0.006760 -0.525940
O11   O     O_R   0.161310 0.808320 0.006760 -0.525943
O12   O     O_R   0.838690 0.191680 0.993240 -0.525943
O13   O     O_R   0.286170 0.140430 0.130100 -0.524915
O14   O     O_R   0.713830 0.859570 0.869900 -0.524915
O15   O     O_R   0.213830 0.640430 0.869900 -0.524922
O16   O     O_R   0.786170 0.359570 0.130100 -0.524922
C5    C     C_R   0.365062 0.476235 0.998105 0.769555
C6    C     C_R   0.634937 0.523765 0.001895 0.769553
C7    C     C_R   0.134938 0.976236 0.001898 0.769542
C8    C     C_R   0.865062 0.023763 0.998102 0.769544
O17   O     O_3   0.232630 0.472410 0.044750 -0.376704
O18   O     O_3   0.767370 0.527590 0.955250 -0.376703
O19   O     O_3   0.267370 0.972410 0.955250 -0.376702
O20   O     O_3   0.732630 0.027590 0.044750 -0.376703
V1    V     V_3+5 0.253220 0.196620 0.991700 1.580189
V2    V     V_3+5 0.746780 0.803380 0.008300 1.580189
V3    V     V_3+5 0.246780 0.696620 0.008300 1.580185
V4    V     V_3+5 0.753220 0.303380 0.991700 1.580185
C9    C     C_R   0.032841 0.831156 0.026485 0.429673
C10   C     C_R   0.967159 0.168844 0.973515 0.429673
C11   C     C_R   0.467168 0.331132 0.973555 0.429669
C12   C     C_R   0.532832 0.668868 0.026445 0.429669
C13   C     C_R   0.968676 0.849413 0.027050 -0.164536
C14   C     C_R   0.031324 0.150587 0.972950 -0.164536
C15   C     C_R   0.531331 0.349391 0.972984 -0.164466
C16   C     C_R   0.468669 0.650609 0.027016 -0.164466
H1    H     H_    0.945571 0.730523 0.048797 0.173206
H2    H     H_    0.054428 0.269477 0.951203 0.173206
H3    H     H_    0.554442 0.230482 0.951264 0.173197
H4    H     H_    0.445558 0.769518 0.048736 0.173197
C17   C     C_R   0.934337 0.015742 0.999676 -0.180594
C18   C     C_R   0.065663 0.984258 0.000324 -0.180594
C19   C     C_R   0.565662 0.515744 0.000320 -0.180627
C20   C     C_R   0.434338 0.484256 0.999680 -0.180627
C21   C     C_R   0.676263 0.014992 0.724754 -0.135794
C22   C     C_R   0.323737 0.985007 0.275245 -0.135795
C23   C     C_R   0.823737 0.514986 0.275246 -0.135792
C24   C     C_R   0.176263 0.485014 0.724754 -0.135792
C25   C     C_R   0.688807 0.002903 0.568655 -0.160053
C26   C     C_R   0.311193 0.997097 0.431344 -0.160053
C27   C     C_R   0.811193 0.502756 0.431342 -0.160042
C28   C     C_R   0.188807 0.497244 0.568658 -0.160043
C29   C     C_R   0.715523 0.024654 0.664440 0.222081
C30   C     C_R   0.284477 0.975345 0.335560 0.222081
C31   C     C_R   0.784475 0.524559 0.335560 0.222084
C32   C     C_R   0.215525 0.475441 0.664439 0.222084
C33   C     C_R   0.609542 0.990658 0.688645 0.152383
C34   C     C_R   0.390458 0.009343 0.311355 0.152383
C35   C     C_R   0.890460 0.490701 0.311354 0.152374
C36   C     C_R   0.109540 0.509298 0.688646 0.152374
C37   C     C_R   0.580834 0.002356 0.590121 0.027874
C38   C     C_R   0.419165 0.997644 0.409879 0.027874
C39   C     C_R   0.919166 0.502348 0.409880 0.027870
C40   C     C_R   0.080834 0.497651 0.590120 0.027870
C41   C     C_R   0.621845 0.990010 0.530170 -0.060766
C42   C     C_R   0.378155 0.009990 0.469830 -0.060766
C43   C     C_R   0.878155 0.489897 0.469828 -0.060760
C44   C     C_R   0.121845 0.510103 0.530172 -0.060760
C45   C     C_R   0.513113 0.017370 0.548575 -0.015223
C46   C     C_R   0.486887 0.982631 0.451425 -0.015223
C47   C     C_R   0.986885 0.517400 0.451429 -0.015222
C48   C     C_R   0.013114 0.482599 0.548571 -0.015222
C49   C     C_R   0.528943 0.926210 0.399828 -0.074055
C50   C     C_R   0.471057 0.073791 0.600172 -0.074055
C51   C     C_R   0.971064 0.426076 0.600158 -0.074053
C52   C     C_R   0.028936 0.573923 0.399842 -0.074053
C53   C     C_R   0.594884 0.950017 0.434188 0.400704
C54   C     C_R   0.405116 0.049984 0.565812 0.400703
C55   C     C_R   0.905120 0.449832 0.565802 0.400704
C56   C     C_R   0.094879 0.550167 0.434198 0.400704
H5    H     H_    0.721587 0.993445 0.525810 0.165763
H6    H     H_    0.278413 0.006555 0.474190 0.165763
H7    H     H_    0.778412 0.493231 0.474185 0.165731
H8    H     H_    0.221587 0.506769 0.525815 0.165731
H9    H     H_    0.511247 0.866116 0.331024 0.198245
H10   H     H_    0.488753 0.133885 0.668976 0.198245
H11   H     H_    0.988766 0.365934 0.668951 0.198245
H12   H     H_    0.011234 0.634064 0.331049 0.198244
O21   O     O_3   0.062280 0.663041 0.054067 -0.601483
H13   H     H_    0.071752 0.609809 0.997854 0.317923
O22   O     O_3   0.937720 0.336960 0.945933 -0.601483
H14   H     H_    0.928248 0.390191 0.002146 0.317923
O23   O     O_3   0.437740 0.162985 0.946019 -0.601507
H15   H     H_    0.428261 0.109830 0.002242 0.317943
O24   O     O_3   0.562260 0.837015 0.053981 -0.601507
H16   H     H_    0.571739 0.890170 0.997758 0.317943
O25   O     O_3   0.631190 0.921837 0.372571 -0.589021
H17   H     H_    0.665164 0.018065 0.384595 0.314815
O26   O     O_3   0.368810 0.078163 0.627429 -0.589021
H18   H     H_    0.334836 0.981936 0.615405 0.314816
O27   O     O_3   0.868817 0.421514 0.627411 -0.589004
H19   H     H_    0.834824 0.517684 0.615406 0.314823
O28   O     O_3   0.131183 0.578485 0.372589 -0.589004
H20   H     H_    0.165175 0.482315 0.384594 0.314823
Br1   Br    Br    0.435741 0.109372 0.225914 -0.578081
Br2   Br    Br    0.564259 0.890629 0.774086 -0.578081
Br3   Br    Br    0.064244 0.609205 0.774100 -0.578054
Br4   Br    Br    0.935755 0.390793 0.225900 -0.578054
Br5   Br    Br    0.192818 0.954774 0.288683 -0.473000
Br6   Br    Br    0.807182 0.045225 0.711317 -0.473000
Br7   Br    Br    0.307185 0.454908 0.711313 -0.473078
Br8   Br    Br    0.692815 0.545093 0.288687 -0.473078

loop_
_geom_bond_atom_site_label_1
_geom_bond_atom_site_label_2
_ccdc_geom_bond_type
O17   V3    S    
O18   V4    S    
O25   H17   S    
C27   C31   A    
O19   V1    S    
O13   V1    S    
C45   C46   A    
O1    C5    A    
O3    C7    A    
O22   H14   S    
C48   C51   A    
C52   C56   A    
O15   V3    S    
C4    C21   S    
C21   C29   A    
C53   O25   S    
C50   H10   S    
O7    C3    A    
C49   H9    S    
O21   H13   S    
C8    C17   S    
C36   C40   A    
O9    V1    S    
C14   H2    S    
O16   V4    S    
O4    C8    A    
C28   H8    S    
C2    C23   S    
C38   C46   A    
O1    V3    S    
C56   O28   S    
C37   C45   A    
C12   C19   A    
O2    V4    S    
C35   Br4   S    
O3    V1    S    
O12   V4    S    
C24   C32   A    
C1    O15   A    
C2    O16   A    
C31   Br8   S    
C28   C44   A    
C46   C49   A    
O2    C6    A    
C30   Br5   S    
C54   O26   S    
O14   V2    S    
C47   C52   A    
O5    V1    S    
C23   C35   A    
O8    C4    A    
C5    C20   S    
O11   C7    A    
C6    C19   S    
C25   C41   A    
O12   C8    A    
C7    C18   S    
C27   H7    S    
C9    C18   A    
C1    C24   S    
O10   V2    S    
C11   C20   A    
O23   H15   S    
C43   C55   A    
C35   C39   A    
C21   C33   A    
C34   C38   A    
C22   C30   A    
C12   C16   A    
O7    V3    S    
C10   O22   S    
C24   C36   A    
C26   H6    S    
C25   C29   A    
C36   Br3   S    
C15   H3    S    
C45   C50   A    
C9    C13   A    
C28   C32   A    
O8    V4    S    
C52   H12   S    
C11   C15   A    
C47   C48   A    
O5    C1    A    
C33   C37   A    
C50   C54   A    
O24   H16   S    
C26   C42   A    
C49   C53   A    
C40   C44   A    
O9    C5    A    
C10   C17   A    
C33   Br2   S    
C44   C56   A    
O6    V2    S    
C22   C34   A    
C23   C31   A    
O28   H20   S    
C13   C17   A    
C15   C19   A    
C26   C30   A    
C16   C20   A    
C3    O13   A    
C10   C14   A    
C51   H11   S    
C9    O21   S    
O6    C2    A    
O11   V3    S    
C29   Br6   S    
C40   C48   A    
O27   H19   S    
O10   C6    A    
O20   V2    S    
C3    C22   S    
C51   C55   A    
C38   C42   A    
C34   Br1   S    
C37   C41   A    
C12   O24   S    
C39   C43   A    
C13   H1    S    
C42   C54   A    
C27   C43   A    
C14   C18   A    
C41   C53   A    
C55   O27   S    
C16   H4    S    
C39   C47   A    
C4    O14   A    
O26   H18   S    
C32   Br7   S    
C25   H5    S    
C11   O23   S    
O4    V2    S    
