data_mof_unit_9749.cif
_audit_creation_date              2012-12-10T19:03:07-0500
_audit_creation_method            fapswitch 2.2
_symmetry_space_group_name_H-M    P1
_symmetry_Int_Tables_number       1
_space_group_crystal_system       triclinic
_cell_length_a                    10.866681
_cell_length_b                    10.843846
_cell_length_c                    9.583122
_cell_angle_alpha                 90.980581
_cell_angle_beta                  89.902575
_cell_angle_gamma                 92.63046
_cell_volume                      1127.88711804

loop_
_atom_site_label
_atom_site_type_symbol
_atom_type_description
_atom_site_fract_x
_atom_site_fract_y
_atom_site_fract_z
_atom_type_partial_charge
C1    C     C_R   0.501187 0.262540 0.498895 0.852213
C2    C     C_3   0.877611 0.498842 0.503301 -0.023631
C3    C     C_3   0.932799 0.626029 0.447675 -0.265353
C4    C     C_3   0.926075 0.397440 0.403456 -0.382296
C5    C     C_R   0.507111 0.067073 0.622659 0.134972
C6    C     C_R   0.511193 0.129870 0.497364 -0.087433
C7    C     C_R   0.529182 0.063373 0.372961 -0.180121
C8    C     C_R   0.528782 0.934905 0.374981 -0.167417
C9    C     C_R   0.515406 0.871750 0.501896 -0.121684
C10   C     C_R   0.514812 0.940205 0.627151 0.102736
C11   C     C_3   0.424089 0.932176 0.745445 -0.221159
C12   C     C_R   0.260002 0.500275 0.501620 0.817293
C13   C     C_3   0.409836 0.069837 0.731914 -0.506598
C14   C     C_R   0.567288 0.588780 0.075699 0.250716
C15   C     C_R   0.426454 0.418258 0.070373 0.240612
C16   C     C_R   0.427038 0.419114 0.922701 -0.015742
C17   C     C_R   0.567670 0.587668 0.928102 0.255720
C18   C     C_3   0.703549 0.605084 0.922956 -0.458017
C19   C     C_3   0.704219 0.608981 0.080305 -0.094346
C20   C     C_R   0.503101 0.737799 0.500952 0.837164
C21   C     C_R   0.739685 0.497745 0.500103 0.838896
C22   C     C_3   0.069176 0.496251 0.666854 -0.173946
C23   C     C_3   0.924211 0.474862 0.656070 -0.252553
C24   C     C_3   0.076191 0.619502 0.431847 -0.255244
C25   C     C_3   0.066303 0.389123 0.422139 -0.373072
C26   C     C_3   0.121950 0.502588 0.508916 -0.096480
Cu1   Cu    Cu3+1 0.499990 0.499980 0.640670 1.023347
Cu2   Cu    Cu3+1 0.500010 0.500020 0.359330 1.015636
H1    H     H_    0.906616 0.421310 0.293348 0.192045
H2    H     H_    0.090831 0.599397 0.318517 0.189876
H3    H     H_    0.897099 0.632975 0.339988 0.151103
H4    H     H_    0.536869 0.109461 0.273760 0.189215
H5    H     H_    0.532102 0.885322 0.276348 0.205352
H6    H     H_    0.339015 0.875696 0.719970 0.196451
H7    H     H_    0.319572 0.090467 0.686387 0.214791
H8    H     H_    0.438324 0.127933 0.824129 0.222442
H9    H     H_    0.370642 0.351801 0.864440 0.163389
H10   H     H_    0.745173 0.521074 0.882441 0.208867
H11   H     H_    0.733795 0.692891 0.872836 0.273180
H12   H     H_    0.751771 0.530463 0.125729 0.174135
H13   H     H_    0.881798 0.544735 0.721764 0.184272
H14   H     H_    0.108108 0.386740 0.316519 0.219639
H15   H     H_    0.085656 0.299565 0.468503 0.248391
H16   H     H_    0.879542 0.305546 0.416660 0.235804
N1    N     N_R   0.500800 0.500930 0.147930 -0.231879
N2    N     N_R   0.500800 0.500890 0.852020 -0.207433
O1    O     O_R   0.500000 0.319640 0.618810 -0.580397
O2    O     O_R   0.500010 0.319680 0.381230 -0.575144
O3    O     O_R   0.317690 0.499960 0.618790 -0.545966
O4    O     O_R   0.317700 0.500000 0.381210 -0.554844
O5    O     O_R   0.499990 0.680320 0.618770 -0.561594
O6    O     O_R   0.500000 0.680360 0.381190 -0.560816
O7    O     O_R   0.682300 0.500000 0.618790 -0.576769
O8    O     O_R   0.682310 0.500040 0.381210 -0.607542
C27   C     C_2   0.103356 0.616713 0.750958 0.905510
O9    O     O_2   0.025924 0.690512 0.783253 -0.532869
O10   O     O_R   0.223690 0.639864 0.799402 -0.710278
H17   H     H_    0.232298 0.717339 0.859776 0.367896
C28   C     C_2   0.482034 0.903219 0.882798 0.915120
O11   O     O_2   0.431973 0.827032 0.959093 -0.600380
O12   O     O_R   0.588474 0.970057 0.926653 -0.734693
H18   H     H_    0.606370 0.958481 0.028923 0.343975
I1    I     I_    0.309034 0.277779 0.155782 -0.311245
C29   C     C_2   0.122354 0.392557 0.753741 0.891024
O13   O     O_2   0.122731 0.401211 0.881496 -0.543833
O14   O     O_R   0.164994 0.285712 0.690977 -0.793185
H19   H     H_    0.185083 0.222240 0.762715 0.336893
I2    I     I_    0.765043 0.787050 0.158247 -0.298403
C30   C     C_2   0.870986 0.353782 0.719773 0.868451
O15   O     O_2   0.877791 0.339685 0.845887 -0.565091
O16   O     O_R   0.808416 0.262672 0.638888 -0.778961
H20   H     H_    0.776111 0.190139 0.695822 0.354204
C31   C     C_2   0.152612 0.740033 0.451222 0.880435
O17   O     O_2   0.153778 0.797815 0.561585 -0.579207
O18   O     O_R   0.220665 0.786603 0.338204 -0.716815
H21   H     H_    0.265083 0.868733 0.360817 0.342711
C32   C     C_2   0.887989 0.742326 0.519792 0.941573
O19   O     O_2   0.820077 0.736476 0.621370 -0.599384
O20   O     O_R   0.918386 0.857553 0.462534 -0.698298
H22   H     H_    0.881179 0.928051 0.516386 0.354066

loop_
_geom_bond_atom_site_label_1
_geom_bond_atom_site_label_2
_ccdc_geom_bond_type
C27   O9    D    
C11   C13   S    
C31   O17   D    
C23   C30   S    
C18   H11   S    
C25   H15   S    
C12   O3    A    
C7    C8    A    
C32   O19   D    
C24   C26   S    
C13   H7    S    
C20   O5    A    
C21   O8    A    
C24   C31   S    
C15   C16   A    
C18   C19   S    
C30   O16   S    
Cu2   O4    S    
C8    C9    A    
C9    C10   A    
C5    C13   S    
C4    H1    S    
C16   H9    S    
O14   H19   S    
C28   O11   D    
C31   O18   S    
C14   C17   A    
C3    C24   S    
C30   O15   D    
C11   C28   S    
Cu1   O5    S    
C4    C25   S    
C14   N1    A    
C32   O20   S    
Cu2   N1    S    
C28   O12   S    
C1    C6    S    
C17   N2    A    
C13   H8    S    
C19   H12   S    
C16   N2    A    
Cu2   O8    S    
C1    O1    A    
C4    H16   S    
C25   C26   S    
C12   C26   S    
C29   O14   S    
C2    C4    S    
O18   H21   S    
C9    C20   S    
C2    C21   S    
C17   C18   S    
C19   I2    S    
C3    H3    S    
C6    C7    A    
Cu1   N2    S    
C27   O10   S    
C15   N1    A    
C3    C32   S    
C2    C23   S    
Cu1   O1    S    
Cu2   O2    S    
C7    H4    S    
C14   C19   S    
C11   H6    S    
C25   H14   S    
C12   O4    A    
Cu1   O7    S    
C1    O2    A    
C22   C27   S    
C23   H13   S    
C29   O13   D    
C2    C3    S    
C18   H10   S    
C5    C10   A    
C20   O6    A    
C21   O7    A    
Cu2   O6    S    
O10   H17   S    
C5    C6    A    
C8    H5    S    
O12   H18   S    
C24   H2    S    
C10   C11   S    
C22   C29   S    
O20   H22   S    
O16   H20   S    
C22   C26   S    
Cu1   Cu2   S    
C15   I1    S    
C22   C23   S    
Cu1   O3    S    
