data_mof_unit_60200.cif
_audit_creation_date              2012-12-10T17:59:58-0500
_audit_creation_method            fapswitch 2.2
_symmetry_space_group_name_H-M    P1
_symmetry_Int_Tables_number       1
_space_group_crystal_system       triclinic
_cell_length_a                    30.835423
_cell_length_b                    31.993707
_cell_length_c                    21.74216
_cell_angle_alpha                 90.14444
_cell_angle_beta                  135.183917
_cell_angle_gamma                 90.180353
_cell_volume                      15117.9039546

loop_
_atom_site_label
_atom_site_type_symbol
_atom_type_description
_atom_site_fract_x
_atom_site_fract_y
_atom_site_fract_z
_atom_type_partial_charge
C1    C     C_R   0.499875 0.999698 0.381145 0.787510
C2    C     C_R   0.999874 0.499671 0.381173 0.785159
C3    C     C_3   0.462455 0.735544 0.506496 0.645861
C4    C     C_3   0.535692 0.264470 0.580743 0.659206
C5    C     C_3   0.055161 0.236239 0.540985 0.648565
C6    C     C_3   0.944859 0.763757 0.460261 0.647233
C7    C     C_3   0.500208 0.708391 0.500078 -0.003562
C8    C     C_3   0.498783 0.291464 0.498435 -0.009871
C9    C     C_3   0.999330 0.208427 0.500474 -0.002814
C10   C     C_3   0.000489 0.791531 0.499696 -0.008606
C11   C     C_3   0.519240 0.764016 0.575266 -0.285288
C12   C     C_3   0.558119 0.236658 0.549486 -0.287579
C13   C     C_3   0.014365 0.263798 0.458283 -0.282401
C14   C     C_3   0.986222 0.736250 0.543060 -0.291324
C15   C     C_3   0.557713 0.736256 0.569297 -0.221492
C16   C     C_3   0.521051 0.264210 0.466270 -0.222563
C17   C     C_3   0.957790 0.235389 0.416861 -0.221520
C18   C     C_3   0.042592 0.764616 0.583394 -0.211048
C19   C     C_1   0.499203 0.837348 0.499693 0.000469
C20   C     C_1   0.500673 0.162569 0.500725 -0.001919
C21   C     C_1   0.999375 0.337376 0.499933 -0.005572
C22   C     C_1   0.000521 0.662602 0.500530 -0.000220
C23   C     C_1   0.500319 0.662605 0.500434 0.022397
C24   C     C_1   0.498960 0.337298 0.498736 0.041845
C25   C     C_1   0.999855 0.162630 0.500588 0.022315
C26   C     C_1   0.000087 0.837342 0.499536 0.043817
C27   C     C_R   0.455230 0.019189 0.235664 -0.027011
C28   C     C_R   0.957046 0.520854 0.237639 -0.030892
C29   C     C_R   0.500004 0.998875 0.314850 -0.104273
C30   C     C_R   0.999955 0.498781 0.314887 -0.100163
C31   C     C_R   0.546811 0.977965 0.329204 -0.176004
C32   C     C_R   0.044890 0.476082 0.327376 -0.173344
C33   C     C_R   0.546841 0.977772 0.264434 -0.158430
C34   C     C_R   0.044896 0.475916 0.262569 -0.166859
C35   C     C_R   0.499824 0.919890 0.499802 0.813854
C36   C     C_R   0.500192 0.080089 0.500212 0.806982
C37   C     C_R   0.999840 0.419896 0.499990 0.804525
C38   C     C_R   0.000194 0.580098 0.500064 0.804038
C39   C     C_R   0.501718 0.000055 0.186494 -0.080645
C40   C     C_R   0.001821 0.500025 0.186684 -0.075407
C41   C     C_R   0.457535 0.021018 0.175799 -0.044723
C42   C     C_R   0.959597 0.522747 0.178042 -0.036124
C43   C     C_3   0.401552 0.047889 0.113616 0.399487
C44   C     C_3   0.906321 0.552086 0.118839 0.394991
C45   C     C_3   0.396932 0.044217 0.181191 0.440994
C46   C     C_3   0.901362 0.548415 0.186048 0.435692
C47   C     C_R   0.462483 0.025085 0.681270 -0.123207
C48   C     C_R   0.044768 0.478829 0.763267 -0.084449
C49   C     C_R   0.500612 0.998596 0.686041 -0.148799
C50   C     C_R   0.001088 0.501407 0.686329 -0.140082
C51   C     C_R   0.545236 0.975577 0.762990 -0.242781
C52   C     C_R   0.960413 0.527393 0.677717 -0.248966
C53   C     C_R   0.545838 0.975651 0.828154 0.605294
C54   C     C_R   0.960270 0.527540 0.742011 0.598055
C55   C     C_R   0.504002 0.000742 0.818707 -0.191859
C56   C     C_R   0.999599 0.500615 0.814042 -0.178010
C57   C     C_R   0.466789 0.028186 0.748631 -0.125802
C58   C     C_R   0.043484 0.478066 0.825441 -0.170933
C59   C     C_R   0.500038 0.999020 0.618816 0.833027
C60   C     C_R   0.000208 0.500116 0.618932 0.820411
C61   C     C_3   0.400331 0.038758 0.689065 1.063926
C62   C     C_3   0.062455 0.433289 0.847517 1.093780
C63   C     C_3   0.394468 0.034388 0.612871 0.338344
C64   C     C_3   0.065532 0.433970 0.779894 0.295091
C65   C     C_R   0.381310 0.500229 0.381289 0.826860
C66   C     C_R   0.881481 0.000341 0.381345 0.833139
C67   C     C_R   0.500257 0.580111 0.500319 0.802796
C68   C     C_R   0.499732 0.419865 0.499670 0.823878
C69   C     C_R   0.000238 0.080118 0.500321 0.806112
C70   C     C_R   0.999869 0.919875 0.499790 0.840231
C71   C     C_R   0.618687 0.499540 0.618919 0.893532
C72   C     C_R   0.118517 0.999902 0.618765 0.907880
C73   C     C_R   0.618902 0.000169 0.118582 0.836100
C74   C     C_R   0.119065 0.500178 0.118291 0.826251
C75   C     C_R   0.500564 0.000056 0.119294 0.783226
C76   C     C_R   0.000626 0.500054 0.119385 0.783971
C77   C     C_R   0.380825 0.999881 0.881575 0.887023
C78   C     C_R   0.881023 0.499933 0.881207 0.871832
C79   C     C_R   0.501117 0.000041 0.882198 0.909102
C80   C     C_R   0.999265 0.499991 0.880259 0.871467
C81   C     C_R   0.282290 0.473036 0.317800 -0.097051
C82   C     C_R   0.781519 0.971022 0.309775 -0.137034
C83   C     C_3   0.480158 0.735573 0.424463 -0.292105
C84   C     C_3   0.440850 0.263446 0.449242 -0.290331
C85   C     C_3   0.984379 0.235873 0.542440 -0.293381
C86   C     C_3   0.014632 0.763983 0.456804 -0.289371
C87   C     C_R   0.314899 0.502270 0.315834 -0.049961
C88   C     C_R   0.815407 0.001993 0.314877 -0.041468
C89   C     C_R   0.282595 0.534750 0.253933 0.240754
C90   C     C_R   0.782785 0.034258 0.251858 0.244164
C91   C     C_R   0.717643 0.033545 0.186689 -0.243539
C92   C     C_R   0.217891 0.534039 0.189314 -0.242797
C93   C     C_R   0.685224 0.000883 0.183610 -0.117273
C94   C     C_R   0.185766 0.501202 0.185902 -0.105386
C95   C     C_R   0.719507 0.970072 0.246288 0.014092
C96   C     C_R   0.218793 0.472183 0.253314 -0.024076
C97   C     C_3   0.716038 0.930838 0.279305 1.142344
C98   C     C_3   0.217208 0.425501 0.251115 1.158332
C99   C     C_3   0.287059 0.426483 0.322754 -0.545586
C100  C     C_3   0.786893 0.931695 0.351273 -0.500987
C101  C     C_R   0.718237 0.529822 0.687361 0.008027
C102  C     C_R   0.217734 0.036246 0.709311 -0.008760
C103  C     C_R   0.685328 0.499819 0.687267 -0.297053
C104  C     C_R   0.184810 0.999559 0.686915 -0.273886
C105  C     C_R   0.717569 0.472973 0.759392 0.523684
C106  C     C_R   0.216321 0.964229 0.739849 0.512594
C107  C     C_3   0.536627 0.763834 0.494024 0.308141
C108  C     C_3   0.464311 0.235826 0.419560 0.312393
C109  C     C_3   0.944462 0.263244 0.459882 0.307553
C110  C     C_3   0.055120 0.736675 0.539476 0.300586
C111  C     C_R   0.280831 0.964172 0.805492 0.530718
C112  C     C_R   0.782070 0.472793 0.823784 0.511216
C113  C     C_R   0.313928 0.999889 0.819224 -0.295412
C114  C     C_R   0.814444 0.500343 0.817533 -0.305080
C115  C     C_R   0.281157 0.036447 0.774381 0.020814
C116  C     C_R   0.781724 0.530431 0.752055 0.033198
C117  C     C_3   0.285230 0.066185 0.725763 -0.308747
C118  C     C_3   0.785538 0.541863 0.689447 -0.344683
C119  C     C_3   0.715617 0.541058 0.618206 -0.420581
C120  C     C_3   0.215293 0.065811 0.654022 -0.427124
C121  C     C_1   0.499390 0.875028 0.499594 -0.153362
C122  C     C_1   0.500542 0.124910 0.500591 -0.166994
C123  C     C_1   0.999478 0.375049 0.499941 -0.154366
C124  C     C_1   0.000523 0.624935 0.500398 -0.158172
C125  C     C_1   0.500352 0.624942 0.500529 -0.158646
C126  C     C_1   0.499294 0.374989 0.499124 -0.128293
C127  C     C_1   0.000143 0.124961 0.500509 -0.157792
C128  C     C_1   0.999927 0.875020 0.499627 -0.120415
C129  C     C_3   0.443439 0.762949 0.432990 0.178423
C130  C     C_3   0.479034 0.236263 0.531975 0.172193
C131  C     C_3   0.039940 0.263892 0.581173 0.180475
C132  C     C_3   0.959303 0.736008 0.419172 0.180651
C133  C     C_3   0.499339 0.791489 0.500228 -0.010380
C134  C     C_3   0.500684 0.208399 0.500694 -0.009511
C135  C     C_3   0.999502 0.291525 0.499862 -0.011395
C136  C     C_3   0.000293 0.708443 0.500574 -0.007561
Cu1   Cu    Cu3+1 0.438230 1.000000 0.438170 0.953126
Cu2   Cu    Cu3+1 0.938230 0.500000 0.438170 0.981478
Cu3   Cu    Cu3+1 0.561800 1.000000 0.561830 0.982973
Cu4   Cu    Cu3+1 0.061800 0.500000 0.561830 0.976952
Cu5   Cu    Cu3+1 0.499880 0.500000 0.438060 0.981548
Cu6   Cu    Cu3+1 0.999880 1.000000 0.438060 0.999540
Cu7   Cu    Cu3+1 0.500000 0.500000 0.561790 1.029669
Cu8   Cu    Cu3+1 1.000000 0.000000 0.561790 0.998723
Cu9   Cu    Cu3+1 0.500030 0.958570 0.000020 1.135439
Cu10  Cu    Cu3+1 0.500030 0.041430 0.000020 0.980502
Cu11  Cu    Cu3+1 0.000030 0.458570 0.000020 1.145976
Cu12  Cu    Cu3+1 0.000030 0.541430 0.000020 0.976571
H1    H     H_    0.577594 0.956164 0.770826 0.179721
H2    H     H_    0.928183 0.546927 0.620759 0.177985
H3    H     H_    0.692701 0.058342 0.138924 0.161457
H4    H     H_    0.192913 0.558309 0.140331 0.158147
H5    H     H_    0.308779 0.414051 0.302062 0.187859
H6    H     H_    0.306868 0.414638 0.386378 0.203982
H7    H     H_    0.808276 0.906142 0.345628 0.207348
H8    H     H_    0.807074 0.937242 0.417880 0.205940
H9    H     H_    0.464722 0.724109 0.363203 0.160920
H10   H     H_    0.392875 0.274229 0.407660 0.167092
H11   H     H_    0.971590 0.224631 0.576136 0.160252
H12   H     H_    0.026754 0.775151 0.422220 0.161518
H13   H     H_    0.305065 0.096895 0.759647 0.206221
H14   H     H_    0.306217 0.051957 0.705340 0.264518
H15   H     H_    0.806646 0.516906 0.682082 0.214920
H16   H     H_    0.805315 0.573653 0.702557 0.225772
H17   H     H_    0.696120 0.515557 0.569538 0.213618
H18   H     H_    0.695116 0.572379 0.590188 0.197213
H19   H     H_    0.195814 0.051234 0.592141 0.214587
H20   H     H_    0.194839 0.096297 0.646614 0.213383
H21   H     H_    0.605210 0.724981 0.625152 0.162950
H22   H     H_    0.537711 0.275984 0.437988 0.165958
H23   H     H_    0.923189 0.223341 0.348772 0.165169
H24   H     H_    0.077662 0.776681 0.651447 0.175753
H25   H     H_    0.534592 0.775706 0.636345 0.181896
H26   H     H_    0.605965 0.225610 0.590980 0.182459
H27   H     H_    0.027134 0.275292 0.424694 0.181415
H28   H     H_    0.974097 0.724823 0.577504 0.181226
H29   H     H_    0.582545 0.961307 0.389435 0.169055
H30   H     H_    0.079117 0.458053 0.386128 0.164255
H31   H     H_    0.582363 0.960935 0.275715 0.202717
H32   H     H_    0.078911 0.457698 0.272328 0.176382
O1    O     O_R   0.447840 1.000000 0.357610 -0.577694
O2    O     O_R   0.947840 0.500000 0.357610 -0.576939
O3    O     O_R   0.500000 0.560470 0.552180 -0.578977
O4    O     O_R   0.500000 0.439530 0.552180 -0.555122
O5    O     O_R   1.000000 0.060470 0.552180 -0.590638
O6    O     O_R   1.000000 0.939530 0.552180 -0.564666
O7    O     O_R   0.590030 0.500000 0.537810 -0.597416
O8    O     O_R   0.090030 1.000000 0.537810 -0.589900
O9    O     O_R   0.590140 0.500000 0.642300 -0.543043
O10   O     O_R   0.090140 1.000000 0.642300 -0.567366
O11   O     O_R   0.590180 0.965000 0.090240 -0.531679
O12   O     O_R   0.590180 0.035000 0.090240 -0.609347
O13   O     O_R   0.090180 0.465000 0.090240 -0.518598
O14   O     O_R   0.090180 0.535000 0.090240 -0.612143
O15   O     O_R   0.500040 0.965010 0.090190 -0.563948
O16   O     O_R   0.500040 0.034990 0.090190 -0.608847
O17   O     O_R   0.000040 0.465010 0.090190 -0.558655
O18   O     O_R   0.000040 0.534990 0.090190 -0.610753
O19   O     O_R   0.409890 0.965030 0.909800 -0.520741
O20   O     O_R   0.409890 0.034970 0.909800 -0.597561
O21   O     O_R   0.909890 0.465030 0.909800 -0.534984
O22   O     O_R   0.909890 0.534970 0.909800 -0.595477
O23   O     O_R   0.500040 0.965020 0.909850 -0.537011
O24   O     O_R   0.500040 0.034980 0.909850 -0.583538
O25   O     O_R   0.000040 0.465020 0.909850 -0.531206
O26   O     O_R   0.000040 0.534980 0.909850 -0.564511
O27   O     O_R   0.552190 1.000000 0.462050 -0.581940
O28   O     O_R   0.052190 0.500000 0.462050 -0.583664
O29   O     O_R   0.447840 0.939540 0.447780 -0.580635
O30   O     O_R   0.447840 0.060460 0.447780 -0.585127
O31   O     O_R   0.947840 0.439540 0.447780 -0.575914
O32   O     O_R   0.947840 0.560460 0.447780 -0.580557
O33   O     O_R   0.552190 0.939560 0.552210 -0.575840
O34   O     O_R   0.552190 0.060440 0.552210 -0.570429
O35   O     O_R   0.052190 0.439560 0.552210 -0.573729
O36   O     O_R   0.052190 0.560440 0.552210 -0.575395
O37   O     O_R   0.447840 1.000000 0.537950 -0.604814
O38   O     O_R   0.947840 0.500000 0.537950 -0.583488
O39   O     O_R   0.552190 0.000000 0.642390 -0.579902
O40   O     O_R   0.052190 0.500000 0.642390 -0.578019
O41   O     O_R   0.409740 0.500000 0.357550 -0.566915
O42   O     O_R   0.909740 1.000000 0.357550 -0.565130
O43   O     O_R   0.409840 0.500000 0.462040 -0.587432
O44   O     O_R   0.909840 1.000000 0.462040 -0.593948
O45   O     O_R   0.499890 0.560480 0.447700 -0.577536
O46   O     O_R   0.499890 0.439520 0.447700 -0.589785
O47   O     O_R   0.999890 0.060480 0.447700 -0.569330
O48   O     O_R   0.999890 0.939520 0.447700 -0.584734
N1    N     N_2   0.576962 0.780387 0.487534 -0.412269
H33   H     H_    0.555730 0.802113 0.438573 0.257949
C137  C     C_3   0.610343 0.749282 0.486539 -0.644752
H34   H     H_    0.642083 0.765049 0.485775 0.238218
H35   H     H_    0.577875 0.729169 0.427412 0.220415
H36   H     H_    0.638160 0.729619 0.545874 0.230793
N2    N     N_2   0.425816 0.218857 0.332445 -0.421210
H37   H     H_    0.394730 0.196922 0.317051 0.251360
C138  C     C_3   0.398081 0.249601 0.264870 -0.662502
H38   H     H_    0.371969 0.233486 0.201484 0.226666
H39   H     H_    0.434096 0.269473 0.279444 0.235900
H40   H     H_    0.365937 0.269539 0.259170 0.230152
N3    N     N_2   0.884397 0.279039 0.415654 -0.408014
H41   H     H_    0.886127 0.301075 0.452041 0.255516
C139  C     C_3   0.837869 0.247291 0.378893 -0.661242
H42   H     H_    0.792961 0.262441 0.342774 0.233003
H43   H     H_    0.850152 0.227739 0.431536 0.218446
H44   H     H_    0.832857 0.227142 0.332455 0.232457
N4    N     N_2   0.114912 0.720758 0.582675 -0.419724
H45   H     H_    0.112648 0.698650 0.545878 0.255052
C140  C     C_3   0.161424 0.752391 0.618658 -0.615001
H46   H     H_    0.206127 0.737134 0.653956 0.233096
H47   H     H_    0.167128 0.772564 0.665676 0.246436
H48   H     H_    0.148639 0.771916 0.565641 0.221172
N5    N     N_2   0.344242 0.020298 0.152041 -0.413631
H49   H     H_    0.302285 0.034596 0.104583 0.256579
C141  C     C_3   0.341293 0.975144 0.142161 -0.607032
H50   H     H_    0.298292 0.963153 0.120298 0.218114
H51   H     H_    0.380407 0.960119 0.205311 0.236187
H52   H     H_    0.341302 0.965955 0.092999 0.249248
N6    N     N_2   0.406590 0.083018 0.224854 -0.435380
H53   H     H_    0.425610 0.078932 0.287000 0.258773
C142  C     C_3   0.356717 0.112779 0.174896 -0.669042
H54   H     H_    0.373992 0.143280 0.209773 0.238228
H55   H     H_    0.319087 0.101838 0.167701 0.217013
H56   H     H_    0.338515 0.117659 0.109530 0.247542
N7    N     N_2   0.846525 0.526816 0.154672 -0.417748
H57   H     H_    0.806095 0.543055 0.109129 0.258331
C143  C     C_3   0.839014 0.481923 0.139627 -0.580080
H58   H     H_    0.795253 0.471778 0.117489 0.221184
H59   H     H_    0.876856 0.464952 0.200669 0.234158
H60   H     H_    0.837373 0.473084 0.088695 0.260289
N8    N     N_2   0.914872 0.586582 0.233876 -0.437175
H61   H     H_    0.933478 0.581452 0.295537 0.255474
C144  C     C_3   0.868099 0.618575 0.187419 -0.663034
H62   H     H_    0.888406 0.648143 0.225605 0.246626
H63   H     H_    0.829534 0.609257 0.179270 0.219603
H64   H     H_    0.850367 0.624491 0.122613 0.246811
F1    F     F_    0.586474 0.951114 0.899336 -0.644226
F2    F     F_    0.919388 0.551977 0.731230 -0.676361
F3    F     F_    0.391561 0.078720 0.702953 -0.680614
F4    F     F_    0.369028 0.008599 0.691193 -0.701455
F5    F     F_    0.016553 0.407848 0.825314 -0.641300
F6    F     F_    0.118517 0.428241 0.933092 -0.655807
N9    N     N_2   0.377931 0.072673 0.563294 -0.407051
H65   H     H_    0.356979 0.067072 0.500405 0.263399
C145  C     C_3   0.422663 0.106464 0.603732 -0.610081
H66   H     H_    0.399747 0.134824 0.562664 0.236954
H67   H     H_    0.460064 0.097712 0.609043 0.199993
H68   H     H_    0.442760 0.114262 0.669446 0.268612
N10   N     N_2   0.355954 0.998602 0.557091 -0.423357
H69   H     H_    0.367847 0.983568 0.529005 0.271297
C146  C     C_3   0.290032 0.003706 0.497113 -0.582119
H70   H     H_    0.267337 0.972524 0.473206 0.228411
H71   H     H_    0.271782 0.022596 0.440152 0.197829
H72   H     H_    0.278295 0.019155 0.529516 0.266154
N11   N     N_2   0.020065 0.406900 0.704453 -0.415965
H73   H     H_    0.006880 0.416954 0.648209 0.244129
C147  C     C_3   0.032228 0.362442 0.717251 -0.580006
H74   H     H_    0.990176 0.345132 0.660506 0.229320
H75   H     H_    0.045314 0.351784 0.777127 0.266793
H76   H     H_    0.069706 0.354967 0.722103 0.218749
N12   N     N_2   0.127333 0.428451 0.816487 -0.418211
H77   H     H_    0.146850 0.400161 0.847185 0.274987
C148  C     C_3   0.171110 0.462884 0.862442 -0.607707
H78   H     H_    0.215039 0.453008 0.885162 0.218308
H79   H     H_    0.180459 0.472492 0.920054 0.253059
H80   H     H_    0.153558 0.489897 0.818303 0.241530
N13   N     N_2   0.314577 0.567339 0.254866 -0.426983
H81   H     H_    0.291342 0.578635 0.193706 0.254116
C149  C     C_3   0.335909 0.600697 0.316156 -0.650561
H82   H     H_    0.296098 0.617267 0.296713 0.226619
H83   H     H_    0.363542 0.623419 0.316825 0.225910
H84   H     H_    0.365363 0.588200 0.383101 0.230025
N14   N     N_2   0.814704 0.067457 0.254087 -0.417621
H85   H     H_    0.791695 0.079113 0.193259 0.259193
C150  C     C_3   0.835168 0.100409 0.315680 -0.683123
H86   H     H_    0.794923 0.116394 0.295961 0.223530
H87   H     H_    0.862665 0.123701 0.317133 0.228429
H88   H     H_    0.864535 0.087630 0.382393 0.224461
F7    F     F_    0.691195 0.897657 0.221527 -0.625138
F8    F     F_    0.689656 0.936584 0.310063 -0.685292
F9    F     F_    0.193318 0.408767 0.173265 -0.617998
F10   F     F_    0.191097 0.408900 0.277530 -0.662440
F11   F     F_    0.686829 0.445303 0.764640 -0.598884
F12   F     F_    0.184847 0.929252 0.724931 -0.625273
F13   F     F_    0.310382 0.929001 0.853154 -0.602702
F14   F     F_    0.812605 0.445405 0.890829 -0.610592
F15   F     F_    0.423236 0.720469 0.512004 -0.657286
F16   F     F_    0.572317 0.279689 0.664691 -0.638306
F17   F     F_    0.113109 0.221864 0.584271 -0.660900
F18   F     F_    0.887137 0.778174 0.417966 -0.648037
N15   N     N_2   0.381809 0.778244 0.360767 -0.412232
H89   H     H_    0.367602 0.798790 0.380111 0.268250
C151  C     C_3   0.336453 0.746400 0.300936 -0.625616
H90   H     H_    0.291634 0.761391 0.245921 0.223976
H91   H     H_    0.330531 0.724862 0.334574 0.255126
H92   H     H_    0.350507 0.728331 0.273785 0.223234
N16   N     N_2   0.457701 0.219930 0.568790 -0.428103
H93   H     H_    0.488418 0.199613 0.619593 0.263446
C152  C     C_3   0.434417 0.250812 0.587836 -0.596208
H94   H     H_    0.416461 0.234937 0.611496 0.226469
H95   H     H_    0.396149 0.268476 0.528052 0.229145
H96   H     H_    0.471718 0.272810 0.639207 0.261182
N17   N     N_2   0.084925 0.280409 0.669247 -0.432895
H97   H     H_    0.115666 0.300833 0.679914 0.266627
C153  C     C_3   0.114187 0.249687 0.737270 -0.628891
H98   H     H_    0.145548 0.265705 0.801738 0.222279
H99   H     H_    0.141408 0.227639 0.736194 0.258815
H100  H     H_    0.079162 0.232068 0.728859 0.227969
N18   N     N_2   0.913767 0.719363 0.331219 -0.431300
H101  H     H_    0.883538 0.698797 0.321522 0.266269
C154  C     C_3   0.883551 0.750038 0.262893 -0.614405
H102  H     H_    0.851856 0.733949 0.198479 0.219133
H103  H     H_    0.917950 0.767930 0.270263 0.225438
H104  H     H_    0.856510 0.771852 0.264711 0.267854
N19   N     N_2   0.352551 0.026491 0.030510 -0.449009
H105  H     H_    0.367081 0.011348 0.005850 0.243822
C155  C     C_3   0.295516 0.048805 0.963982 -0.679802
H106  H     H_    0.258410 0.026085 0.915137 0.240950
H107  H     H_    0.300189 0.071079 0.929856 0.222015
H108  H     H_    0.281943 0.066171 0.992275 0.226449
N20   N     N_2   0.415237 0.089685 0.102714 -0.418310
H109  H     H_    0.402563 0.093361 0.044605 0.266189
C156  C     C_3   0.474497 0.109458 0.174310 -0.640049
H110  H     H_    0.471580 0.143260 0.160469 0.225115
H111  H     H_    0.510538 0.095442 0.181043 0.232360
H112  H     H_    0.488604 0.106439 0.237182 0.250887
N21   N     N_2   0.855422 0.533001 0.033697 -0.439395
H113  H     H_    0.868487 0.517580 0.007283 0.261557
C157  C     C_3   0.800514 0.557716 0.969836 -0.670285
H114  H     H_    0.761237 0.536594 0.919472 0.248573
H115  H     H_    0.806812 0.579620 0.937108 0.214581
H116  H     H_    0.789110 0.575785 0.000327 0.225673
N22   N     N_2   0.923920 0.593309 0.112212 -0.418081
H117  H     H_    0.911283 0.597835 0.054303 0.266091
C158  C     C_3   0.985039 0.610283 0.185493 -0.643021
H118  H     H_    0.985437 0.644199 0.175274 0.224846
H119  H     H_    0.019433 0.594746 0.190247 0.231746
H120  H     H_    0.999021 0.606429 0.248148 0.249480

loop_
_geom_bond_atom_site_label_1
_geom_bond_atom_site_label_2
_ccdc_geom_bond_type
C3    F15   S    
C74   O14   A    
C155  H106  S    
C147  H75   S    
C146  H70   S    
C73   C93   S    
C66   O42   A    
C141  H51   S    
Cu9   Cu10  S    
Cu6   O47   S    
C39   C41   A    
C151  H90   S    
C118  H16   S    
C86   C110  S    
C70   O48   A    
Cu9   O19   S    
C11   H25   S    
C67   C125  S    
C43   N20   S    
C68   O46   A    
N8    H61   S    
C144  H64   S    
C61   C63   S    
C37   O31   A    
C130  N16   S    
C62   C64   S    
C11   C15   S    
Cu4   O40   S    
C12   C16   S    
C49   C51   A    
C50   C52   A    
Cu5   O7    S    
C4    C12   S    
C5    C13   S    
C106  C111  A    
C157  H116  S    
C7    C15   S    
C108  N2    S    
C8    C16   S    
C41   C43   S    
C32   H30   S    
C130  C134  S    
C42   C44   S    
C77   C113  S    
C104  C106  A    
C44   C46   S    
C65   C87   S    
C5    F17   S    
C150  H87   S    
C44   N21   S    
C62   F6    S    
C6    C132  S    
C59   O37   A    
Cu9   O23   S    
C1    O1    A    
C4    C130  S    
C81   C99   S    
N12   H77   S    
C40   C76   S    
C32   C34   A    
C21   C123  T    
N1    H33   S    
C90   N14   S    
Cu1   Cu3   S    
N19   H105  S    
C83   H9    S    
C1    C29   S    
C156  H110  S    
C111  C113  A    
C111  F13   S    
C153  H100  S    
C94   C96   A    
Cu2   Cu4   S    
C129  C133  S    
C100  H7    S    
C105  C112  A    
C155  H108  S    
C87   C89   A    
C61   F4    S    
Cu6   Cu8   S    
C2    O28   A    
C69   O5    A    
C120  H20   S    
C12   H26   S    
C101  C103  A    
C151  H92   S    
C13   H27   S    
C68   O4    A    
C64   N12   S    
C3    C129  S    
C71   O7    A    
N6    C142  S    
C17   C109  S    
C158  H118  S    
C95   C97   S    
C57   C61   S    
C3    C7    S    
Cu1   O30   S    
Cu7   O4    S    
Cu5   Cu7   S    
C145  H67   S    
C85   C131  S    
C86   C132  S    
C10   C18   S    
C46   N7    S    
Cu2   O32   S    
C116  C118  S    
C6    F18   S    
C137  H36   S    
Cu10  O20   S    
Cu2   O2    S    
C3    C11   S    
C107  C133  S    
C98   C99   S    
Cu1   O37   S    
C38   O32   A    
C21   C135  S    
Cu5   O41   S    
C113  C115  A    
C110  N4    S    
N4    C140  S    
C7    C83   S    
N15   C151  S    
N18   H101  S    
C109  C135  S    
C53   C55   A    
C110  C136  S    
Cu11  Cu12  S    
C62   F5    S    
C112  C114  A    
C90   C91   A    
C154  H104  S    
Cu12  O22   S    
N11   C147  S    
C28   C46   S    
C140  H46   S    
C146  H71   S    
C83   C129  S    
C76   O17   A    
C66   C88   S    
N5    H49   S    
C143  H60   S    
N14   C150  S    
Cu1   O1    S    
Cu3   O34   S    
C132  N18   S    
C99   H6    S    
C4    F16   S    
Cu11  O25   S    
N3    H41   S    
C84   C130  S    
Cu10  O24   S    
C9    C85   S    
C37   C123  S    
C96   C98   S    
C39   C75   S    
C119  H17   S    
C20   C122  T    
C75   O16   A    
C40   C42   A    
C93   C95   A    
C12   C134  S    
C138  H38   S    
C24   C126  T    
C13   C135  S    
C44   N22   S    
C72   O10   A    
Cu8   O5    S    
C149  H83   S    
Cu11  O21   S    
C84   H10   S    
C51   C53   A    
C5    C9    S    
C60   O38   A    
C6    C14   S    
C43   C45   S    
C132  C136  S    
C139  H44   S    
N10   H69   S    
Cu7   O9    S    
C103  C105  A    
N7    C143  S    
C51   H1    S    
C67   O3    A    
N19   C155  S    
C43   N19   S    
N17   C153  S    
C156  H112  S    
C97   C100  S    
C158  H120  S    
C112  F14   S    
Cu5   O46   S    
C71   C103  S    
C19   C121  T    
C150  H88   S    
C82   C95   A    
C142  H56   S    
C114  C116  A    
C143  H58   S    
Cu6   O48   S    
C117  H14   S    
C49   C59   S    
C13   C17   S    
C2    C30   S    
C50   C60   S    
C27   C45   S    
Cu8   O10   S    
C7    C23   S    
C48   C50   A    
C8    C24   S    
C56   C58   A    
C77   O20   A    
C141  H52   S    
C73   O12   A    
C70   O6    A    
Cu3   O39   S    
C152  H96   S    
C52   H2    S    
C34   H32   S    
C138  H40   S    
N9    H65   S    
C107  N1    S    
C38   C124  S    
N6    H53   S    
C157  H115  S    
C58   C62   S    
C33   H31   S    
C74   C94   S    
C80   O26   A    
C78   O21   A    
C65   O41   A    
C9    C25   S    
C53   F1    S    
N20   C156  S    
C85   C109  S    
C60   O40   A    
C47   C63   S    
C48   C64   S    
C27   C29   A    
C67   O45   A    
C139  H42   S    
C15   C107  S    
C14   H28   S    
C102  C115  A    
Cu4   O35   S    
C10   C86   S    
C154  H102  S    
C98   F9    S    
C115  C117  S    
N2    H37   S    
C153  H99   S    
Cu12  O26   S    
C100  H8    S    
C151  H91   S    
C74   O13   A    
C150  H86   S    
C155  H107  S    
C61   F3    S    
C78   C114  S    
Cu4   O28   S    
N16   C152  S    
C148  H80   S    
N12   C148  S    
N16   H93   S    
C118  H15   S    
N13   H81   S    
C35   C121  S    
C117  C120  S    
N11   H73   S    
C81   C96   A    
C72   C104  S    
Cu1   O29   S    
Cu7   O3    S    
N15   H89   S    
C108  C134  S    
C145  H66   S    
C91   C93   A    
C55   C79   S    
C152  H94   S    
C109  N3    S    
N21   C157  S    
C71   O9    A    
C35   O33   A    
C81   C87   A    
Cu12  O14   S    
C88   C90   A    
Cu11  O17   S    
C131  N17   S    
C65   O43   A    
C102  C120  S    
C8    C84   S    
C18   C110  S    
C56   C80   S    
C6    C10   S    
C154  H103  S    
C48   C58   A    
C19   C133  S    
Cu6   O8    S    
C11   C133  S    
C25   C127  T    
N1    C137  S    
C76   O18   A    
C143  H59   S    
N14   H85   S    
C142  H54   S    
C14   C136  S    
Cu3   O33   S    
C99   H5    S    
C84   C108  S    
C64   N11   S    
Cu9   O15   S    
C137  H35   S    
C54   F2    S    
C16   H22   S    
C5    C131  S    
C69   C127  S    
C22   C136  S    
C105  F11   S    
C101  C116  A    
C85   H11   S    
C86   H12   S    
C37   O35   A    
C120  H19   S    
C75   O15   A    
C30   C32   A    
N17   H97   S    
C46   N8    S    
N9    C145  S    
C147  H74   S    
C14   C18   S    
N21   H113  S    
C97   F7    S    
C4    C8    S    
C63   N9    S    
C47   C49   A    
Cu8   O6    S    
C149  H82   S    
C33   C39   A    
C31   H29   S    
C34   C40   A    
C145  H68   S    
C131  C135  S    
C89   N13   S    
Cu7   O43   S    
C82   C88   A    
Cu2   O31   S    
C15   H21   S    
C2    O2    A    
C118  C119  S    
C72   O8    A    
C144  H63   S    
C148  H78   S    
C139  H43   S    
C92   H4    S    
C31   C33   A    
N7    H57   S    
C23   C125  T    
C36   O34   A    
C10   C26   S    
C80   O25   A    
C20   C134  S    
N18   C154  S    
Cu9   O11   S    
N2    C138  S    
Cu10  O12   S    
C69   O47   A    
C92   C94   A    
C52   C54   A    
C45   N6    S    
C156  H111  S    
C158  H119  S    
Cu5   O45   S    
C54   C56   A    
C140  H47   S    
Cu8   O44   S    
C101  C119  S    
C146  H72   S    
C66   O44   A    
C142  H55   S    
C16   C108  S    
C117  H13   S    
C97   F8    S    
N3    C139  S    
C36   C122  S    
C27   C41   A    
N5    C141  S    
C144  H62   S    
C55   C57   A    
C26   C128  T    
C89   C92   A    
C102  C104  A    
C77   O19   A    
C119  H18   S    
C98   F10   S    
C73   O11   A    
C9    C17   S    
C152  H95   S    
C79   O24   A    
C79   O23   A    
C138  H39   S    
C147  H76   S    
Cu10  O16   S    
C141  H50   S    
C129  N15   S    
C68   C126  S    
Cu3   O27   S    
C148  H79   S    
C157  H114  S    
C149  H84   S    
C70   C128  S    
N8    C144  S    
C106  F12   S    
C82   C100  S    
C47   C57   A    
C78   O22   A    
C38   O36   A    
N4    H45   S    
C17   H23   S    
C22   C124  T    
C18   H24   S    
N20   H109  S    
C28   C30   A    
C35   O29   A    
N13   C149  S    
C29   C31   A    
C59   O39   A    
N22   H117  S    
C91   H3    S    
Cu12  O18   S    
C28   C42   A    
N10   C146  S    
N22   C158  S    
C83   C107  S    
Cu11  O13   S    
C1    O27   A    
C140  H48   S    
Cu4   O36   S    
Cu2   O38   S    
C36   O30   A    
C137  H34   S    
C63   N10   S    
C153  H98   S    
Cu6   O42   S    
C45   N5    S    
