data_mof_unit_32593.cif
_audit_creation_date              2012-12-10T19:09:34-0500
_audit_creation_method            fapswitch 2.2
_symmetry_space_group_name_H-M    P1
_symmetry_Int_Tables_number       1
_space_group_crystal_system       triclinic
_cell_length_a                    9.537169
_cell_length_b                    10.863621
_cell_length_c                    17.120364
_cell_angle_alpha                 88.952998
_cell_angle_beta                  95.127555
_cell_angle_gamma                 90.998719
_cell_volume                      1766.19425232

loop_
_atom_site_label
_atom_site_type_symbol
_atom_type_description
_atom_site_fract_x
_atom_site_fract_y
_atom_site_fract_z
_atom_type_partial_charge
C1    C     C_R   0.499204 0.262492 0.502285 0.803190
C2    C     C_R   0.657033 0.471633 0.786553 0.062724
C3    C     C_R   0.576486 0.536555 0.141494 -0.161004
C4    C     C_R   0.587833 0.530035 0.222854 -0.242222
C5    C     C_R   0.444052 0.521591 0.098453 0.386677
C6    C     C_R   0.467714 0.509434 0.263061 -0.029557
C7    C     C_R   0.335438 0.497069 0.220474 -0.230197
C8    C     C_R   0.323919 0.503968 0.138735 -0.197428
C9    C     C_R   0.624713 0.067007 0.522006 0.125266
C10   C     C_R   0.498289 0.129809 0.511542 -0.099087
C11   C     C_R   0.371612 0.062253 0.512349 -0.222272
C12   C     C_R   0.519113 0.497740 0.651440 0.787895
C13   C     C_R   0.373379 0.933825 0.511603 -0.218182
C14   C     C_R   0.501536 0.871564 0.509512 -0.096670
C15   C     C_R   0.626932 0.940227 0.521101 0.134197
C16   C     C_3   0.756568 0.943043 0.477995 -0.506754
C17   C     C_3   0.753615 0.082103 0.479633 -0.450818
C18   C     C_R   0.064879 0.549864 0.437922 0.215711
C19   C     C_R   0.082180 0.436427 0.555552 -0.086247
C20   C     C_R   0.933230 0.436435 0.555504 -0.090562
C21   C     C_R   0.917027 0.547473 0.437386 0.233369
C22   C     C_3   0.904592 0.675321 0.406893 -0.532177
C23   C     C_R   0.501001 0.738074 0.501435 0.798358
C24   C     C_3   0.064322 0.681478 0.410167 -0.160514
C25   C     C_R   0.481106 0.502921 0.349048 0.790299
C26   C     C_R   0.530776 0.499373 0.738516 -0.077798
C27   C     C_R   0.409065 0.529846 0.774491 -0.257879
C28   C     C_R   0.409542 0.532959 0.855498 -0.169440
C29   C     C_R   0.533026 0.506237 0.902977 0.346640
C30   C     C_R   0.654538 0.476828 0.868505 -0.193956
Cu1   Cu    Cu3+1 0.640670 0.499980 0.500000 0.932994
Cu2   Cu    Cu3+1 0.359330 0.500020 0.500000 0.932574
H1    H     H_    0.690935 0.541222 0.254156 0.152230
H2    H     H_    0.273886 0.884428 0.508942 0.153282
H3    H     H_    0.849020 0.906325 0.514680 0.194076
H4    H     H_    0.737346 0.906807 0.417571 0.199315
H5    H     H_    0.842839 0.123426 0.517087 0.193718
H6    H     H_    0.732577 0.125532 0.420499 0.204144
H7    H     H_    0.144416 0.386088 0.600922 0.145426
H8    H     H_    0.883757 0.385423 0.600394 0.139643
H9    H     H_    0.848538 0.679701 0.347148 0.187218
H10   H     H_    0.862220 0.733481 0.450497 0.207985
H11   H     H_    0.671652 0.552767 0.112526 0.147729
H12   H     H_    0.111669 0.744438 0.455928 0.171677
H13   H     H_    0.746788 0.457151 0.907731 0.130790
H14   H     H_    0.241186 0.480603 0.250173 0.151126
H15   H     H_    0.313604 0.557037 0.880566 0.158566
H16   H     H_    0.221522 0.492987 0.106590 0.134689
H17   H     H_    0.312187 0.552605 0.739787 0.169664
H18   H     H_    0.271173 0.107944 0.509242 0.163302
N1    N     N_2   0.542184 0.508131 0.985939 -0.267342
N2    N     N_2   0.428515 0.521552 0.015208 -0.265501
N3    N     N_R   0.147870 0.500930 0.499500 -0.193076
N4    N     N_R   0.851960 0.500890 0.499500 -0.180203
O1    O     O_R   0.618810 0.319640 0.500000 -0.581317
O2    O     O_R   0.381230 0.319680 0.499990 -0.582497
O3    O     O_R   0.631790 0.498830 0.613930 -0.596345
O4    O     O_R   0.394210 0.498870 0.613920 -0.582451
O5    O     O_R   0.618770 0.680320 0.500010 -0.576902
O6    O     O_R   0.381190 0.680360 0.500000 -0.589861
O7    O     O_R   0.605790 0.501130 0.386080 -0.578718
O8    O     O_R   0.368210 0.501170 0.386070 -0.595196
C31   C     C_3   0.121981 0.701373 0.329909 -0.348055
C32   C     C_3   0.100671 0.834164 0.300015 -0.360524
C33   C     C_3   0.163922 0.854777 0.221945 -0.836673
H19   H     H_    0.278902 0.837548 0.228837 0.256593
H20   H     H_    0.112708 0.792211 0.176948 0.252820
H21   H     H_    0.147097 0.951429 0.201531 0.243765
H22   H     H_    0.986466 0.854605 0.291924 0.225603
H23   H     H_    0.152195 0.899027 0.343630 0.221704
H24   H     H_    0.236519 0.683817 0.336292 0.225219
H25   H     H_    0.070278 0.636239 0.286471 0.188592
C34   C     C_3   0.791039 0.435187 0.750923 -0.380777
C35   C     C_3   0.916635 0.398534 0.809054 -0.378781
C36   C     C_3   0.043360 0.363480 0.766285 -0.868271
H26   H     H_    0.016307 0.284519 0.727144 0.246875
H27   H     H_    0.078305 0.443267 0.731136 0.247110
H28   H     H_    0.131633 0.336793 0.809662 0.255860
H29   H     H_    0.949029 0.477277 0.847532 0.220404
H30   H     H_    0.886565 0.318414 0.845666 0.226559
H31   H     H_    0.764344 0.355166 0.712567 0.198968
H32   H     H_    0.826361 0.514346 0.715198 0.220704

loop_
_geom_bond_atom_site_label_1
_geom_bond_atom_site_label_2
_ccdc_geom_bond_type
C28   H15   S    
C18   C21   A    
C34   C35   S    
Cu1   O7    S    
C30   H13   S    
C19   C20   A    
Cu2   O4    S    
Cu2   N3    S    
C7    C8    A    
C23   O5    A    
C3    H11   S    
C26   C27   A    
C18   C24   S    
C28   C29   A    
C1    O2    A    
C16   H3    S    
C21   N4    A    
C20   H8    S    
C22   H9    S    
C15   C16   S    
Cu1   O5    S    
C18   N3    A    
C16   C17   S    
C33   H20   S    
C5    N2    S    
C32   H23   S    
C9    C10   A    
C25   O8    A    
C12   O4    A    
C19   N3    A    
C35   H30   S    
C13   C14   A    
C34   H31   S    
C23   O6    A    
C35   C36   S    
N1    N2    D    
C7    H14   S    
C20   N4    A    
C17   H5    S    
C12   C26   S    
C14   C23   S    
C36   H26   S    
C8    H16   S    
C29   C30   A    
Cu1   Cu2   S    
C33   H21   S    
C2    C26   A    
C25   O7    A    
C32   H22   S    
C36   H27   S    
C2    C34   S    
C19   H7    S    
C12   O3    A    
C9    C17   S    
C31   H24   S    
C24   C31   S    
C35   H29   S    
C24   H12   S    
C22   C24   S    
C4    C6    A    
Cu2   O6    S    
C3    C4    A    
C34   H32   S    
C29   N1    S    
C4    H1    S    
C1    C10   S    
C3    C5    A    
C5    C8    A    
C6    C7    A    
C2    C30   A    
C32   C33   S    
Cu1   O3    S    
C1    O1    A    
Cu2   O8    S    
C13   H2    S    
C11   H18   S    
C16   H4    S    
C11   C13   A    
C22   H10   S    
C17   H6    S    
Cu1   N4    S    
C9    C15   A    
C36   H28   S    
C10   C11   A    
C31   C32   S    
C6    C25   S    
C31   H25   S    
C33   H19   S    
C27   C28   A    
C14   C15   A    
Cu1   O1    S    
C21   C22   S    
Cu2   O2    S    
C27   H17   S    
