data_mof_unit_41137.cif
_audit_creation_date              2012-12-10T19:48:59-0500
_audit_creation_method            fapswitch 2.2
_symmetry_space_group_name_H-M    P1
_symmetry_Int_Tables_number       1
_space_group_crystal_system       triclinic
_cell_length_a                    26.001015
_cell_length_b                    26.048858
_cell_length_c                    22.219966
_cell_angle_alpha                 90.010483
_cell_angle_beta                  54.07
_cell_angle_gamma                 90.080248
_cell_volume                      12186.0923628

loop_
_atom_site_label
_atom_site_type_symbol
_atom_type_description
_atom_site_fract_x
_atom_site_fract_y
_atom_site_fract_z
_atom_type_partial_charge
C1    C     C_R   0.849251 0.749773 0.301140 0.505499
C2    C     C_R   0.445138 0.250356 0.500808 0.007598
C3    C     C_R   0.292654 0.973325 0.435423 -0.087652
C4    C     C_R   0.747142 0.554004 0.499247 -0.044041
C5    C     C_R   0.748079 0.445852 0.499864 -0.049022
C6    C     C_R   0.247211 0.054034 0.499112 -0.044280
C7    C     C_R   0.248428 0.945879 0.499759 -0.050729
C8    C     C_R   0.695020 0.526813 0.559797 0.225224
C9    C     C_R   0.697253 0.472930 0.561715 0.232891
C10   C     C_R   0.196194 0.026818 0.560774 0.225799
C11   C     C_R   0.198801 0.972982 0.562602 0.232644
C12   C     C_3   0.864838 0.471787 0.389695 0.185450
C13   C     C_R   0.945287 0.249778 0.500674 0.022015
C14   C     C_3   0.864549 0.530612 0.389246 0.182175
C15   C     C_3   0.364152 0.971957 0.386569 0.185729
C16   C     C_3   0.363587 0.030778 0.386097 0.181616
C17   C     C_R   0.748769 0.889987 0.501248 0.528246
C18   C     C_R   0.750945 0.110001 0.499498 0.526998
C19   C     C_R   0.248667 0.389979 0.501311 0.529389
C20   C     C_R   0.250960 0.609990 0.499454 0.527485
C21   C     C_R   0.889999 0.750069 0.500005 0.501083
C22   C     C_R   0.890005 0.250067 0.500066 0.510529
C23   C     C_R   0.389942 0.249994 0.500115 0.502665
C24   C     C_R   0.945453 0.750752 0.500189 0.007520
C25   C     C_R   0.390136 0.750108 0.500134 0.499395
C26   C     C_R   0.609726 0.750057 0.500261 0.506887
C27   C     C_R   0.610078 0.250083 0.499936 0.508247
C28   C     C_R   0.110118 0.249751 0.499867 0.507819
C29   C     C_R   0.110073 0.750086 0.499948 0.508097
C30   C     C_R   0.545867 0.787705 0.461735 -0.011381
C31   C     C_R   0.547106 0.216374 0.457866 -0.035981
C32   C     C_R   0.049178 0.280919 0.454210 -0.018316
C33   C     C_R   0.046092 0.715303 0.459930 -0.035684
C34   C     C_R   0.551667 0.752600 0.504848 0.015290
C35   C     C_R   0.492821 0.788015 0.461714 0.088269
C36   C     C_R   0.554397 0.250641 0.500204 0.026319
C37   C     C_R   0.054457 0.248957 0.500167 0.025574
C38   C     C_R   0.054604 0.750928 0.499810 0.026370
C39   C     C_R   0.499088 0.721538 0.555325 -0.165290
C40   C     C_R   0.504859 0.286116 0.544342 -0.159547
C41   C     C_R   0.002988 0.215771 0.547825 -0.163826
C42   C     C_R   0.006576 0.788088 0.540932 -0.159683
C43   C     C_3   0.514427 0.622067 0.952719 -0.001474
C44   C     C_3   0.521099 0.587646 0.893193 -0.364995
C45   C     C_3   0.494606 0.365759 0.935654 -0.001947
C46   C     C_R   0.494550 0.215838 0.459029 0.004386
C47   C     C_3   0.488299 0.423386 0.949616 -0.384466
C48   C     C_3   0.018283 0.123147 0.950934 -0.002001
C49   C     C_3   0.025744 0.090233 0.889730 -0.365939
C50   C     C_3   0.058577 0.864872 0.933034 -0.001148
C51   C     C_3   0.085204 0.916014 0.936273 -0.375692
C52   C     C_3   0.683429 0.936663 0.673094 0.037667
C53   C     C_3   0.653826 0.980216 0.730309 -0.261336
C54   C     C_3   0.586613 0.966669 0.796716 -0.504691
C55   C     C_3   0.830290 0.061655 0.567045 0.048754
C56   C     C_3   0.858258 0.020968 0.589865 -0.259140
C57   C     C_R   0.996926 0.281896 0.454977 0.067881
C58   C     C_3   0.925037 0.035732 0.564523 -0.503317
C59   C     C_3   0.180470 0.437915 0.674387 0.036267
C60   C     C_3   0.151934 0.481858 0.731082 -0.259921
C61   C     C_3   0.084138 0.469688 0.797303 -0.506840
C62   C     C_3   0.328555 0.560955 0.569333 0.048769
C63   C     C_3   0.354589 0.520654 0.595081 -0.258742
C64   C     C_3   0.421129 0.534868 0.571095 -0.503067
C65   C     C_3   0.786979 0.092534 0.295722 0.029788
C66   C     C_3   0.770959 0.077379 0.241903 -0.289550
C67   C     C_3   0.769488 0.124325 0.201908 -0.488286
C68   C     C_R   0.993626 0.714865 0.460925 0.003063
C69   C     C_3   0.778257 0.938533 0.274646 0.026052
C70   C     C_3   0.755801 0.883331 0.279662 -0.254470
C71   C     C_3   0.730469 0.876287 0.233298 -0.515098
C72   C     C_3   0.290231 0.592682 0.294601 0.029391
C73   C     C_3   0.275618 0.578289 0.239287 -0.289723
C74   C     C_3   0.274213 0.625816 0.200159 -0.488259
C75   C     C_3   0.282964 0.438802 0.271798 0.028291
C76   C     C_3   0.260711 0.383775 0.275110 -0.258698
C77   C     C_3   0.245461 0.375593 0.219134 -0.513487
C78   C     C_3   0.592466 0.552700 0.620565 0.028518
C79   C     C_3   0.531125 0.799247 0.380290 0.149189
C80   C     C_3   0.541141 0.586250 0.683507 -0.361908
C81   C     C_3   0.667406 0.443340 0.674100 0.007842
C82   C     C_3   0.616408 0.413719 0.742892 -0.359090
C83   C     C_3   0.093178 0.052202 0.625905 0.029386
C84   C     C_3   0.042424 0.084759 0.690893 -0.363641
C85   C     C_3   0.177253 0.942378 0.670617 0.016239
C86   C     C_3   0.129952 0.912006 0.740386 -0.369275
C87   C     C_3   0.868408 0.449911 0.281465 0.052412
C88   C     C_3   0.845193 0.396255 0.280054 -0.260610
C89   C     C_3   0.820988 0.394570 0.232003 -0.495214
C90   C     C_3   0.518360 0.171777 0.405401 0.152687
C91   C     C_3   0.953593 0.560965 0.277438 0.021697
C92   C     C_3   0.966682 0.618121 0.278220 -0.242486
C93   C     C_3   0.037818 0.629459 0.229518 -0.501091
C94   C     C_3   0.363265 0.949697 0.281430 0.053032
C95   C     C_3   0.338160 0.896136 0.283426 -0.259482
C96   C     C_3   0.310451 0.893976 0.239097 -0.495771
C97   C     C_3   0.450948 0.061492 0.273244 0.020227
C98   C     C_3   0.463673 0.118652 0.274816 -0.239825
C99   C     C_3   0.534685 0.130462 0.225715 -0.498030
C100  C     C_3   0.548389 0.856137 0.290751 -0.005939
C101  C     C_3   0.023335 0.322539 0.396533 0.153657
C102  C     C_3   0.548290 0.912999 0.275352 -0.362235
C103  C     C_3   0.449487 0.116584 0.508947 0.013971
C104  C     C_3   0.425667 0.061466 0.527360 -0.381285
C105  C     C_3   0.014255 0.406106 0.369145 -0.011355
C106  C     C_3   0.005432 0.459207 0.402409 -0.371368
C107  C     C_3   0.940912 0.619228 0.520954 0.013380
C108  C     C_3   0.915942 0.564808 0.545424 -0.385066
C109  C     C_3   0.314002 0.770037 0.119331 0.004823
C110  C     C_3   0.287841 0.749215 0.077647 -0.270491
C111  C     C_3   0.216887 0.737690 0.130890 -0.485424
C112  C     C_R   0.849380 0.250085 0.301091 0.491489
C113  C     C_3   0.015203 0.668177 0.412056 0.150468
C114  C     C_3   0.326433 0.204363 0.089061 0.001000
C115  C     C_3   0.279311 0.219390 0.170912 -0.258180
C116  C     C_3   0.211859 0.223608 0.192673 -0.492032
C117  C     C_3   0.813302 0.267860 0.118096 0.004903
C118  C     C_3   0.788804 0.246572 0.074850 -0.271093
C119  C     C_3   0.717783 0.234923 0.126458 -0.486535
C120  C     C_3   0.824959 0.776526 0.071467 0.000313
C121  C     C_3   0.762517 0.747117 0.107585 -0.246692
C122  C     C_3   0.713854 0.777891 0.105102 -0.496498
C123  C     C_3   0.632845 0.853463 0.882446 -0.016535
C124  C     C_3   0.589626 0.798786 0.380526 -0.238994
C125  C     C_3   0.702814 0.858824 0.850065 -0.361314
C126  C     C_3   0.642907 0.155643 0.921774 -0.015613
C127  C     C_3   0.710493 0.158972 0.899183 -0.365238
C128  C     C_3   0.128911 0.356712 0.882103 -0.016456
C129  C     C_3   0.198883 0.363824 0.848726 -0.360531
C130  C     C_3   0.075413 0.613198 0.917929 -0.016012
C131  C     C_3   0.137187 0.586160 0.891218 -0.364520
C132  C     C_3   0.578316 0.172803 0.404309 -0.228845
C133  C     C_3   0.083124 0.321004 0.395732 -0.236119
C134  C     C_3   0.074878 0.669036 0.411457 -0.227322
C135  C     C_3   0.465159 0.744840 0.956847 -0.217853
C136  C     C_3   0.466882 0.244539 0.957490 -0.232674
C137  C     C_3   0.964993 0.244040 0.956893 -0.218761
C138  C     C_3   0.969829 0.771513 0.957067 -0.237970
C139  C     C_3   0.543194 0.801428 0.956541 0.123064
C140  C     C_R   0.349518 0.250049 0.301156 0.502431
C141  C     C_3   0.554550 0.204611 0.956230 0.125556
C142  C     C_3   0.041281 0.302816 0.956582 0.123051
C143  C     C_3   0.023249 0.692083 0.955842 0.126067
C144  C     C_3   0.501754 0.800147 0.042974 -0.170642
C145  C     C_3   0.513147 0.206264 0.042956 -0.186894
C146  C     C_3   0.000228 0.301376 0.043033 -0.170694
C147  C     C_3   0.982131 0.692254 0.042668 -0.187712
C148  C     C_1   0.388852 0.750224 0.221793 -0.026766
C149  C     C_1   0.389765 0.250321 0.221929 -0.016574
C150  C     C_1   0.888668 0.250469 0.221800 -0.024607
C151  C     C_R   0.349416 0.750043 0.301089 0.489938
C152  C     C_1   0.888142 0.748647 0.221889 -0.005550
C153  C     C_3   0.535970 0.749553 0.926801 0.061324
C154  C     C_3   0.537728 0.251592 0.926919 0.054934
C155  C     C_3   0.035678 0.250285 0.926805 0.061042
C156  C     C_3   0.036124 0.748713 0.926802 0.054892
C157  C     C_R   0.650466 0.749976 0.698946 0.496533
C158  C     C_R   0.650671 0.250205 0.698955 0.494901
C159  C     C_R   0.150437 0.250017 0.698948 0.496701
C160  C     C_R   0.150627 0.750091 0.698935 0.495211
C161  C     C_3   0.421315 0.744394 0.043440 0.168060
C162  C     C_R   0.445413 0.721589 0.555166 -0.171450
C163  C     C_3   0.423292 0.245324 0.044045 0.166021
C164  C     C_3   0.921182 0.243669 0.043502 0.168149
C165  C     C_3   0.926487 0.772701 0.043696 0.160967
C166  C     C_3   0.462320 0.749785 0.073450 0.024331
C167  C     C_3   0.464410 0.250973 0.073686 0.027822
C168  C     C_3   0.962078 0.250384 0.073467 0.024120
C169  C     C_3   0.961914 0.747844 0.073588 0.028540
C170  C     C_3   0.508956 0.703750 0.044717 -0.258215
C171  C     C_3   0.501547 0.302430 0.045201 -0.249666
C172  C     C_3   0.009906 0.205209 0.044669 -0.258377
C173  C     C_R   0.450755 0.286064 0.544487 -0.161862
C174  C     C_3   0.022727 0.779451 0.045457 -0.249989
C175  C     C_3   0.554240 0.704538 0.957547 0.172203
C176  C     C_3   0.547475 0.301647 0.958712 0.172018
C177  C     C_3   0.055372 0.206394 0.957616 0.172242
C178  C     C_3   0.068082 0.777585 0.959177 0.171422
C179  C     C_1   0.421905 0.750169 0.155028 -0.058958
C180  C     C_1   0.423658 0.250535 0.155204 -0.041841
C181  C     C_1   0.921656 0.250623 0.155038 -0.057226
C182  C     C_1   0.921136 0.747760 0.155152 -0.033803
C183  C     C_1   0.576686 0.749647 0.845105 0.000692
C184  C     C_R   0.948912 0.216065 0.547909 -0.170787
C185  C     C_1   0.578193 0.251686 0.845220 0.002470
C186  C     C_1   0.076416 0.250206 0.845111 0.000674
C187  C     C_1   0.077209 0.749620 0.845154 0.001598
C188  C     C_1   0.610415 0.749848 0.778303 0.004215
C189  C     C_1   0.611356 0.251033 0.778386 0.005940
C190  C     C_1   0.110226 0.250142 0.778308 0.003829
C191  C     C_1   0.110783 0.749996 0.778337 0.007707
C192  C     C_R   0.744525 0.974174 0.453252 -0.032824
C193  C     C_R   0.746175 0.025916 0.451973 -0.042608
C194  C     C_R   0.244825 0.474095 0.452843 -0.032905
C195  C     C_R   0.952506 0.788072 0.540981 -0.161653
C196  C     C_R   0.246584 0.525852 0.451470 -0.043269
C197  C     C_R   0.747133 0.945558 0.504034 -0.036451
C198  C     C_R   0.752085 0.054430 0.500302 -0.033564
C199  C     C_R   0.246770 0.445536 0.504178 -0.035636
C200  C     C_R   0.251883 0.554396 0.500323 -0.032874
C201  C     C_R   0.749788 0.973061 0.557525 0.243362
C202  C     C_R   0.757421 0.026848 0.551829 0.241050
C203  C     C_R   0.248526 0.473066 0.558276 0.243365
C204  C     C_R   0.256337 0.526832 0.552519 0.240322
C205  C     C_R   0.749732 0.609843 0.500272 0.540729
C206  C     C_R   0.443663 0.752782 0.504634 -0.003318
C207  C     C_R   0.749963 0.390092 0.500413 0.516136
C208  C     C_R   0.249737 0.109855 0.500161 0.541686
C209  C     C_R   0.250023 0.890095 0.500297 0.513308
C210  C     C_3   0.740179 0.029946 0.389312 0.200251
C211  C     C_3   0.736983 0.970499 0.391879 0.216544
C212  C     C_3   0.242063 0.529728 0.387631 0.199267
C213  C     C_3   0.238839 0.470264 0.390221 0.218659
C214  C     C_R   0.793749 0.526400 0.436488 -0.044049
C215  C     C_R   0.793449 0.473282 0.436135 -0.087784
C216  C     C_R   0.292772 0.026462 0.435606 -0.044989
H1    H     H_    0.500388 0.695597 0.592506 0.136986
H2    H     H_    0.488040 0.168925 0.065633 0.132164
H3    H     H_    0.150347 0.429967 0.654743 0.096955
H4    H     H_    0.181762 0.488775 0.751093 0.176431
H5    H     H_    0.150857 0.517494 0.704484 0.196346
H6    H     H_    0.053237 0.463965 0.778552 0.147807
H7    H     H_    0.065100 0.502146 0.837255 0.140880
H8    H     H_    0.083065 0.434540 0.826149 0.127200
H9    H     H_    0.332333 0.599301 0.588404 0.168586
H10   H     H_    0.358784 0.562652 0.507267 0.111369
H11   H     H_    0.322469 0.517369 0.656667 0.179491
H12   H     H_    0.356784 0.482792 0.570714 0.201403
H13   H     H_    0.967210 0.334716 0.066001 0.129386
H14   H     H_    0.454211 0.537867 0.509587 0.150442
H15   H     H_    0.438894 0.504744 0.589955 0.148918
H16   H     H_    0.420207 0.572067 0.596189 0.141371
H17   H     H_    0.831788 0.115132 0.264807 0.163327
H18   H     H_    0.749621 0.118343 0.339790 0.165287
H19   H     H_    0.807189 0.050008 0.199965 0.166133
H20   H     H_    0.723727 0.058321 0.273143 0.137097
H21   H     H_    0.734193 0.152589 0.242830 0.144530
H22   H     H_    0.756004 0.112502 0.164882 0.141135
H23   H     H_    0.817106 0.142687 0.167558 0.135558
H24   H     H_    0.939367 0.667808 0.065089 0.132675
H25   H     H_    0.823445 0.944435 0.218730 0.145554
H26   H     H_    0.743585 0.966311 0.278921 0.106409
H27   H     H_    0.796259 0.856727 0.259177 0.190307
H28   H     H_    0.717597 0.873387 0.338386 0.188477
H29   H     H_    0.687032 0.899751 0.256487 0.144273
H30   H     H_    0.718210 0.835304 0.234388 0.148850
H31   H     H_    0.766781 0.888143 0.174884 0.130363
H32   H     H_    0.335051 0.615246 0.264906 0.163124
H33   H     H_    0.252484 0.618310 0.338549 0.166625
H34   H     H_    0.312547 0.551490 0.196964 0.166078
H35   H     H_    0.532376 0.803397 0.062639 0.138956
H36   H     H_    0.228691 0.558820 0.269158 0.136162
H37   H     H_    0.237947 0.653373 0.241525 0.145010
H38   H     H_    0.262107 0.614526 0.161666 0.141096
H39   H     H_    0.321483 0.644803 0.167497 0.136013
H40   H     H_    0.329122 0.444852 0.216914 0.150169
H41   H     H_    0.249023 0.466739 0.274787 0.104027
H42   H     H_    0.298808 0.356713 0.262448 0.196007
H43   H     H_    0.217603 0.375321 0.331823 0.176143
H44   H     H_    0.207113 0.402082 0.230924 0.138516
H45   H     H_    0.228971 0.335607 0.223301 0.146564
H46   H     H_    0.543940 0.211156 0.062159 0.129289
H47   H     H_    0.288459 0.382263 0.161685 0.137599
H48   H     H_    0.572974 0.513229 0.628566 0.161453
H49   H     H_    0.604306 0.568601 0.567191 0.126374
H50   H     H_    0.558991 0.626128 0.676776 0.189232
H51   H     H_    0.498757 0.586813 0.682863 0.076427
H52   H     H_    0.527200 0.570811 0.737765 0.144802
H53   H     H_    0.671855 0.482071 0.691912 0.154492
H54   H     H_    0.713185 0.422353 0.647761 0.115450
H55   H     H_    0.611170 0.374656 0.727186 0.189834
H56   H     H_    0.629772 0.410268 0.781881 0.129616
H57   H     H_    0.031025 0.305472 0.062349 0.140479
H58   H     H_    0.570284 0.434111 0.770988 0.144912
H59   H     H_    0.074269 0.012512 0.633766 0.160594
H60   H     H_    0.102682 0.068647 0.573916 0.126713
H61   H     H_    0.059852 0.124723 0.684783 0.188151
H62   H     H_    0.998944 0.085349 0.692462 0.075845
H63   H     H_    0.030399 0.068406 0.743873 0.144844
H64   H     H_    0.183839 0.980706 0.687500 0.150375
H65   H     H_    0.223290 0.921302 0.639619 0.112080
H66   H     H_    0.119454 0.874712 0.725570 0.189363
H67   H     H_    0.150570 0.904485 0.771264 0.099349
H68   H     H_    0.009271 0.675024 0.061978 0.129178
H69   H     H_    0.085148 0.934032 0.776294 0.139288
H70   H     H_    0.904946 0.462171 0.223266 0.143442
H71   H     H_    0.829110 0.478135 0.304555 0.164740
H72   H     H_    0.884989 0.368572 0.257405 0.194500
H73   H     H_    0.806229 0.384400 0.337442 0.181081
H74   H     H_    0.780873 0.421750 0.253637 0.144062
H75   H     H_    0.804088 0.355183 0.233062 0.154877
H76   H     H_    0.859730 0.404648 0.173562 0.154215
H77   H     H_    0.974611 0.549250 0.219254 0.143517
H78   H     H_    0.977956 0.537691 0.296026 0.129035
H79   H     H_    0.601747 0.714610 0.943463 0.190046
H80   H     H_    0.943947 0.640478 0.257114 0.189578
H81   H     H_    0.945800 0.630481 0.336140 0.213861
H82   H     H_    0.061466 0.608537 0.250621 0.153055
H83   H     H_    0.045683 0.671281 0.230383 0.143172
H84   H     H_    0.059451 0.617774 0.171177 0.140210
H85   H     H_    0.398504 0.960919 0.222401 0.144484
H86   H     H_    0.324488 0.978479 0.305198 0.165880
H87   H     H_    0.377627 0.868007 0.259598 0.194373
H88   H     H_    0.300659 0.885157 0.341800 0.180244
H89   H     H_    0.270938 0.921906 0.261621 0.144490
H90   H     H_    0.595637 0.297943 0.945753 0.196049
H91   H     H_    0.291724 0.854815 0.243229 0.149222
H92   H     H_    0.347732 0.902702 0.179612 0.158080
H93   H     H_    0.470910 0.050421 0.215115 0.144035
H94   H     H_    0.476520 0.037967 0.290029 0.129555
H95   H     H_    0.440381 0.141131 0.254518 0.191039
H96   H     H_    0.443166 0.130578 0.332807 0.217149
H97   H     H_    0.558875 0.109500 0.246100 0.158368
H98   H     H_    0.542160 0.172296 0.227160 0.143633
H99   H     H_    0.556045 0.119202 0.167283 0.133431
H100  H     H_    0.522682 0.834812 0.272449 0.149886
H101  H     H_    0.102331 0.217994 0.943943 0.190281
H102  H     H_    0.598798 0.843099 0.257501 0.107104
H103  H     H_    0.575748 0.934779 0.290736 0.135111
H104  H     H_    0.570330 0.919033 0.215366 0.092982
H105  H     H_    0.498899 0.927679 0.308331 0.201442
H106  H     H_    0.407533 0.142411 0.539201 0.148811
H107  H     H_    0.479384 0.123065 0.528965 0.124299
H108  H     H_    0.466194 0.034441 0.495458 0.156833
H109  H     H_    0.400969 0.054339 0.587685 0.096017
H110  H     H_    0.391694 0.054467 0.513425 0.137320
H111  H     H_    0.987942 0.403922 0.343926 0.176740
H112  H     H_    0.507759 0.313910 0.578503 0.144862
H113  H     H_    0.107951 0.752476 0.946294 0.195964
H114  H     H_    0.066015 0.401237 0.324205 0.100931
H115  H     H_    0.954992 0.465185 0.449590 0.150323
H116  H     H_    0.035229 0.463083 0.422955 0.142273
H117  H     H_    0.019816 0.489073 0.359576 0.102183
H118  H     H_    0.899495 0.645375 0.545158 0.150285
H119  H     H_    0.968366 0.628992 0.543332 0.126182
H120  H     H_    0.956246 0.537889 0.523830 0.147513
H121  H     H_    0.884760 0.562616 0.607059 0.100233
H122  H     H_    0.888064 0.553367 0.524332 0.140160
H123  H     H_    0.285761 0.804260 0.151679 0.152345
H124  H     H_    0.481487 0.667756 0.068986 0.098912
H125  H     H_    0.307850 0.741615 0.160559 0.124570
H126  H     H_    0.295746 0.778055 0.036117 0.176802
H127  H     H_    0.313182 0.713421 0.047635 0.142360
H128  H     H_    0.207711 0.708750 0.172819 0.141381
H129  H     H_    0.199531 0.722229 0.099222 0.147742
H130  H     H_    0.190102 0.773280 0.159819 0.147976
H131  H     H_    0.311988 0.166546 0.080308 0.153432
H132  H     H_    0.324790 0.232099 0.051955 0.108334
H133  H     H_    0.280301 0.189986 0.206473 0.180414
H134  H     H_    0.293333 0.256813 0.181227 0.157531
H135  H     H_    0.468189 0.335357 0.066984 0.120744
H136  H     H_    0.209325 0.254118 0.159578 0.140559
H137  H     H_    0.178847 0.233535 0.252495 0.143774
H138  H     H_    0.196567 0.186475 0.183266 0.149177
H139  H     H_    0.784126 0.301730 0.150545 0.152273
H140  H     H_    0.807027 0.239442 0.159394 0.123354
H141  H     H_    0.797595 0.275173 0.032632 0.175731
H142  H     H_    0.814619 0.210755 0.045500 0.140447
H143  H     H_    0.707650 0.206362 0.169221 0.141757
H144  H     H_    0.701757 0.218956 0.093667 0.144500
H145  H     H_    0.690592 0.270561 0.154427 0.147989
H146  H     H_    0.983497 0.168704 0.068374 0.100147
H147  H     H_    0.843274 0.786468 0.013368 0.123979
H148  H     H_    0.815271 0.812405 0.103528 0.122995
H149  H     H_    0.771501 0.710111 0.078011 0.172973
H150  H     H_    0.742829 0.738651 0.166470 0.166773
H151  H     H_    0.704550 0.815392 0.133515 0.136073
H152  H     H_    0.668538 0.756126 0.133681 0.140896
H153  H     H_    0.731413 0.784725 0.046583 0.151775
H154  H     H_    0.607571 0.888587 0.915263 0.121399
H155  H     H_    0.628794 0.849906 0.835443 0.125801
H156  H     H_    0.729207 0.824361 0.816503 0.167550
H157  H     H_    0.010225 0.819310 0.067075 0.124112
H158  H     H_    0.722818 0.893284 0.813751 0.096244
H159  H     H_    0.708644 0.863008 0.895500 0.148883
H160  H     H_    0.643422 0.132961 0.878955 0.135354
H161  H     H_    0.613272 0.135474 0.976300 0.111376
H162  H     H_    0.711343 0.181083 0.941346 0.149342
H163  H     H_    0.729083 0.119777 0.894981 0.085247
H164  H     H_    0.741509 0.178331 0.844388 0.166447
H165  H     H_    0.102687 0.391498 0.915189 0.121206
H166  H     H_    0.124335 0.352330 0.835589 0.124710
H167  H     H_    0.226213 0.329725 0.814879 0.168016
H168  H     H_    0.457167 0.710058 0.934477 0.092541
H169  H     H_    0.217407 0.398366 0.812485 0.096643
H170  H     H_    0.205242 0.368880 0.893624 0.150174
H171  H     H_    0.065771 0.606843 0.875834 0.130177
H172  H     H_    0.036516 0.595858 0.971901 0.115568
H173  H     H_    0.148149 0.591559 0.932176 0.149502
H174  H     H_    0.132723 0.544445 0.884806 0.085290
H175  H     H_    0.176706 0.602075 0.836677 0.171997
H176  H     H_    0.451341 0.273611 0.934938 0.068144
H177  H     H_    0.957858 0.208833 0.934495 0.089748
H178  H     H_    0.972996 0.810160 0.934456 0.061982
H179  H     H_    0.397261 0.706161 0.061296 0.081209
H180  H     H_    0.004292 0.189689 0.584869 0.135420
H181  H     H_    0.391881 0.279824 0.063326 0.085963
H182  H     H_    0.897911 0.205135 0.061527 0.080903
H183  H     H_    0.916864 0.813505 0.062736 0.083659
H184  H     H_    0.538126 0.706959 0.066347 0.103458
H185  H     H_    0.529703 0.307479 0.067908 0.104839
H186  H     H_    0.038767 0.209243 0.066607 0.104170
H187  H     H_    0.047370 0.762895 0.068423 0.100988
H188  H     H_    0.406733 0.695625 0.592220 0.139670
H189  H     H_    0.413735 0.313925 0.578565 0.147022
H190  H     H_    0.910314 0.189993 0.584808 0.134298
H191  H     H_    0.010588 0.817088 0.572907 0.144195
H192  H     H_    0.916574 0.817142 0.572835 0.146891
H193  H     H_    0.694793 0.048117 0.405736 0.035854
H194  H     H_    0.689905 0.953870 0.411798 0.045791
H195  H     H_    0.197007 0.547840 0.402849 0.034778
H196  H     H_    0.192105 0.453601 0.408878 0.040808
H197  H     H_    0.881236 0.456241 0.422224 0.101425
H198  H     H_    0.882136 0.549243 0.419158 0.092003
H199  H     H_    0.382796 0.956770 0.417074 0.103765
H200  H     H_    0.382479 0.049562 0.414452 0.091891
H201  H     H_    0.528601 0.767628 0.348179 0.087880
H202  H     H_    0.523735 0.832691 0.940616 0.093876
H203  H     H_    0.528182 0.183620 0.351543 0.124794
H204  H     H_    0.029864 0.308851 0.344896 0.095596
H205  H     H_    0.025900 0.677323 0.356986 0.125106
H206  H     H_    0.622517 0.766488 0.348146 0.092790
H207  H     H_    0.621743 0.185285 0.350074 0.097540
H208  H     H_    0.125658 0.305556 0.343256 0.089431
H209  H     H_    0.119210 0.678443 0.356168 0.098609
H210  H     H_    0.612709 0.836926 0.369645 0.159033
H211  H     H_    0.584692 0.138527 0.429052 0.141790
H212  H     H_    0.091271 0.356517 0.416853 0.155814
H213  H     H_    0.542269 0.169047 0.938855 0.103356
H214  H     H_    0.078708 0.636140 0.440462 0.143313
H215  H     H_    0.452366 0.777655 0.935902 0.135217
H216  H     H_    0.461198 0.207258 0.937428 0.134617
H217  H     H_    0.951314 0.276205 0.935943 0.134550
H218  H     H_    0.947298 0.747501 0.936968 0.128130
H219  H     H_    0.467195 0.640511 0.982866 0.104247
H220  H     H_    0.516783 0.597473 0.991908 0.137313
H221  H     H_    0.567266 0.567094 0.862824 0.168641
H222  H     H_    0.482049 0.558935 0.919264 0.079889
H223  H     H_    0.518744 0.611147 0.853163 0.157075
H224  H     H_    0.020490 0.333187 0.941109 0.094271
H225  H     H_    0.450933 0.347905 0.983686 0.102922
H226  H     H_    0.496834 0.358024 0.885009 0.140162
H227  H     H_    0.530945 0.443736 0.903194 0.155328
H228  H     H_    0.445766 0.437895 0.954696 0.084630
H229  H     H_    0.483023 0.431735 0.002002 0.150121
H230  H     H_    0.970626 0.140873 0.982020 0.103526
H231  H     H_    0.020980 0.097682 0.989121 0.135997
H232  H     H_    0.072240 0.070147 0.858590 0.169303
H233  H     H_    0.987142 0.061177 0.914281 0.077875
H234  H     H_    0.023196 0.114825 0.850722 0.156665
H235  H     H_    0.995198 0.673176 0.938461 0.100980
H236  H     H_    0.009336 0.862190 0.983948 0.104486
H237  H     H_    0.057408 0.865084 0.883947 0.135455
H238  H     H_    0.135311 0.920501 0.887224 0.161956
H239  H     H_    0.056666 0.948018 0.936985 0.085871
H240  H     H_    0.083287 0.917884 0.987495 0.154013
H241  H     H_    0.683678 0.901326 0.700937 0.159830
H242  H     H_    0.653216 0.927868 0.653820 0.098241
H243  H     H_    0.683745 0.987982 0.749983 0.177527
H244  H     H_    0.651487 0.015644 0.704254 0.193958
H245  H     H_    0.555612 0.959958 0.778311 0.147721
H246  H     H_    0.469562 0.834010 0.065585 0.129691
H247  H     H_    0.566669 0.998875 0.837108 0.147394
H248  H     H_    0.586985 0.931710 0.824934 0.126710
H249  H     H_    0.833745 0.099652 0.587212 0.167274
H250  H     H_    0.859464 0.064548 0.505121 0.112009
H251  H     H_    0.827240 0.016559 0.651328 0.180626
H252  H     H_    0.860634 0.983543 0.564411 0.200003
H253  H     H_    0.957042 0.039851 0.503088 0.150954
H254  H     H_    0.944216 0.005337 0.581269 0.148680
H255  H     H_    0.923977 0.072492 0.590604 0.140260
H256  H     H_    0.179374 0.402412 0.702840 0.158314
O1    O     O_3   0.750020 0.750020 0.500000 -0.439809
O2    O     O_R   0.741140 0.134170 0.457020 -0.560835
O3    O     O_R   0.241140 0.365830 0.457020 -0.533117
O4    O     O_R   0.241140 0.634170 0.457020 -0.562138
O5    O     O_R   0.862350 0.719680 0.336040 -0.551001
O6    O     O_R   0.862350 0.280320 0.336040 -0.545945
O7    O     O_R   0.362350 0.219680 0.336040 -0.549202
O8    O     O_R   0.362350 0.780320 0.336040 -0.544314
O9    O     O_R   0.698420 0.780360 0.663960 -0.551809
O10   O     O_R   0.698420 0.219640 0.663960 -0.528536
O11   O     O_R   0.198420 0.280360 0.663960 -0.550149
O12   O     O_3   0.750020 0.249980 0.500000 -0.439737
O13   O     O_R   0.198420 0.719640 0.663960 -0.525571
O14   O     O_R   0.801620 0.780400 0.336040 -0.545476
O15   O     O_R   0.801620 0.219600 0.336040 -0.562047
O16   O     O_R   0.301620 0.280400 0.336040 -0.550753
O17   O     O_R   0.301620 0.719600 0.336040 -0.562522
O18   O     O_R   0.637700 0.719640 0.663960 -0.540522
O19   O     O_R   0.637700 0.280360 0.663960 -0.551653
O20   O     O_R   0.137700 0.219640 0.663960 -0.541596
O21   O     O_R   0.137700 0.780360 0.663960 -0.552847
O22   O     O_R   0.801870 0.634220 0.457010 -0.536281
O23   O     O_3   0.250020 0.250020 0.500000 -0.439638
O24   O     O_R   0.801870 0.365780 0.457010 -0.538835
O25   O     O_R   0.301870 0.134220 0.457010 -0.538342
O26   O     O_R   0.301870 0.865780 0.457010 -0.539277
O27   O     O_R   0.758890 0.865820 0.542980 -0.509475
O28   O     O_R   0.758890 0.134180 0.542980 -0.512861
O29   O     O_R   0.258890 0.365820 0.542980 -0.507975
O30   O     O_R   0.258890 0.634180 0.542980 -0.512131
O31   O     O_R   0.887320 0.719660 0.457000 -0.542672
O32   O     O_R   0.887320 0.280340 0.457000 -0.518909
O33   O     O_R   0.387320 0.219660 0.457000 -0.540148
O34   O     O_3   0.250020 0.749980 0.500000 -0.439884
O35   O     O_R   0.387320 0.780340 0.457000 -0.515644
O36   O     O_R   0.655700 0.780400 0.457020 -0.552472
O37   O     O_R   0.655700 0.219600 0.457020 -0.554873
O38   O     O_R   0.155700 0.280400 0.457020 -0.553397
O39   O     O_R   0.155700 0.719600 0.457020 -0.554425
O40   O     O_R   0.844340 0.780370 0.542980 -0.544327
O41   O     O_R   0.844340 0.219630 0.542980 -0.563965
O42   O     O_R   0.344340 0.280370 0.542980 -0.544626
O43   O     O_R   0.344340 0.719630 0.542980 -0.561455
O44   O     O_R   0.612730 0.719670 0.543000 -0.559890
O45   O     O_R   0.698170 0.634220 0.542990 -0.506982
O46   O     O_R   0.612730 0.280330 0.543000 -0.547484
O47   O     O_R   0.112730 0.219670 0.543000 -0.560231
O48   O     O_R   0.112730 0.780330 0.543000 -0.547609
O49   O     O_3   0.565388 0.657433 0.918579 -0.560517
O50   O     O_3   0.551742 0.348695 0.923230 -0.571970
O51   O     O_3   0.068643 0.159039 0.918568 -0.560972
O52   O     O_3   0.099044 0.824991 0.924843 -0.564968
O53   O     O_3   0.747382 0.948163 0.614255 -0.539982
O54   O     O_3   0.764984 0.051863 0.601199 -0.543744
O55   O     O_3   0.244892 0.448173 0.615789 -0.540210
O56   O     O_R   0.698170 0.365780 0.542990 -0.495793
O57   O     O_3   0.263308 0.551884 0.602343 -0.545052
O58   O     O_3   0.797466 0.048443 0.324287 -0.523476
O59   O     O_3   0.790255 0.946844 0.328320 -0.498651
O60   O     O_3   0.299866 0.548171 0.323257 -0.524525
O61   O     O_3   0.292725 0.446468 0.327509 -0.498652
O62   O     O_3   0.646134 0.552641 0.621890 -0.529241
O63   O     O_3   0.649754 0.447202 0.625087 -0.527916
O64   O     O_3   0.148529 0.052614 0.623853 -0.527486
O65   O     O_3   0.153734 0.947453 0.627566 -0.526570
O66   O     O_3   0.898270 0.448049 0.318212 -0.560823
O67   O     O_R   0.198170 0.134220 0.542990 -0.507995
O68   O     O_3   0.887314 0.552417 0.319518 -0.548538
O69   O     O_3   0.395671 0.948311 0.315183 -0.561631
O70   O     O_3   0.384674 0.052451 0.316834 -0.547863
O71   O     O_3   0.517433 0.848866 0.367716 -0.531165
O72   O     O_3   0.484066 0.124428 0.431252 -0.560969
O73   O     O_3   0.989552 0.368956 0.426196 -0.532256
O74   O     O_3   0.978925 0.621996 0.442345 -0.563801
O75   O     O_3   0.377913 0.786092 0.068979 -0.579873
O76   O     O_3   0.388027 0.198788 0.071361 -0.574492
O77   O     O_3   0.876980 0.284769 0.068987 -0.580515
O78   O     O_R   0.198170 0.865780 0.542990 -0.497296
O79   O     O_3   0.869075 0.745448 0.072301 -0.569425
O80   O     O_3   0.607798 0.809575 0.928484 -0.579657
O81   O     O_3   0.620113 0.205736 0.926316 -0.574577
O82   O     O_3   0.105672 0.312750 0.928084 -0.579067
O83   O     O_3   0.081661 0.666205 0.925918 -0.573592
O84   O     O_R   0.741140 0.865830 0.457020 -0.534149
Zn1   Zn    Zn3+2 0.675940 0.706640 0.561420 0.929622
Zn2   Zn    Zn3+2 0.762700 0.206610 0.561410 0.936902
Zn3   Zn    Zn3+2 0.262700 0.293390 0.561410 0.940088
Zn4   Zn    Zn3+2 0.262700 0.706610 0.561410 0.937738
Zn5   Zn    Zn3+2 0.737340 0.793410 0.438590 0.923257
Zn6   Zn    Zn3+2 0.737340 0.206590 0.438590 0.896304
Zn7   Zn    Zn3+2 0.237340 0.293410 0.438590 0.920627
Zn8   Zn    Zn3+2 0.237340 0.706590 0.438590 0.895636
Zn9   Zn    Zn3+2 0.675940 0.293360 0.561420 0.940397
Zn10  Zn    Zn3+2 0.175940 0.206640 0.561420 0.929507
Zn11  Zn    Zn3+2 0.175940 0.793360 0.561420 0.938979
Zn12  Zn    Zn3+2 0.824100 0.706650 0.438580 0.935482
Zn13  Zn    Zn3+2 0.824100 0.293350 0.438580 0.943178
Zn14  Zn    Zn3+2 0.324100 0.206650 0.438580 0.936245
Zn15  Zn    Zn3+2 0.324100 0.793350 0.438580 0.945268
Zn16  Zn    Zn3+2 0.762700 0.793390 0.561410 0.937867

loop_
_geom_bond_atom_site_label_1
_geom_bond_atom_site_label_2
_ccdc_geom_bond_type
C172  C177  S    
C194  C196  A    
C126  C127  S    
C51   H238  S    
C80   H51   S    
C142  C146  S    
C130  H172  S    
C52   O53   S    
C148  C151  S    
C71   H31   S    
C55   C56   S    
C114  C115  S    
C91   O68   S    
C55   O54   S    
C201  O53   S    
C147  H24   S    
C203  O55   S    
C138  C165  S    
C45   O50   S    
C82   H58   S    
C87   H71   S    
C204  O57   S    
C140  O16   A    
C54   H248  S    
C88   H72   S    
C32   C133  S    
O5    Zn12  S    
C141  C154  S    
C11   O65   S    
C47   H227  S    
C84   H63   S    
C44   H222  S    
O43   Zn4   S    
C105  H111  S    
C129  H170  S    
C109  O75   S    
C110  C111  S    
C40   H112  S    
C156  C178  S    
C101  H204  S    
O78   Zn11  S    
C213  H196  S    
C116  H136  S    
C169  C174  S    
C157  C188  S    
C117  H140  S    
C17   C197  S    
O1    Zn5   S    
C138  H178  S    
C141  C145  S    
C73   H36   S    
O29   Zn3   S    
C167  C180  S    
C59   C60   S    
C85   H65   S    
C32   C57   A    
C94   H86   S    
C210  O58   S    
C150  C181  T    
C45   C47   S    
C165  C169  S    
C4    C214  A    
C118  H141  S    
C184  H190  S    
O1    Zn12  S    
C65   H18   S    
C164  C168  S    
C125  H156  S    
C9    O63   S    
C167  C171  S    
C24   C195  A    
C106  H115  S    
O45   Zn1   S    
C115  H133  S    
C122  H152  S    
C34   C39   A    
C12   O66   S    
C186  C190  T    
C43   C44   S    
C135  H168  S    
C5    C207  S    
C89   H76   S    
C13   C184  A    
C176  H90   S    
C49   H232  S    
C22   O41   A    
C120  H148  S    
C74   H38   S    
C77   H45   S    
O23   Zn3   S    
O34   Zn11  S    
C28   O38   A    
C143  C147  S    
C122  H153  S    
C127  H163  S    
C113  H205  S    
C139  O80   S    
O42   Zn3   S    
C45   H226  S    
C49   H234  S    
C71   H29   S    
O17   Zn8   S    
C166  C170  S    
C25   C206  S    
C151  O17   A    
C29   O48   A    
C156  C187  S    
C77   H47   S    
C78   H48   S    
C99   H98   S    
C122  H151  S    
C160  C191  S    
C72   C73   S    
C199  C203  A    
C64   H15   S    
C136  H176  S    
C132  H211  S    
C101  C133  S    
C62   H9    S    
C165  H183  S    
C153  C175  S    
C67   H22   S    
C48   H230  S    
C33   C38   A    
C154  C176  S    
C92   H81   S    
C72   H32   S    
C141  O81   S    
C108  H121  S    
O41   Zn2   S    
C96   H91   S    
C183  C188  T    
C141  H213  S    
C147  H68   S    
C81   H54   S    
C130  C131  S    
C94   O69   S    
C144  H246  S    
C42   C195  A    
C69   O59   S    
C212  H195  S    
C169  C182  S    
C125  H159  S    
C53   H244  S    
C196  C212  S    
C88   C89   S    
C83   O64   S    
C21   C24   S    
C95   H87   S    
C31   C36   A    
C93   H83   S    
C107  H118  S    
O47   Zn10  S    
C113  O74   S    
C210  H193  S    
C16   O70   S    
C172  H186  S    
C15   H199  S    
C111  H130  S    
C158  O19   A    
C95   C96   S    
C119  H143  S    
C143  H235  S    
C128  C129  S    
C194  C213  S    
C136  H216  S    
C97   C98   S    
O67   Zn10  S    
C59   O55   S    
C85   C86   S    
O34   Zn8   S    
C27   O37   A    
C51   H239  S    
C80   H50   S    
C68   C113  S    
C108  H122  S    
C96   H89   S    
C78   C80   S    
O16   Zn7   S    
C13   C57   A    
C115  C116  S    
C138  H218  S    
C19   O29   A    
C1    C152  S    
C4    C8    A    
C61   H6    S    
C20   C200  S    
C72   O60   S    
C145  H2    S    
C120  O79   S    
C116  H138  S    
C131  H173  S    
C31   C46   A    
C84   H62   S    
C209  O26   A    
C198  C202  A    
C107  C108  S    
C132  H207  S    
C140  O7    A    
C72   H33   S    
C28   O47   A    
C6    C208  S    
O20   Zn10  S    
C90   H203  S    
O15   Zn6   S    
C127  H162  S    
C102  H103  S    
O22   Zn12  S    
C97   H94   S    
C23   O33   A    
C97   O70   S    
C55   H250  S    
O27   Zn16  S    
C135  C161  S    
C159  C190  S    
C69   C70   S    
C205  O45   A    
C163  H181  S    
C83   H59   S    
C109  H125  S    
O44   Zn1   S    
C105  O73   S    
C30   C34   A    
C121  H150  S    
C26   O44   A    
C50   H236  S    
C91   C92   S    
O14   Zn5   S    
C160  O13   A    
C77   H44   S    
O26   Zn15  S    
C82   H55   S    
C5    C9    A    
C70   H27   S    
C35   C206  A    
C83   C84   S    
C200  C204  A    
C101  O73   S    
C86   H66   S    
O38   Zn7   S    
C126  O81   S    
C32   C37   A    
C212  C213  S    
C39   C162  A    
O12   Zn9   S    
C100  O71   S    
C75   O61   S    
O39   Zn8   S    
C144  H35   S    
C56   H252  S    
C173  H189  S    
C177  O51   S    
O1    Zn16  S    
C112  C150  S    
C126  H160  S    
C103  C104  S    
C120  C121  S    
C1    O5    A    
C52   H241  S    
C80   H52   S    
C39   H1    S    
C123  H154  S    
C30   C124  S    
C209  O78   A    
C185  C189  T    
C159  O11   A    
C57   C101  S    
C79   C124  S    
C158  O10   A    
C91   H78   S    
C19   C199  S    
C71   H30   S    
C66   H19   S    
C99   H99   S    
C104  H108  S    
C61   H8    S    
C117  C118  S    
O23   Zn7   S    
C20   O4    A    
C69   H25   S    
C193  C210  S    
C28   C37   S    
C67   H23   S    
C56   C58   S    
C128  H165  S    
C129  H169  S    
C212  O60   S    
C37   C41   A    
C43   H220  S    
C10   C11   A    
C63   C64   S    
C6    C216  A    
C208  O25   A    
C2    C23   S    
C164  H182  S    
C117  H139  S    
C48   O51   S    
C162  H188  S    
C140  C149  S    
C119  H145  S    
O23   Zn10  S    
C162  C206  A    
C33   C68   A    
C146  H13   S    
C135  H215  S    
C47   H229  S    
O9    Zn16  S    
C128  H166  S    
C87   C88   S    
C103  H106  S    
C172  H146  S    
C73   C74   S    
C107  H119  S    
C142  O82   S    
O12   Zn6   S    
C4    C205  S    
C52   C53   S    
C207  O24   A    
C118  H142  S    
C124  H206  S    
C58   H254  S    
C65   H17   S    
C3    C7    A    
C60   H4    S    
C2    C173  A    
C123  C125  S    
C139  C153  S    
C106  H116  S    
C193  C198  A    
C98   C99   S    
C14   C214  S    
C16   C216  S    
C100  H100  S    
C65   O58   S    
O40   Zn16  S    
C112  O6    A    
C33   C134  S    
C89   H75   S    
C139  H202  S    
C75   H41   S    
C48   H231  S    
C18   C198  S    
C8    O62   S    
C70   C71   S    
C171  H185  S    
C104  H109  S    
C174  C178  S    
C74   H39   S    
O28   Zn2   S    
C114  H131  S    
C90   C132  S    
C54   H245  S    
C106  H117  S    
C130  H171  S    
C87   O66   S    
O30   Zn4   S    
C60   H5    S    
C170  H184  S    
C25   O35   A    
O8    Zn15  S    
C45   H225  S    
C49   H233  S    
O48   Zn11  S    
C61   H7    S    
C7    C209  S    
C110  H127  S    
C170  C175  S    
C205  O22   A    
C76   H43   S    
C103  O72   S    
C88   H73   S    
C78   H49   S    
C99   H97   S    
C137  H217  S    
C17   O27   A    
C54   H247  S    
C69   H26   S    
C196  C200  A    
C64   H16   S    
C10   O64   S    
C47   H228  S    
C53   C54   S    
C44   H221  S    
C67   H21   S    
C149  C180  T    
O7    Zn14  S    
C144  C166  S    
C60   C61   S    
C171  H135  S    
C58   H253  S    
C62   C63   S    
C16   H200  S    
C136  C154  S    
C159  O20   A    
C81   H53   S    
C50   C51   S    
C105  H114  S    
C124  H210  S    
C21   O31   A    
C192  C197  A    
C121  C122  S    
C53   H243  S    
C26   O36   A    
C161  H179  S    
C48   C49   S    
C161  O75   S    
C133  H212  S    
C113  C134  S    
O12   Zn2   S    
O10   Zn2   S    
C86   H69   S    
C93   H82   S    
C177  H101  S    
C94   H85   S    
C152  C182  T    
O24   Zn13  S    
C170  H124  S    
C151  O8    A    
C145  C167  S    
C146  C168  S    
C111  H129  S    
C23   O42   A    
C134  H209  S    
O3    Zn7   S    
C6    C10   A    
C63   H11   S    
C63   H12   S    
C46   C90   S    
C27   C36   S    
C105  C106  S    
C92   H80   S    
C115  H134  S    
C163  O76   S    
C107  O74   S    
C176  O50   S    
C108  H120  S    
C123  H155  S    
O12   Zn13  S    
C3    C216  A    
C211  H194  S    
C62   H10   S    
C109  C110  S    
C58   H255  S    
C79   H201  S    
O25   Zn14  S    
C130  O83   S    
C20   O30   A    
C92   C93   S    
C13   C22   S    
C120  H147  S    
C94   C95   S    
C74   H37   S    
C24   C68   A    
C168  C172  S    
C12   H197  S    
C19   O3    A    
C127  H164  S    
C133  H208  S    
O37   Zn6   S    
O13   Zn4   S    
C85   O65   S    
C12   C215  S    
C14   O68   S    
C27   O46   A    
C100  H102  S    
C155  C177  S    
C136  C163  S    
C5    C215  A    
O84   Zn5   S    
C102  H104  S    
C203  C204  A    
C97   H93   S    
C55   H249  S    
C175  H79   S    
C201  C202  A    
C142  H224  S    
C207  O56   A    
C87   H70   S    
O1    Zn1   S    
C75   C76   S    
C146  H57   S    
C81   C82   S    
O34   Zn15  S    
C2    C46   A    
C7    C11   A    
C42   H191  S    
C44   H223  S    
C137  C155  S    
O36   Zn5   S    
C103  H107  S    
C30   C35   A    
C121  H149  S    
C38   C42   A    
C90   O72   S    
C40   C173  A    
C18   O28   A    
C15   C16   S    
C168  C181  S    
C111  H128  S    
C208  O67   A    
C82   H56   S    
C35   C79   S    
C118  C119  S    
O23   Zn14  S    
O4    Zn8   S    
C70   H28   S    
O33   Zn14  S    
C81   O63   S    
C26   C34   S    
O32   Zn13  S    
C153  C183  S    
C8    C9    A    
C86   H67   S    
C93   H84   S    
C128  O82   S    
O56   Zn9   S    
C142  C155  S    
C134  H214  S    
C187  C191  T    
C161  C166  S    
O21   Zn11  S    
C202  O54   S    
C109  H123  S    
C21   O40   A    
C22   O32   A    
C119  H144  S    
C126  H161  S    
C110  H126  S    
C15   O69   S    
C52   H242  S    
O31   Zn12  S    
C29   O39   A    
O35   Zn15  S    
C154  C185  S    
C41   C184  A    
C51   H240  S    
C143  O83   S    
C25   O43   A    
C102  H105  S    
C36   C40   A    
O11   Zn3   S    
C76   C77   S    
C75   H40   S    
C158  C189  S    
C214  C215  A    
C64   H14   S    
C18   O2    A    
C195  H192  S    
C76   H42   S    
C91   H77   S    
C66   H20   S    
C29   C38   S    
C171  C176  S    
C163  C167  S    
O2    Zn6   S    
C192  C211  S    
O18   Zn1   S    
C31   C132  S    
C139  C144  S    
C194  C199  A    
O6    Zn13  S    
C116  H137  S    
C95   H88   S    
C131  H174  S    
C84   H61   S    
C175  O49   S    
C100  C102  S    
C125  H158  S    
C85   H64   S    
C165  O79   S    
C197  C201  A    
C43   H219  S    
C112  O15   A    
O19   Zn9   S    
C211  O59   S    
C12   C14   S    
C43   O49   S    
C98   H96   S    
C178  O52   S    
C157  O18   A    
C83   H60   S    
C98   H95   S    
C3    C15   S    
C73   H34   S    
C178  H113  S    
C138  C156  S    
C41   H180  S    
C114  O76   S    
C1    O14   A    
C174  H187  S    
C174  H157  S    
C14   H198  S    
C155  C186  S    
C137  C164  S    
C148  C179  T    
C50   O52   S    
C131  H175  S    
C135  C153  S    
C157  O9    A    
C192  C193  A    
C17   O84   A    
C59   H3    S    
C96   H92   S    
C143  C156  S    
C137  H177  S    
O34   Zn4   S    
C123  O80   S    
C164  O77   S    
C50   H237  S    
C66   C67   S    
C210  C211  S    
C79   O71   S    
C213  O61   S    
C160  O21   A    
C129  H167  S    
C89   H74   S    
C78   O62   S    
C56   H251  S    
C65   C66   S    
C114  H132  S    
C145  H46   S    
C59   H256  S    
C166  C179  S    
O46   Zn9   S    
C104  H110  S    
C147  C169  S    
C117  O77   S    
C62   O57   S    
