data_mof_unit_19060.cif
_audit_creation_date              2012-12-10T16:38:39-0500
_audit_creation_method            fapswitch 2.2
_symmetry_space_group_name_H-M    P1
_symmetry_Int_Tables_number       1
_space_group_crystal_system       triclinic
_cell_length_a                    10.889771
_cell_length_b                    10.872286
_cell_length_c                    17.625749
_cell_angle_alpha                 98.869995
_cell_angle_beta                  73.384466
_cell_angle_gamma                 98.876538
_cell_volume                      1962.34762133

loop_
_atom_site_label
_atom_site_type_symbol
_atom_type_description
_atom_site_fract_x
_atom_site_fract_y
_atom_site_fract_z
_atom_type_partial_charge
C1    C     C_R   0.158638 0.480640 0.515806 0.509520
C2    C     C_R   0.525133 0.338182 0.926450 -0.138378
C3    C     C_R   0.577379 0.267528 0.965871 -0.140996
C4    C     C_R   0.842658 0.520028 0.483218 0.498480
C5    C     C_R   0.579831 0.304551 0.045421 0.035519
C6    C     C_R   0.520682 0.412645 0.085591 0.005167
C7    C     C_R   0.639841 0.236979 0.085653 0.010557
C8    C     C_R   0.639500 0.280426 0.166366 0.001955
C9    C     C_R   0.544060 0.464490 0.158455 -0.150921
C10   C     C_2   0.978649 0.527483 0.480170 -0.115600
C11   C     C_2   0.022023 0.465197 0.526543 0.004236
C12   C     C_R   0.334849 0.689764 0.846009 0.084605
C13   C     C_2   0.556961 0.970542 0.490803 -0.017359
C14   C     C_2   0.452753 0.034584 0.516976 0.095451
C15   C     C_R   0.467026 0.168098 0.517085 0.515050
C16   C     C_R   0.533754 0.833856 0.485347 0.538891
C17   C     C_R   0.564853 0.433750 0.287524 0.489828
C18   C     C_R   0.438108 0.566073 0.713083 0.515613
C19   C     C_R   0.406948 0.591797 0.801660 0.012092
C20   C     C_R   0.592314 0.396131 0.201414 0.023531
C21   C     C_R   0.290457 0.695314 0.930277 0.006797
C22   C     C_3   0.697214 0.116334 0.044244 -0.257005
C23   C     C_R   0.448212 0.512460 0.842210 -0.157010
C24   C     C_3   0.590694 0.005813 0.044780 -0.307542
C25   C     C_3   0.645886 0.885053 0.002330 -0.446878
C26   C     C_3   0.938181 0.376870 0.586131 -0.238797
C27   C     C_3   0.012686 0.311877 0.627750 -0.310335
C28   C     C_3   0.920766 0.227634 0.686549 -0.450199
C29   C     C_3   0.694064 0.041121 0.474097 -0.277331
C30   C     C_3   0.807162 0.961244 0.445097 -0.292130
C31   C     C_3   0.936303 0.042160 0.440781 -0.452884
C32   C     C_3   0.690454 0.205247 0.214685 -0.248248
C33   C     C_3   0.837086 0.236710 0.200858 -0.306500
C34   C     C_R   0.414821 0.521706 0.925918 0.002731
C35   C     C_3   0.893259 0.138200 0.229686 -0.466521
C36   C     C_3   0.194837 0.787261 0.976336 -0.239458
C37   C     C_3   0.262913 0.906889 0.012079 -0.294084
C38   C     C_3   0.166795 0.997256 0.059936 -0.455675
C39   C     C_3   0.271480 0.534873 0.182076 -0.250816
C40   C     C_3   0.217551 0.399512 0.198762 -0.294781
C41   C     C_3   0.143313 0.395100 0.286245 -0.439367
C42   C     C_R   0.334125 0.613135 0.970329 0.018449
C43   C     C_R   0.462697 0.443725 0.966405 0.026144
C44   C     C_R   0.444452 0.469518 0.050090 0.042731
C45   C     C_R   0.344768 0.544259 0.094512 -0.011131
C46   C     C_R   0.296618 0.618455 0.053935 -0.135205
H1    H     H_    0.228232 0.680534 0.089587 0.105824
H2    H     H_    0.537483 0.991209 0.107292 0.159859
H3    H     H_    0.520881 0.026464 0.014769 0.162625
H4    H     H_    0.755949 0.129072 0.982592 0.134791
H5    H     H_    0.767679 0.091749 0.072154 0.145458
H6    H     H_    0.853523 0.283861 0.733719 0.154020
H7    H     H_    0.864147 0.153988 0.655125 0.157510
H8    H     H_    0.977066 0.181411 0.715169 0.168437
H9    H     H_    0.080430 0.253209 0.582692 0.193511
H10   H     H_    0.068860 0.383396 0.660833 0.175365
H11   H     H_    0.869709 0.431764 0.633481 0.180695
H12   H     H_    0.046661 0.586246 0.438466 0.089489
H13   H     H_    0.883631 0.301930 0.554109 0.162115
H14   H     H_    0.949257 0.117799 0.402482 0.145562
H15   H     H_    0.941529 0.084675 0.501368 0.164526
H16   H     H_    0.016261 0.983052 0.415257 0.171406
H17   H     H_    0.796361 0.890923 0.486839 0.189345
H18   H     H_    0.809355 0.912656 0.384512 0.189865
H19   H     H_    0.704692 0.105695 0.428878 0.130196
H20   H     H_    0.704225 0.098609 0.530336 0.167539
H21   H     H_    0.871037 0.043817 0.198816 0.150057
H22   H     H_    0.999613 0.159935 0.216133 0.142274
H23   H     H_    0.522671 0.558069 0.183501 0.108135
H24   H     H_    0.852655 0.137185 0.294940 0.150375
H25   H     H_    0.886025 0.241926 0.136633 0.160701
H26   H     H_    0.858228 0.329940 0.233554 0.168072
H27   H     H_    0.644214 0.222753 0.279524 0.151828
H28   H     H_    0.663397 0.103469 0.200180 0.140531
H29   H     H_    0.113536 0.024835 0.021251 0.163828
H30   H     H_    0.096912 0.952758 0.110304 0.145930
H31   H     H_    0.219239 0.082994 0.084435 0.143639
H32   H     H_    0.316290 0.883220 0.051911 0.155351
H33   H     H_    0.333384 0.954638 0.963329 0.189176
H34   H     H_    0.618729 0.185648 0.931460 0.116316
H35   H     H_    0.140247 0.812619 0.937895 0.176738
H36   H     H_    0.117534 0.742034 0.023127 0.125952
H37   H     H_    0.205299 0.440513 0.325351 0.180333
H38   H     H_    0.055653 0.443831 0.300339 0.148020
H39   H     H_    0.113592 0.296385 0.298786 0.145284
H40   H     H_    0.151884 0.359984 0.160720 0.159489
H41   H     H_    0.296253 0.339251 0.184982 0.179381
H42   H     H_    0.328785 0.579777 0.223459 0.131984
H43   H     H_    0.187137 0.589228 0.199142 0.136128
H44   H     H_    0.511000 0.445786 0.806442 0.136429
H45   H     H_    0.529310 0.303061 0.865272 0.114831
H46   H     H_    0.697054 0.896327 0.939091 0.163952
H47   H     H_    0.713963 0.860125 0.032364 0.152062
H48   H     H_    0.566219 0.807379 0.003921 0.157300
I1    I     I_    0.254595 0.954874 0.532146 -0.349436
I2    I     I_    0.308832 0.842023 0.788785 -0.377424
O1    O     O_3   0.500000 0.500000 0.500000 -0.437346
O2    O     O_R   0.470800 0.371790 0.332500 -0.549840
O3    O     O_R   0.380610 0.619380 0.674980 -0.498807
O4    O     O_R   0.632640 0.524780 0.317540 -0.542495
O5    O     O_R   0.515950 0.484050 0.674980 -0.552694
O6    O     O_R   0.535460 0.243030 0.556410 -0.554212
O7    O     O_R   0.437420 0.784080 0.535340 -0.491448
O8    O     O_R   0.223560 0.397520 0.472140 -0.556662
O9    O     O_R   0.803560 0.575360 0.436110 -0.546752
O10   O     O_R   0.209690 0.568800 0.556400 -0.513022
O11   O     O_R   0.763190 0.458310 0.535350 -0.559404
O12   O     O_R   0.414000 0.207090 0.472140 -0.531294
O13   O     O_R   0.613120 0.765800 0.436110 -0.559688
Zn1   Zn    Zn3+2 0.577310 0.422690 0.565550 0.910639
Zn2   Zn    Zn3+2 0.403760 0.371330 0.445150 0.919760
Zn3   Zn    Zn3+2 0.634990 0.589920 0.423760 0.912272
Zn4   Zn    Zn3+2 0.383940 0.616050 0.565540 0.993424

loop_
_geom_bond_atom_site_label_1
_geom_bond_atom_site_label_2
_ccdc_geom_bond_type
C15   O12   A    
C25   H47   S    
C30   H18   S    
C31   H15   S    
C34   C42   A    
C6    C9    A    
C7    C8    A    
C21   C36   S    
C38   H30   S    
C45   C46   A    
C37   H33   S    
C26   C27   S    
C29   C30   S    
C40   H41   S    
C13   C29   S    
C36   C37   S    
C10   H12   S    
C9    H23   S    
C32   H28   S    
C30   C31   S    
O1    Zn2   S    
C27   H9    S    
C41   H37   S    
C17   C20   S    
C18   C19   S    
C42   C46   A    
C40   H40   S    
C16   O7    A    
C33   H26   S    
C35   H24   S    
C36   H36   S    
C1    C11   S    
C26   H13   S    
C2    C43   A    
C1    O10   A    
C22   H4    S    
C25   H48   S    
C6    C44   A    
C13   C14   D    
C31   H16   S    
C39   H42   S    
C3    H34   S    
C26   H11   S    
C16   O13   A    
C38   H29   S    
C4    O11   A    
O10   Zn4   S    
C24   H2    S    
C24   C25   S    
O13   Zn3   S    
C39   C40   S    
C5    C7    A    
O1    Zn3   S    
C28   H8    S    
C27   H10   S    
C11   C26   S    
O5    Zn1   S    
C41   H38   S    
C12   C21   A    
C29   H20   S    
C18   O5    A    
C8    C32   S    
C31   H14   S    
C19   C23   A    
C43   C44   A    
C37   C38   S    
C9    C20   A    
C35   H21   S    
C36   H35   S    
C23   C34   A    
C23   H44   S    
C8    C20   A    
C1    O8    A    
C29   H19   S    
C40   C41   S    
O9    Zn3   S    
O4    Zn3   S    
O11   Zn1   S    
C22   C24   S    
O6    Zn1   S    
C18   O3    A    
C4    C10   S    
C14   I1    S    
C32   H27   S    
C44   C45   A    
C17   O2    A    
C24   H3    S    
C46   H1    S    
C25   H46   S    
O2    Zn2   S    
O7    Zn4   S    
C34   C43   A    
C3    C5    A    
O3    Zn4   S    
O8    Zn2   S    
C28   H7    S    
C38   H31   S    
C7    C22   S    
C41   H39   S    
C4    O9    A    
O12   Zn2   S    
C39   C45   S    
C32   C33   S    
C2    C3    A    
O1    Zn1   S    
C28   H6    S    
C5    C6    A    
C35   H22   S    
C12   C19   A    
C33   C35   S    
C15   O6    A    
C2    H45   S    
C17   O4    A    
C10   C11   D    
C33   H25   S    
C21   C42   A    
C13   C16   S    
C27   C28   S    
C14   C15   S    
C12   I2    S    
C30   H17   S    
C37   H32   S    
O1    Zn4   S    
C39   H43   S    
C22   H5    S    
