data_mof_unit_55187.cif
_audit_creation_date              2012-10-26T20:31:22-0400
_audit_creation_method            fapswitch 2.2
_symmetry_space_group_name_H-M    P1
_symmetry_Int_Tables_number       1
_space_group_crystal_system       triclinic
_cell_length_a                    11.700607
_cell_length_b                    10.828205
_cell_length_c                    9.537754
_cell_angle_alpha                 89.952685
_cell_angle_beta                  90.031766
_cell_angle_gamma                 89.295187
_cell_volume                      1208.30869658

loop_
_atom_site_label
_atom_site_type_symbol
_atom_type_description
_atom_site_fract_x
_atom_site_fract_y
_atom_site_fract_z
_atom_type_partial_charge
C1    C     C_R   0.494251 0.262397 0.499690 0.562268
C2    C     C_R   0.439266 0.587587 0.074180 0.009793
C3    C     C_R   0.439162 0.587564 0.925294 0.006103
C4    C     C_R   0.283984 0.498693 0.500040 0.544354
C5    C     C_R   0.553389 0.408793 0.926390 0.156403
C6    C     C_3   0.677544 0.375977 0.921431 -0.274686
C7    C     C_3   0.676736 0.374471 0.080390 -0.270736
C8    C     C_R   0.493543 0.737501 0.499896 0.580111
C9    C     C_R   0.716039 0.499391 0.500074 0.559776
C10   C     C_1   0.162365 0.496588 0.500373 -0.011069
C11   C     C_1   0.059923 0.495663 0.500803 -0.038850
C12   C     C_R   0.475515 0.129706 0.499652 -0.043747
C13   C     C_1   0.940158 0.496269 0.500747 -0.046532
C14   C     C_1   0.837693 0.497664 0.500368 -0.017942
C15   C     C_R   0.498825 0.063377 0.621856 -0.034364
C16   C     C_2   0.393165 0.129380 0.251997 0.593732
C17   C     C_3   0.260089 0.888966 0.266256 0.006083
C18   C     C_3   0.195237 0.777637 0.321874 -0.282323
C19   C     C_3   0.066272 0.798299 0.309240 -0.459232
C20   C     C_2   0.707070 0.873779 0.663830 0.585037
C21   C     C_R   0.431139 0.064997 0.381754 0.028988
C22   C     C_R   0.426058 0.934078 0.386238 0.240323
C23   C     C_R   0.475847 0.870369 0.500880 0.015674
C24   C     C_R   0.501364 0.936899 0.621357 -0.055961
C25   C     C_3   0.598681 0.929847 0.723265 -0.044350
C26   C     C_3   0.595726 0.070828 0.723983 -0.248691
C27   C     C_R   0.553022 0.408565 0.073871 0.181913
Cu1   Cu    Cu3+1 0.499990 0.499980 0.640670 0.969193
Cu2   Cu    Cu3+1 0.500010 0.500020 0.359330 1.015964
H1    H     H_    0.730522 0.451200 0.877444 0.173673
H2    H     H_    0.403438 0.141262 0.041306 0.323920
H3    H     H_    0.238414 0.902131 0.153748 0.167689
H4    H     H_    0.228589 0.973072 0.322475 0.134102
H5    H     H_    0.219803 0.694024 0.261223 0.177989
H6    H     H_    0.217759 0.762478 0.433823 0.156742
H7    H     H_    0.038790 0.878966 0.373320 0.174277
H8    H     H_    0.020716 0.715670 0.347283 0.167681
H9    H     H_    0.042015 0.814535 0.198062 0.159891
H10   H     H_    0.833289 0.746987 0.687113 0.332677
H11   H     H_    0.690775 0.280782 0.125432 0.148749
H12   H     H_    0.730103 0.448122 0.126882 0.161738
H13   H     H_    0.572643 0.888769 0.825132 0.143606
H14   H     H_    0.567254 0.109566 0.826219 0.138039
H15   H     H_    0.672300 0.115658 0.678397 0.155878
H16   H     H_    0.391855 0.658246 0.129601 0.155974
H17   H     H_    0.391453 0.658196 0.869333 0.118649
H18   H     H_    0.693774 0.283546 0.874867 0.122925
N1    N     N_R   0.500710 0.500930 0.147930 -0.229963
N2    N     N_R   0.500710 0.500890 0.852020 -0.228463
O1    O     O_R   0.500000 0.319640 0.618810 -0.504162
O2    O     O_R   0.436050 0.091123 0.122096 -0.680392
O3    O     O_3   0.379904 0.867842 0.275699 -0.545440
O4    O     O_2   0.745859 0.910284 0.552299 -0.525538
O5    O     O_R   0.762255 0.778484 0.737089 -0.687301
O6    O     O_R   0.500010 0.319680 0.381230 -0.470238
O7    O     O_R   0.337190 0.499990 0.618790 -0.506104
O8    O     O_R   0.337200 0.500030 0.381210 -0.485444
O9    O     O_R   0.499990 0.680320 0.618770 -0.511666
O10   O     O_R   0.500000 0.680360 0.381190 -0.455617
O11   O     O_R   0.662800 0.499970 0.618790 -0.485785
O12   O     O_R   0.662810 0.500010 0.381210 -0.505392
O13   O     O_2   0.321981 0.212857 0.258362 -0.519928

loop_
_geom_bond_atom_site_label_1
_geom_bond_atom_site_label_2
_ccdc_geom_bond_type
C4    O8    A    
C27   N1    A    
C9    C14   S    
C16   O2    S    
C6    C7    S    
C19   H9    S    
Cu1   O9    S    
C11   C13   S    
C18   H6    S    
C3    H17   S    
C12   C15   A    
C23   C24   A    
C9    O11   A    
C8    O9    A    
C7    H12   S    
C2    C3    A    
C3    N2    A    
C26   H15   S    
C2    H16   S    
C5    C27   A    
C21   C22   A    
C4    O7    A    
C18   H5    S    
C5    N2    A    
C16   C21   S    
C1    C12   S    
C17   H4    S    
C9    O12   A    
C25   H13   S    
C17   O3    S    
C20   O5    S    
C15   C24   A    
C6    H1    S    
Cu2   O8    S    
C26   H14   S    
C17   C18   S    
C19   H7    S    
Cu1   O11   S    
C8    O10   A    
Cu1   O7    S    
C5    C6    S    
Cu2   O12   S    
C1    O6    A    
H10   O5    S    
C19   H8    S    
C10   C11   T    
Cu2   N1    S    
C4    C10   S    
C6    H18   S    
C20   C25   S    
C8    C23   S    
C7    C27   S    
C24   C25   S    
C22   O3    S    
C18   C19   S    
C1    O1    A    
C17   H3    S    
C22   C23   A    
Cu1   Cu2   S    
C15   C26   S    
Cu2   O6    S    
C2    N1    A    
C25   C26   S    
C13   C14   T    
C7    H11   S    
Cu1   O1    S    
C12   C21   A    
C16   O13   D    
Cu2   O10   S    
H2    O2    S    
C20   O4    D    
Cu1   N2    S    
