data_mof_unit_11747.cif
_audit_creation_date              2012-10-26T20:50:50-0400
_audit_creation_method            fapswitch 2.2
_symmetry_space_group_name_H-M    P1
_symmetry_Int_Tables_number       1
_space_group_crystal_system       triclinic
_cell_length_a                    11.055555
_cell_length_b                    10.837608
_cell_length_c                    9.55242
_cell_angle_alpha                 90.457823
_cell_angle_beta                  102.662678
_cell_angle_gamma                 90.135286
_cell_volume                      1116.6472038

loop_
_atom_site_label
_atom_site_type_symbol
_atom_type_description
_atom_site_fract_x
_atom_site_fract_y
_atom_site_fract_z
_atom_type_partial_charge
C1    C     C_R   0.497160 0.262418 0.498711 0.550201
C2    C     C_R   0.400214 0.458822 0.048625 -0.017378
C3    C     C_R   0.400130 0.458988 0.899975 -0.021367
C4    C     C_R   0.262823 0.499653 0.441816 0.557650
C5    C     C_R   0.605798 0.527536 0.953513 0.209128
C6    C     C_3   0.677892 0.645499 0.967923 -0.120658
C7    C     C_3   0.675682 0.647343 0.126730 -0.251767
C8    C     C_R   0.497973 0.737803 0.499745 0.546165
C9    C     C_R   0.737168 0.499686 0.558186 0.555728
C10   C     C_2   0.127883 0.498098 0.409041 -0.126303
C11   C     C_2   0.067324 0.497666 0.515658 -0.159797
C12   C     C_R   0.483979 0.129485 0.494027 0.007912
C13   C     C_2   0.872102 0.499460 0.591012 -0.134881
C14   C     C_2   0.932746 0.495428 0.484564 -0.162893
C15   C     C_R   0.474855 0.065175 0.617121 0.021729
C16   C     C_2   0.805520 0.630828 0.938644 0.222335
C17   C     C_R   0.475768 0.063386 0.365066 -0.159570
C18   C     C_R   0.476558 0.934677 0.365974 -0.159286
C19   C     C_R   0.485633 0.871077 0.495850 0.008483
C20   C     C_R   0.475718 0.938128 0.618238 0.026001
C21   C     C_3   0.553522 0.935383 0.767236 -0.277097
C22   C     C_3   0.551886 0.075228 0.765908 -0.259356
C23   C     C_R   0.605070 0.529038 0.100801 0.162345
Cu1   Cu    Cu3+1 0.499990 0.499980 0.640670 0.952030
Cu2   Cu    Cu3+1 0.500010 0.500020 0.359330 0.942557
H1    H     H_    0.318541 0.427005 0.824086 0.121365
H2    H     H_    0.644503 0.117189 0.769899 0.148972
H3    H     H_    0.318715 0.426823 0.082790 0.129478
H4    H     H_    0.837645 0.696013 0.868995 0.097551
H5    H     H_    0.624340 0.721092 0.907050 0.090014
H6    H     H_    0.619377 0.724086 0.156453 0.120543
H7    H     H_    0.475268 0.110392 0.265305 0.137233
H8    H     H_    0.502229 0.896209 0.844586 0.134756
H9    H     H_    0.767704 0.636001 0.200519 0.151850
H10   H     H_    0.117122 0.499400 0.627306 0.153315
H11   H     H_    0.922182 0.503156 0.702422 0.135324
H12   H     H_    0.077791 0.496913 0.297539 0.136334
H13   H     H_    0.476282 0.885820 0.266558 0.132792
H14   H     H_    0.647313 0.896636 0.771535 0.124291
H15   H     H_    0.499512 0.115994 0.841789 0.141975
H16   H     H_    0.883042 0.490708 0.373056 0.169163
N1    N     N_R   0.500780 0.500930 0.148120 -0.242338
N2    N     N_R   0.500790 0.500890 0.852210 -0.250925
O1    O     O_R   0.500000 0.319640 0.618810 -0.497640
O2    O     O_R   0.500010 0.319680 0.381230 -0.504661
O3    O     O_R   0.320680 0.500000 0.575130 -0.508254
O4    O     O_R   0.320690 0.500040 0.337550 -0.502716
O5    O     O_R   0.499990 0.680320 0.618770 -0.503850
O6    O     O_R   0.500000 0.680360 0.381190 -0.508339
O7    O     O_R   0.679310 0.499960 0.662450 -0.485782
O8    O     O_R   0.679320 0.500000 0.424870 -0.500232
O9    O     O_2   0.873567 0.547008 0.992068 -0.532132

loop_
_geom_bond_atom_site_label_1
_geom_bond_atom_site_label_2
_ccdc_geom_bond_type
C12   C17   A    
Cu2   N1    S    
C8    O5    A    
C6    C7    S    
Cu2   O4    S    
C1    O1    A    
C19   C20   A    
C5    C23   A    
C12   C15   A    
C22   H15   S    
Cu2   O8    S    
C2    C3    A    
C18   H13   S    
Cu1   O3    S    
C15   C22   S    
C4    O3    A    
C21   C22   S    
C20   C21   S    
C1    C12   S    
C1    O2    A    
C5    C6    S    
C23   N1    A    
C2    N1    A    
C10   H12   S    
C7    C23   S    
C3    N2    A    
C11   H10   S    
C6    H5    S    
C17   C18   A    
C22   H2    S    
C14   H16   S    
Cu1   O7    S    
C15   C20   A    
Cu1   O1    S    
C11   C14   S    
Cu2   O6    S    
C8    C19   S    
C21   H8    S    
C10   C11   D    
C6    C16   S    
Cu1   O5    S    
Cu2   O2    S    
C7    H6    S    
Cu1   Cu2   S    
C13   H11   S    
C18   C19   A    
C7    H9    S    
Cu1   N2    S    
C17   H7    S    
C9    C13   S    
C5    N2    A    
C2    H3    S    
C21   H14   S    
C16   H4    S    
C13   C14   D    
C4    C10   S    
C8    O6    A    
C3    H1    S    
C9    O7    A    
C16   O9    D    
C4    O4    A    
C9    O8    A    
