data_mof_unit_10539.cif
_audit_creation_date              2012-12-11T15:22:43-0500
_audit_creation_method            fapswitch 2.2
_symmetry_space_group_name_H-M    P1
_symmetry_Int_Tables_number       1
_space_group_crystal_system       triclinic
_cell_length_a                    22.46091
_cell_length_b                    12.978156
_cell_length_c                    27.001985
_cell_angle_alpha                 89.999495
_cell_angle_beta                  90.4341
_cell_angle_gamma                 89.999917
_cell_volume                      7870.88495291

loop_
_atom_site_label
_atom_site_type_symbol
_atom_type_description
_atom_site_fract_x
_atom_site_fract_y
_atom_site_fract_z
_atom_type_partial_charge
C1    C     C_R   0.720683 0.344879 0.178186 0.543925
C2    C     C_R   0.479273 0.257126 0.897199 -0.134964
C3    C     C_R   0.006201 0.580840 0.555243 -0.123602
C4    C     C_R   0.505068 0.079596 0.394118 -0.138047
C5    C     C_R   0.494934 0.079628 0.605880 -0.138087
C6    C     C_R   0.005060 0.579615 0.394115 -0.138079
C7    C     C_R   0.994937 0.579614 0.605884 -0.138081
C8    C     C_R   0.740227 0.955483 0.371595 0.026228
C9    C     C_R   0.259778 0.955499 0.628401 0.026229
C10   C     C_R   0.240246 0.455426 0.371579 0.026233
C11   C     C_R   0.759773 0.455485 0.628404 0.026228
C12   C     C_R   0.690189 0.919817 0.397258 -0.126215
C13   C     C_R   0.020735 0.757131 0.102800 -0.134964
C14   C     C_R   0.309820 0.919852 0.602737 -0.126212
C15   C     C_R   0.190213 0.419756 0.397247 -0.126225
C16   C     C_R   0.809813 0.419826 0.602741 -0.126217
C17   C     C_R   0.693458 0.903757 0.447837 -0.122575
C18   C     C_R   0.306553 0.903803 0.552157 -0.122574
C19   C     C_R   0.193498 0.403652 0.447822 -0.122584
C20   C     C_R   0.806542 0.403765 0.552162 -0.122579
C21   C     C_R   0.747270 0.919851 0.473263 0.039793
C22   C     C_R   0.252741 0.919889 0.526731 0.039793
C23   C     C_R   0.247320 0.419713 0.473238 0.039797
C24   C     C_R   0.979271 0.757127 0.897199 -0.134964
C25   C     C_R   0.752729 0.419851 0.526737 0.039791
C26   C     C_R   0.798719 0.946032 0.446824 -0.123214
C27   C     C_R   0.201289 0.946054 0.553169 -0.123217
C28   C     C_R   0.298765 0.445884 0.446792 -0.123216
C29   C     C_R   0.701280 0.446026 0.553177 -0.123212
C30   C     C_R   0.795053 0.964771 0.396243 -0.135643
C31   C     C_R   0.204952 0.964783 0.603752 -0.135645
C32   C     C_R   0.295086 0.464656 0.396213 -0.135584
C33   C     C_R   0.704947 0.464766 0.603757 -0.135641
C34   C     C_R   0.784841 0.978698 0.555555 -0.119566
C35   C     C_R   0.509047 0.258532 0.051709 0.014511
C36   C     C_R   0.215164 0.978722 0.444437 -0.119562
C37   C     C_R   0.284893 0.478582 0.555526 -0.119566
C38   C     C_R   0.715156 0.478693 0.444444 -0.119542
C39   C     C_R   0.721077 0.347041 0.321792 0.545515
C40   C     C_R   0.278926 0.347033 0.678204 0.545528
C41   C     C_R   0.221078 0.847043 0.321791 0.545536
C42   C     C_R   0.778923 0.847041 0.678208 0.545531
C43   C     C_R   0.790967 0.963770 0.606300 -0.131486
C44   C     C_R   0.209035 0.963784 0.393694 -0.131475
C45   C     C_R   0.290999 0.463698 0.606275 -0.131485
C46   C     C_R   0.490959 0.258528 0.948290 0.014514
C47   C     C_R   0.709031 0.463766 0.393700 -0.131491
C48   C     C_R   0.720726 0.821845 0.601687 -0.125806
C49   C     C_R   0.279285 0.821873 0.398309 -0.125811
C50   C     C_R   0.220758 0.321772 0.601673 -0.125801
C51   C     C_R   0.779274 0.321846 0.398313 -0.125803
C52   C     C_R   0.715808 0.835042 0.551012 -0.123074
C53   C     C_R   0.284207 0.835081 0.448983 -0.123073
C54   C     C_R   0.215859 0.334926 0.550994 -0.123073
C55   C     C_R   0.784192 0.335043 0.448988 -0.123073
C56   C     C_R   0.749159 0.911516 0.527337 0.038484
C57   C     C_R   0.009046 0.758531 0.051709 0.014512
C58   C     C_R   0.250852 0.911552 0.472657 0.038485
C59   C     C_R   0.249216 0.411384 0.527312 0.038485
C60   C     C_R   0.750839 0.411515 0.472663 0.038480
C61   C     C_R   0.760594 0.882721 0.629263 0.025984
C62   C     C_R   0.239410 0.882735 0.370733 0.025984
C63   C     C_R   0.260614 0.382675 0.629248 0.025986
C64   C     C_R   0.739405 0.382721 0.370737 0.025966
C65   C     C_R   0.552717 0.159418 0.321011 0.536961
C66   C     C_R   0.447284 0.159425 0.678989 0.536989
C67   C     C_R   0.052715 0.659424 0.321010 0.536993
C68   C     C_R   0.990958 0.758529 0.948290 0.014514
C69   C     C_R   0.947285 0.659424 0.678990 0.536989
C70   C     C_R   0.731641 0.001978 0.322943 0.544863
C71   C     C_R   0.268360 0.001981 0.677056 0.544861
C72   C     C_R   0.231645 0.501967 0.322938 0.544862
C73   C     C_R   0.768359 0.501979 0.677057 0.544864
C74   C     C_R   0.516331 0.069931 0.102358 -0.132245
C75   C     C_R   0.483637 0.069923 0.897652 -0.132240
C76   C     C_R   0.016337 0.569930 0.102356 -0.132243
C77   C     C_R   0.983644 0.569924 0.897650 -0.132241
C78   C     C_R   0.506937 0.069945 0.051476 0.012458
C79   C     C_R   0.503824 0.164416 0.025831 0.064325
C80   C     C_R   0.493028 0.069940 0.948534 0.012456
C81   C     C_R   0.006944 0.569944 0.051474 0.012458
C82   C     C_R   0.993035 0.569940 0.948532 0.012456
C83   C     C_R   0.496755 0.976555 0.974377 -0.139489
C84   C     C_R   0.503187 0.976558 0.025638 -0.139484
C85   C     C_R   0.996766 0.476555 0.974374 -0.139488
C86   C     C_R   0.003198 0.476557 0.025635 -0.139485
C87   C     C_3   0.521164 0.370198 0.369784 -0.238406
C88   C     C_3   0.473994 0.445007 0.390037 -0.324412
C89   C     C_3   0.469306 0.542116 0.358316 -0.459678
C90   C     C_R   0.496160 0.164413 0.974174 0.064325
C91   C     C_3   0.478823 0.370279 0.630137 -0.238552
C92   C     C_3   0.526340 0.444649 0.610088 -0.324392
C93   C     C_3   0.530726 0.542155 0.641550 -0.459768
C94   C     C_3   0.021162 0.870270 0.369857 -0.238557
C95   C     C_3   0.973640 0.944642 0.389900 -0.324390
C96   C     C_3   0.969257 0.042143 0.358433 -0.459765
C97   C     C_3   0.978835 0.870266 0.630144 -0.238555
C98   C     C_3   0.026332 0.944667 0.610088 -0.324398
C99   C     C_3   0.030727 0.042151 0.641565 -0.459761
C100  C     C_R   0.003828 0.664415 0.025830 0.064325
C101  C     C_R   0.279317 0.344878 0.821814 0.543925
C102  C     C_R   0.996163 0.664414 0.974173 0.064325
C103  C     C_R   0.504794 0.351876 0.025643 -0.138062
C104  C     C_R   0.495232 0.351874 0.974352 -0.138061
C105  C     C_R   0.004790 0.851876 0.025643 -0.138061
C106  C     C_R   0.995227 0.851875 0.974353 -0.138061
C107  C     C_R   0.739203 0.957474 0.129839 0.023613
C108  C     C_R   0.260798 0.957474 0.870162 0.023614
C109  C     C_R   0.239203 0.457474 0.129839 0.023615
C110  C     C_R   0.760798 0.457474 0.870162 0.023614
C111  C     C_R   0.794157 0.965210 0.105804 -0.130896
C112  C     C_R   0.220683 0.844880 0.178186 0.543922
C113  C     C_R   0.205844 0.965208 0.894196 -0.130898
C114  C     C_R   0.294157 0.465212 0.105804 -0.130897
C115  C     C_R   0.705843 0.465207 0.894196 -0.130898
C116  C     C_R   0.797843 0.946174 0.055135 -0.119698
C117  C     C_R   0.202158 0.946174 0.944866 -0.119699
C118  C     C_R   0.297843 0.446177 0.055135 -0.119698
C119  C     C_R   0.702158 0.446172 0.944865 -0.119699
C120  C     C_R   0.746472 0.920565 0.027722 0.036628
C121  C     C_R   0.253530 0.920569 0.972279 0.036630
C122  C     C_R   0.246471 0.420566 0.027722 0.036629
C123  C     C_R   0.779317 0.844878 0.821814 0.543921
C124  C     C_R   0.753530 0.420568 0.972279 0.036630
C125  C     C_R   0.692327 0.906977 0.052395 -0.121619
C126  C     C_R   0.307675 0.906983 0.947607 -0.121620
C127  C     C_R   0.192326 0.406976 0.052395 -0.121619
C128  C     C_R   0.807675 0.406983 0.947607 -0.121619
C129  C     C_R   0.553875 0.157216 0.177423 0.547108
C130  C     C_R   0.446124 0.157215 0.822578 0.547112
C131  C     C_R   0.053875 0.657216 0.177423 0.547110
C132  C     C_R   0.946124 0.657215 0.822578 0.547111
C133  C     C_R   0.688852 0.924223 0.103050 -0.126182
C134  C     C_R   0.473628 0.162644 0.872067 -0.004561
C135  C     C_R   0.311149 0.924226 0.896951 -0.126182
C136  C     C_R   0.188852 0.424221 0.103050 -0.126181
C137  C     C_R   0.811149 0.424226 0.896951 -0.126182
C138  C     C_R   0.716109 0.832821 0.949339 -0.118811
C139  C     C_R   0.283895 0.832828 0.050662 -0.118812
C140  C     C_R   0.216109 0.332821 0.949339 -0.118811
C141  C     C_R   0.783894 0.332828 0.050662 -0.118812
C142  C     C_R   0.721796 0.818079 0.898622 -0.125323
C143  C     C_R   0.278207 0.818086 0.101380 -0.125324
C144  C     C_R   0.221796 0.318079 0.898622 -0.125323
C145  C     C_R   0.526364 0.162651 0.127936 -0.004568
C146  C     C_R   0.778207 0.318086 0.101380 -0.125325
C147  C     C_R   0.791520 0.960434 0.894719 -0.124966
C148  C     C_R   0.208480 0.960436 0.105281 -0.124969
C149  C     C_R   0.291519 0.460436 0.894718 -0.124965
C150  C     C_R   0.708479 0.460435 0.105281 -0.124969
C151  C     C_R   0.785099 0.976213 0.945414 -0.115968
C152  C     C_R   0.214902 0.976216 0.054586 -0.115969
C153  C     C_R   0.285097 0.476215 0.945413 -0.115967
C154  C     C_R   0.714901 0.476214 0.054586 -0.115969
C155  C     C_R   0.749017 0.910103 0.973435 0.038525
C156  C     C_R   0.973630 0.662645 0.872067 -0.004562
C157  C     C_R   0.250985 0.910108 0.026566 0.038527
C158  C     C_R   0.249016 0.410104 0.973435 0.038526
C159  C     C_R   0.750985 0.410107 0.026566 0.038527
C160  C     C_R   0.761356 0.879129 0.871254 0.024155
C161  C     C_R   0.238645 0.879132 0.128746 0.024155
C162  C     C_R   0.261355 0.379129 0.871254 0.024155
C163  C     C_R   0.738645 0.379132 0.128746 0.024153
C164  C     C_R   0.521634 0.170080 0.369110 0.020138
C165  C     C_R   0.478359 0.170110 0.630886 0.020191
C166  C     C_R   0.021633 0.670102 0.369110 0.020189
C167  C     C_R   0.026366 0.662650 0.127935 -0.004565
C168  C     C_R   0.978365 0.670101 0.630889 0.020187
C169  C     C_R   0.519531 0.265331 0.395168 0.001009
C170  C     C_R   0.480422 0.265351 0.604811 0.001162
C171  C     C_R   0.019558 0.765343 0.395183 0.001150
C172  C     C_R   0.980441 0.765342 0.604815 0.001140
C173  C     C_R   0.516638 0.262437 0.446972 -0.096590
C174  C     C_R   0.483275 0.262430 0.553008 -0.096614
C175  C     C_R   0.016692 0.762420 0.446986 -0.096606
C176  C     C_R   0.983308 0.762420 0.553013 -0.096601
C177  C     C_R   0.731185 0.002046 0.179289 0.542210
C178  C     C_R   0.520736 0.257132 0.102800 -0.134966
C179  C     C_R   0.268815 0.002045 0.820711 0.542209
C180  C     C_R   0.231185 0.502046 0.179289 0.542203
C181  C     C_R   0.768815 0.502045 0.820710 0.542209
C182  C     C_R   0.502831 0.171154 0.472477 0.023158
C183  C     C_R   0.497102 0.171155 0.527509 0.023161
C184  C     C_R   0.002867 0.671141 0.472484 0.023164
C185  C     C_R   0.997132 0.671141 0.527515 0.023165
C186  C     C_R   0.493786 0.080837 0.444756 -0.123587
C187  C     C_R   0.506188 0.080858 0.555237 -0.123594
C188  C     C_R   0.993796 0.580841 0.444757 -0.123597
Cr1   Cr    Cr6+3 0.756570 0.170940 0.251190 1.008045
Cr2   Cr    Cr6+3 0.374010 0.036240 0.749520 1.007803
Cr3   Cr    Cr6+3 0.125990 0.536240 0.250480 1.007804
Cr4   Cr    Cr6+3 0.874010 0.536240 0.749520 1.007802
Cr5   Cr    Cr6+3 0.243430 0.170940 0.748810 1.008044
Cr6   Cr    Cr6+3 0.256570 0.670940 0.251190 1.008028
Cr7   Cr    Cr6+3 0.743430 0.670940 0.748810 1.008045
Cr8   Cr    Cr6+3 0.623740 0.299110 0.249580 1.001183
Cr9   Cr    Cr6+3 0.376260 0.299110 0.750420 1.001205
Cr10  Cr    Cr6+3 0.123740 0.799110 0.249580 1.001204
Cr11  Cr    Cr6+3 0.876260 0.799110 0.750420 1.001203
Cr12  Cr    Cr6+3 0.625990 0.036240 0.250480 1.007796
H1    H     H_    0.479698 0.996559 0.878680 0.126760
H2    H     H_    0.348083 0.888007 0.967751 0.104967
H3    H     H_    0.486996 0.582069 0.642533 0.150362
H4    H     H_    0.544963 0.522812 0.679925 0.153129
H5    H     H_    0.564116 0.595200 0.625322 0.138799
H6    H     H_    0.570369 0.405602 0.610051 0.168341
H7    H     H_    0.515322 0.468221 0.571577 0.146906
H8    H     H_    0.433862 0.404760 0.625228 0.158701
H9    H     H_    0.488755 0.362451 0.670181 0.172130
H10   H     H_    0.012987 0.082054 0.357448 0.150362
H11   H     H_    0.955019 0.022793 0.320060 0.153130
H12   H     H_    0.935867 0.095193 0.374659 0.138802
H13   H     H_    0.151919 0.387996 0.032250 0.104968
H14   H     H_    0.929612 0.905593 0.389936 0.168344
H15   H     H_    0.984654 0.968221 0.428411 0.146917
H16   H     H_    0.066122 0.904752 0.374771 0.158698
H17   H     H_    0.011236 0.862441 0.329812 0.172131
H18   H     H_    0.986994 0.082048 0.642576 0.150366
H19   H     H_    0.044993 0.022785 0.679929 0.153131
H20   H     H_    0.064100 0.095220 0.625330 0.138802
H21   H     H_    0.070365 0.905635 0.610023 0.168339
H22   H     H_    0.015285 0.968264 0.571586 0.146912
H23   H     H_    0.933867 0.904726 0.625250 0.158733
H24   H     H_    0.848083 0.388008 0.967751 0.104968
H25   H     H_    0.988784 0.862429 0.670185 0.172114
H26   H     H_    0.645655 0.918501 0.120411 0.129563
H27   H     H_    0.354347 0.918505 0.879590 0.129554
H28   H     H_    0.145655 0.418497 0.120411 0.129560
H29   H     H_    0.854347 0.418507 0.879590 0.129556
H30   H     H_    0.519725 0.009667 0.537835 0.099768
H31   H     H_    0.480263 0.009641 0.462161 0.099759
H32   H     H_    0.019731 0.509645 0.537841 0.099771
H33   H     H_    0.520257 0.996570 0.121333 0.126760
H34   H     H_    0.980264 0.509647 0.462159 0.099770
H35   H     H_    0.496660 0.006361 0.625053 0.126213
H36   H     H_    0.503370 0.006319 0.374952 0.126219
H37   H     H_    0.996654 0.506346 0.625057 0.126220
H38   H     H_    0.003343 0.506347 0.374943 0.126220
H39   H     H_    0.525732 0.332560 0.467073 0.091859
H40   H     H_    0.474149 0.332548 0.532907 0.091824
H41   H     H_    0.025808 0.832539 0.467089 0.091814
H42   H     H_    0.974193 0.832539 0.532909 0.091815
H43   H     H_    0.647166 0.912390 0.379198 0.131511
H44   H     H_    0.979706 0.496561 0.878678 0.126760
H45   H     H_    0.352842 0.912430 0.620797 0.131521
H46   H     H_    0.147183 0.412363 0.379197 0.131511
H47   H     H_    0.852836 0.412405 0.620800 0.131516
H48   H     H_    0.809400 0.040608 0.538226 0.100298
H49   H     H_    0.190602 0.040630 0.461766 0.100292
H50   H     H_    0.309459 0.540478 0.538190 0.100303
H51   H     H_    0.690594 0.540602 0.461774 0.100305
H52   H     H_    0.821686 0.011907 0.627023 0.117768
H53   H     H_    0.178311 0.011912 0.372970 0.117772
H54   H     H_    0.321712 0.511852 0.626996 0.117761
H55   H     H_    0.020266 0.496568 0.121331 0.126760
H56   H     H_    0.678310 0.511902 0.372977 0.117768
H57   H     H_    0.493930 0.903555 0.955006 0.097951
H58   H     H_    0.505996 0.903560 0.045012 0.097959
H59   H     H_    0.993944 0.403555 0.955003 0.097953
H60   H     H_    0.006010 0.403558 0.045009 0.097957
H61   H     H_    0.653007 0.884250 0.467273 0.098028
H62   H     H_    0.347006 0.884309 0.532721 0.098029
H63   H     H_    0.153050 0.384149 0.467264 0.098031
H64   H     H_    0.846994 0.384263 0.532726 0.098029
H65   H     H_    0.688295 0.781678 0.530190 0.098055
H66   H     H_    0.822128 0.008728 0.874362 0.122134
H67   H     H_    0.311726 0.781726 0.469806 0.098056
H68   H     H_    0.188349 0.281551 0.530174 0.098059
H69   H     H_    0.811707 0.281682 0.469811 0.098053
H70   H     H_    0.696967 0.758213 0.618397 0.133495
H71   H     H_    0.303047 0.758243 0.381601 0.133499
H72   H     H_    0.196992 0.258154 0.618389 0.133503
H73   H     H_    0.803035 0.258216 0.381604 0.133492
H74   H     H_    0.841243 0.955435 0.465458 0.097513
H75   H     H_    0.158765 0.955452 0.534536 0.097511
H76   H     H_    0.341295 0.455260 0.465419 0.097451
H77   H     H_    0.177870 0.008729 0.125637 0.122132
H78   H     H_    0.658755 0.455424 0.534544 0.097510
H79   H     H_    0.834094 0.992043 0.377004 0.122274
H80   H     H_    0.165908 0.992039 0.622992 0.122271
H81   H     H_    0.334131 0.491903 0.376967 0.122317
H82   H     H_    0.665905 0.492030 0.622998 0.122271
H83   H     H_    0.471606 0.328939 0.877660 0.122237
H84   H     H_    0.528420 0.328944 0.122335 0.122248
H85   H     H_    0.971601 0.828939 0.877660 0.122239
H86   H     H_    0.028416 0.828943 0.122336 0.122244
H87   H     H_    0.491267 0.424799 0.955071 0.100239
H88   H     H_    0.322127 0.508731 0.874362 0.122134
H89   H     H_    0.508776 0.424802 0.044919 0.100240
H90   H     H_    0.991260 0.924800 0.955072 0.100239
H91   H     H_    0.008768 0.924802 0.044920 0.100239
H92   H     H_    0.833623 0.990449 0.125656 0.120732
H93   H     H_    0.166377 0.990445 0.874344 0.120731
H94   H     H_    0.333623 0.490453 0.125655 0.120729
H95   H     H_    0.666377 0.490443 0.874344 0.120730
H96   H     H_    0.688212 0.780331 0.969976 0.098848
H97   H     H_    0.311793 0.780340 0.030026 0.098846
H98   H     H_    0.188212 0.280329 0.969976 0.098847
H99   H     H_    0.677870 0.508727 0.125637 0.122133
H100  H     H_    0.811793 0.280339 0.030026 0.098846
H101  H     H_    0.698422 0.754004 0.881646 0.132689
H102  H     H_    0.301582 0.754012 0.118356 0.132688
H103  H     H_    0.198423 0.254002 0.881647 0.132689
H104  H     H_    0.801582 0.254012 0.118356 0.132688
H105  H     H_    0.840566 0.954054 0.037198 0.105894
H106  H     H_    0.159435 0.954053 0.962802 0.105892
H107  H     H_    0.340566 0.454058 0.037198 0.105893
H108  H     H_    0.659434 0.454049 0.962802 0.105892
H109  H     H_    0.809526 0.038487 0.962881 0.099992
H110  H     H_    0.651919 0.887998 0.032250 0.104969
H111  H     H_    0.190474 0.038489 0.037118 0.099990
H112  H     H_    0.309524 0.538491 0.962880 0.099992
H113  H     H_    0.690472 0.538487 0.037118 0.099990
H114  H     H_    0.513083 0.581806 0.356762 0.150431
H115  H     H_    0.454469 0.522324 0.320142 0.153139
H116  H     H_    0.436237 0.595535 0.374723 0.138788
H117  H     H_    0.429913 0.406142 0.390607 0.168269
H118  H     H_    0.485575 0.469051 0.428377 0.146764
H119  H     H_    0.566245 0.404377 0.374408 0.159120
H120  H     H_    0.510894 0.362219 0.329795 0.171860
O1    O     O_R   0.769900 0.064540 0.196060 -0.523876
O2    O     O_R   0.433710 0.069580 0.694600 -0.520933
O3    O     O_R   0.066290 0.569580 0.305400 -0.520932
O4    O     O_R   0.933710 0.569580 0.694600 -0.520935
O5    O     O_R   0.680760 0.993330 0.302620 -0.505468
O6    O     O_R   0.319240 0.993330 0.697380 -0.505465
O7    O     O_R   0.180760 0.493330 0.302620 -0.505459
O8    O     O_R   0.819240 0.493330 0.697380 -0.505465
O9    O     O_3   0.668770 0.168760 0.250420 -0.233113
O10   O     O_3   0.331230 0.168760 0.749580 -0.233122
O11   O     O_3   0.168770 0.668760 0.250420 -0.233113
O12   O     O_R   0.230100 0.064540 0.803940 -0.523875
O13   O     O_3   0.831230 0.668760 0.749580 -0.233119
O14   O     O_R   0.750800 0.274080 0.199250 -0.505357
O15   O     O_R   0.249200 0.274080 0.800750 -0.505356
O16   O     O_R   0.250800 0.774080 0.199250 -0.505359
O17   O     O_R   0.749200 0.774080 0.800750 -0.505359
O18   O     O_R   0.669990 0.371670 0.194150 -0.520443
O19   O     O_R   0.330010 0.371670 0.805850 -0.520449
O20   O     O_R   0.169990 0.871670 0.194150 -0.520454
O21   O     O_R   0.830010 0.871670 0.805850 -0.520451
O22   O     O_R   0.574600 0.238480 0.197800 -0.502491
O23   O     O_R   0.269900 0.564540 0.196060 -0.523888
O24   O     O_R   0.425400 0.238480 0.802200 -0.502498
O25   O     O_R   0.074600 0.738480 0.197800 -0.502501
O26   O     O_R   0.925400 0.738480 0.802200 -0.502498
O27   O     O_R   0.566130 0.068680 0.194240 -0.526293
O28   O     O_R   0.433870 0.068680 0.805760 -0.526296
O29   O     O_R   0.066130 0.568680 0.194240 -0.526294
O30   O     O_R   0.933870 0.568680 0.805760 -0.526296
O31   O     O_R   0.680610 0.992490 0.199570 -0.506043
O32   O     O_R   0.319390 0.992490 0.800430 -0.506043
O33   O     O_R   0.180610 0.492490 0.199570 -0.506045
O34   O     O_R   0.730100 0.564540 0.803940 -0.523875
O35   O     O_R   0.819390 0.492490 0.800430 -0.506044
O36   O     O_R   0.770060 0.065440 0.307230 -0.524741
O37   O     O_R   0.229940 0.065440 0.692770 -0.524745
O38   O     O_R   0.270060 0.565440 0.307230 -0.524753
O39   O     O_R   0.729940 0.565440 0.692770 -0.524740
O40   O     O_R   0.750960 0.274920 0.302300 -0.505453
O41   O     O_R   0.249040 0.274920 0.697700 -0.505469
O42   O     O_R   0.250960 0.774920 0.302300 -0.505460
O43   O     O_R   0.749040 0.774920 0.697700 -0.505467
O44   O     O_R   0.670160 0.372580 0.305320 -0.526239
O45   O     O_R   0.574760 0.239320 0.300850 -0.512263
O46   O     O_R   0.329840 0.372580 0.694680 -0.526141
O47   O     O_R   0.170160 0.872580 0.305320 -0.526143
O48   O     O_R   0.829840 0.872580 0.694680 -0.526147
O49   O     O_R   0.425240 0.239320 0.699150 -0.512274
O50   O     O_R   0.074760 0.739320 0.300850 -0.512271
O51   O     O_R   0.925240 0.739320 0.699150 -0.512270
O52   O     O_R   0.566290 0.069580 0.305400 -0.520937

loop_
_geom_bond_atom_site_label_1
_geom_bond_atom_site_label_2
_ccdc_geom_bond_type
C7    C168  A    
C34   C56   A    
C77   H44   S    
C21   C26   A    
C117  H106  S    
C128  H24   S    
C91   H8    S    
C116  H105  S    
C126  H2    S    
C150  C163  A    
C6    H38   S    
Cr7   O43   S    
C2    C134  A    
C177  O1    A    
C13   C167  A    
C18   H62   S    
Cr4   O8    S    
C77   C156  A    
C98   H21   S    
C29   C33   A    
C148  H77   S    
C4    C186  A    
C76   H55   S    
C149  C153  A    
C182  C183  S    
C79   C90   A    
Cr8   O44   S    
C141  H100  S    
C7    H37   S    
C178  H84   S    
C87   H120  S    
C25   C60   S    
C151  C155  A    
Cr4   O13   S    
C129  C145  S    
C81   C86   A    
C131  O25   A    
C35   C178  A    
C136  H28   S    
C96   H11   S    
C101  O19   A    
Cr9   O49   S    
C130  C134  S    
C72   O38   A    
C80   C83   A    
C70   O5    A    
C123  O21   A    
C25   C29   A    
C27   C31   A    
C9    C71   S    
C28   C32   A    
C127  C136  A    
C41   O47   A    
C47   C64   A    
C120  C125  A    
C120  C155  S    
C17   C21   A    
C97   H23   S    
C108  C113  A    
C19   C23   A    
C112  C161  S    
C16   C20   A    
C122  C158  S    
C129  O27   A    
C40   C63   S    
C46   C90   A    
C49   H71   S    
C173  C182  A    
C142  H101  S    
C22   C27   A    
C36   C44   A    
Cr2   O2    S    
C37   C45   A    
C32   H81   S    
C43   C61   A    
C27   H75   S    
C170  C174  A    
C152  C157  A    
C49   C62   A    
C51   C64   A    
C22   C58   S    
C53   C58   A    
C82   C85   A    
Cr9   O46   S    
C35   C103  A    
Cr11  O48   S    
C71   O37   A    
C69   C168  S    
C47   H56   S    
C131  O29   A    
C20   H64   S    
C77   C82   A    
C49   C53   A    
C70   O36   A    
C51   C55   A    
C94   H17   S    
C93   H3    S    
Cr1   O36   S    
C41   O42   A    
Cr11  O13   S    
C99   H20   S    
C139  C157  A    
C71   O6    A    
C98   C99   S    
C20   C25   A    
C149  C162  A    
C143  C161  A    
C183  C187  A    
C24   C156  A    
Cr1   O1    S    
C181  O34   A    
C122  C127  A    
C74   C145  A    
C97   C98   S    
C5    H35   S    
C75   C134  A    
Cr4   O30   S    
Cr3   O33   S    
C85   C86   A    
C72   O7    A    
C23   C59   S    
C65   O45   A    
Cr11  O26   S    
C135  H27   S    
C154  H113  S    
C103  H89   S    
C13   C57   A    
C87   C169  S    
C184  C185  S    
C118  C122  A    
Cr10  O11   S    
C140  C158  A    
Cr12  O5    S    
C139  C143  A    
C141  C159  A    
C110  C181  S    
C15   H46   S    
Cr5   O15   S    
Cr2   O32   S    
Cr7   O13   S    
Cr5   O37   S    
C52   H65   S    
C48   H70   S    
C107  C177  S    
C88   H118  S    
C50   C63   A    
C4    H36   S    
C147  C160  A    
Cr4   O4    S    
C54   C59   A    
C69   O4    A    
C113  H93   S    
C96   H10   S    
C115  H95   S    
Cr10  O25   S    
C11   C33   A    
C108  C135  A    
C91   C92   S    
C127  H13   S    
Cr7   O34   S    
C53   H67   S    
Cr4   O35   S    
C116  C120  A    
C108  C179  S    
C12   C17   A    
C147  C151  A    
C105  H91   S    
C83   C84   A    
C99   H18   S    
C48   C52   A    
C8    C12   A    
C118  H107  S    
C82   C102  A    
C23   C28   A    
C85   H59   S    
C31   H80   S    
C89   H115  S    
C86   H60   S    
C37   C59   A    
C109  C114  A    
C113  C117  A    
C123  O17   A    
C144  H103  S    
Cr5   O41   S    
C151  H109  S    
C115  C119  A    
C38   C60   A    
C179  O12   A    
C67   C166  S    
C176  H42   S    
C33   H82   S    
C66   C165  S    
Cr1   O9    S    
C18   C22   A    
C107  C111  A    
Cr5   O10   S    
C148  C152  A    
C173  H39   S    
C26   C30   A    
C67   O3    A    
C8    C70   S    
C150  H99   S    
C154  C159  A    
C92   H7    S    
C177  O31   A    
C109  C180  S    
C98   H22   S    
C35   C79   A    
C132  C156  S    
Cr7   O17   S    
C87   H119  S    
Cr12  O52   S    
C95   H14   S    
C169  C173  A    
C1    O18   A    
C172  C176  A    
C132  O26   A    
C146  H104  S    
C138  C155  A    
C97   H25   S    
C87   C88   S    
C6    C166  A    
C96   H12   S    
Cr6   O16   S    
Cr3   O29   S    
C91   H9    S    
Cr8   O18   S    
C75   H1    S    
C176  C185  A    
C15   C19   A    
C39   C64   S    
C50   C54   A    
C97   C172  S    
C101  C162  S    
C66   O2    A    
C68   C102  A    
C3    C7    A    
C106  H90   S    
C65   O52   A    
C44   H53   S    
Cr10  O47   S    
C37   H50   S    
C182  C186  A    
Cr2   O10   S    
C143  H102  S    
C145  C178  A    
C111  C116  A    
C45   H54   S    
C124  C128  A    
C14   H45   S    
C55   C60   A    
Cr10  O50   S    
Cr5   O12   S    
C41   C62   S    
C147  H66   S    
C112  O20   A    
C51   H73   S    
C180  O33   A    
C133  H26   S    
C137  H29   S    
C138  C142  A    
C186  H31   S    
C101  O15   A    
C29   H78   S    
Cr11  O21   S    
Cr12  O31   S    
C46   C104  A    
C54   H68   S    
C111  H92   S    
C121  C126  A    
C40   O41   A    
Cr2   O28   S    
C3    H32   S    
C9    C14   A    
C130  O24   A    
C174  H40   S    
C94   C171  S    
C11   C16   A    
C36   H49   S    
C74   H33   S    
Cr3   O11   S    
C141  C146  A    
C99   H19   S    
C126  C135  A    
C114  H94   S    
C11   C73   S    
C149  H88   S    
Cr3   O3    S    
Cr6   O11   S    
C188  H34   S    
C112  O16   A    
C42   O43   A    
C16   H47   S    
C165  C170  A    
C42   O48   A    
C110  C137  A    
C140  C144  A    
C174  C183  A    
C21   C56   S    
Cr9   O19   S    
C81   C100  A    
C105  C106  A    
Cr1   O14   S    
Cr8   O45   S    
C8    C30   A    
Cr11  O51   S    
C107  C133  A    
C130  O28   A    
C131  C167  S    
C132  O30   A    
C92   C93   S    
C83   H57   S    
C17   H61   S    
C94   C95   S    
C92   H6    S    
C24   C68   A    
C19   H63   S    
C13   H86   S    
C168  C172  A    
C1    C163  S    
C74   C78   A    
C103  C104  A    
C3    C185  A    
C40   O46   A    
C125  H110  S    
C110  C115  A    
C180  O23   A    
C175  C184  A    
C57   C105  A    
C95   H15   S    
C14   C18   A    
C95   C96   S    
C93   H5    S    
C119  C124  A    
C2    C46   A    
C30   H79   S    
C148  C161  A    
C84   H58   S    
C139  H97   S    
C36   C58   A    
C10   C15   A    
C28   H76   S    
C123  C160  S    
C124  C159  S    
C153  C158  A    
C76   C167  A    
C93   H4    S    
C117  C121  A    
C69   O51   A    
C187  H30   S    
C43   H52   S    
C4    C164  A    
C5    C165  A    
Cr8   O22   S    
C75   C80   A    
Cr6   O38   S    
C153  H112  S    
C88   C89   S    
C166  C171  A    
C121  C157  S    
C181  O35   A    
C152  H111  S    
C164  C169  A    
C68   C106  A    
C119  H108  S    
C73   O39   A    
Cr2   O6    S    
C138  H96   S    
C26   H74   S    
C78   C79   A    
C140  H98   S    
C44   C62   A    
C57   C100  A    
C171  C175  A    
C45   C63   A    
C184  C188  A    
C128  C137  A    
C66   O49   A    
C10   C32   A    
Cr10  O20   S    
C38   H51   S    
C179  O32   A    
C12   H43   S    
C100  C102  A    
C39   O40   A    
C42   C61   S    
C38   C47   A    
C114  C118  A    
Cr6   O42   S    
C55   H69   S    
C6    C188  A    
C67   O50   A    
C50   H72   S    
C34   H48   S    
C88   H117  S    
C129  O22   A    
Cr1   O40   S    
C89   H114  S    
C125  C133  A    
Cr6   O23   S    
C175  H41   S    
Cr12  O27   S    
C24   H85   S    
C91   C170  S    
C144  C162  A    
Cr8   O9    S    
C142  C160  A    
C76   C81   A    
C2    H83   S    
C146  C163  A    
C94   H16   S    
Cr9   O10   S    
C1    O14   A    
C48   C61   A    
Cr9   O24   S    
C65   C164  S    
Cr3   O7    S    
C80   C90   A    
C39   O44   A    
C89   H116  S    
C9    C31   A    
C104  H87   S    
Cr7   O39   S    
C73   O8    A    
C78   C84   A    
C150  C154  A    
C5    C187  A    
C34   C43   A    
C52   C56   A    
C10   C72   S    
Cr12  O9    S    
C109  C136  A    
