data_mof_unit_53771.cif
_audit_creation_date              2012-12-10T19:07:37-0500
_audit_creation_method            fapswitch 2.2
_symmetry_space_group_name_H-M    P1
_symmetry_Int_Tables_number       1
_space_group_crystal_system       triclinic
_cell_length_a                    10.834187
_cell_length_b                    10.770435
_cell_length_c                    9.56441
_cell_angle_alpha                 90.375974
_cell_angle_beta                  90.446015
_cell_angle_gamma                 90.649713
_cell_volume                      1115.93029842

loop_
_atom_site_label
_atom_site_type_symbol
_atom_type_description
_atom_site_fract_x
_atom_site_fract_y
_atom_site_fract_z
_atom_type_partial_charge
C1    C     C_R   0.499948 0.262755 0.499337 0.851173
C2    C     C_R   0.937066 0.434962 0.602672 -0.059351
C3    C     C_3   0.934147 0.445659 0.758468 0.404626
C4    C     C_3   0.074339 0.443175 0.755840 0.353029
C5    C     C_R   0.399352 0.063321 0.547738 -0.095626
C6    C     C_R   0.499193 0.129703 0.494923 -0.163490
C7    C     C_R   0.589842 0.064995 0.419476 0.446626
C8    C     C_R   0.589930 0.934382 0.424082 -0.198082
C9    C     C_R   0.497299 0.870222 0.497197 -0.067194
C10   C     C_R   0.396988 0.936280 0.546988 0.016106
C11   C     C_3   0.315928 0.927977 0.672759 -0.483969
C12   C     C_R   0.262400 0.499978 0.499067 0.829612
C13   C     C_3   0.319715 0.071019 0.674630 0.387878
C14   C     C_R   0.588797 0.564280 0.074974 -0.009500
C15   C     C_R   0.420036 0.427227 0.073122 -0.042590
C16   C     C_R   0.419745 0.427628 0.924433 -0.030736
C17   C     C_R   0.589231 0.563896 0.927528 0.043850
C18   C     C_3   0.616215 0.700337 0.924070 0.968391
C19   C     C_3   0.615995 0.700475 0.082073 0.907959
C20   C     C_R   0.498243 0.737256 0.500107 0.861951
C21   C     C_R   0.737446 0.499545 0.500250 0.865175
C22   C     C_R   0.063976 0.434026 0.600403 -0.060078
C23   C     C_R   0.128900 0.493416 0.493993 -0.200152
C24   C     C_R   0.062902 0.536616 0.375831 0.469777
C25   C     C_R   0.933605 0.537952 0.379990 -0.264872
C26   C     C_R   0.870441 0.493809 0.497541 -0.079839
Cu1   Cu    Cu3+1 0.499990 0.499980 0.640670 1.040039
Cu2   Cu    Cu3+1 0.500010 0.500020 0.359330 1.033285
H1    H     H_    0.359161 0.881139 0.762475 0.271818
H2    H     H_    0.228519 0.111534 0.648581 0.147402
H3    H     H_    0.353740 0.369958 0.127769 0.145426
H4    H     H_    0.353068 0.371120 0.867841 0.229708
H5    H     H_    0.883243 0.580638 0.295099 0.220489
H6    H     H_    0.889843 0.364597 0.810011 0.108198
H7    H     H_    0.120986 0.529502 0.794188 0.123024
H8    H     H_    0.664543 0.883798 0.376000 0.205180
H9    H     H_    0.223087 0.889961 0.644880 0.185042
N1    N     N_R   0.500790 0.500930 0.147930 -0.171636
N2    N     N_R   0.500790 0.500890 0.852020 -0.193666
O1    O     O_R   0.500000 0.319640 0.618810 -0.567620
O2    O     O_R   0.500010 0.319680 0.381230 -0.588212
O3    O     O_R   0.319650 0.499970 0.618810 -0.590927
O4    O     O_R   0.319660 0.500010 0.381230 -0.550014
O5    O     O_R   0.499990 0.680320 0.618770 -0.527348
O6    O     O_R   0.500000 0.680360 0.381190 -0.514611
O7    O     O_R   0.680340 0.499990 0.618770 -0.541043
O8    O     O_R   0.680350 0.500030 0.381190 -0.583693
O9    O     O_3   0.124503 0.594278 0.267127 -0.549043
C27   C     C_3   0.101967 0.528113 0.141434 -0.172304
H10   H     H_    0.117750 0.426686 0.153650 0.142313
H11   H     H_    0.167529 0.562304 0.061536 0.193970
H12   H     H_    0.007226 0.544902 0.101050 0.194087
O10   O     O_3   0.374653 0.132891 0.792417 -0.555045
C28   C     C_3   0.482170 0.076920 0.846935 -0.177292
H13   H     H_    0.542482 0.035875 0.765972 0.185387
H14   H     H_    0.456487 0.006262 0.925791 0.219388
H15   H     H_    0.537759 0.149543 0.901921 0.149214
F1    F     F_    0.729620 0.729510 0.867048 -0.580003
F2    F     F_    0.521293 0.768948 0.868786 -0.696708
F3    F     F_    0.729874 0.727486 0.142083 -0.670951
F4    F     F_    0.521057 0.770457 0.136228 -0.650487
F5    F     F_    0.891155 0.559431 0.802854 -0.616127
F6    F     F_    0.120334 0.335117 0.812583 -0.688994
O11   O     O_3   0.685604 0.129302 0.356763 -0.582546
C29   C     C_3   0.674135 0.115845 0.210409 -0.219031
H16   H     H_    0.743813 0.176916 0.160314 0.184159
H17   H     H_    0.581570 0.145299 0.172413 0.151541
H18   H     H_    0.692660 0.018918 0.176475 0.206956

loop_
_geom_bond_atom_site_label_1
_geom_bond_atom_site_label_2
_ccdc_geom_bond_type
C2    C22   A    
C12   O3    A    
C23   C24   A    
C15   N1    A    
C15   H3    S    
C6    C7    A    
C19   F3    S    
C16   H4    S    
C4    C22   S    
C9    C10   A    
C18   F2    S    
C9    C20   S    
C5    C13   S    
C20   O6    A    
Cu1   O3    S    
Cu2   N1    S    
Cu1   O1    S    
C21   C26   S    
C29   H18   S    
O11   C29   S    
C27   H12   S    
C25   H5    S    
C17   C18   S    
C3    C4    S    
C4    H7    S    
C5    C10   A    
C2    C26   A    
C1    O1    A    
O10   C28   S    
C11   C13   S    
C14   C17   A    
C19   F4    S    
Cu1   O5    S    
Cu1   O7    S    
C4    F6    S    
O9    C27   S    
C20   O5    A    
C2    C3    S    
C12   O4    A    
C13   O10   S    
C8    H8    S    
C5    C6    A    
C7    O11   S    
C27   H10   S    
C28   H14   S    
Cu2   O6    S    
C14   N1    A    
C10   C11   S    
C16   N2    A    
C1    C6    S    
C21   O7    A    
C13   H2    S    
C7    C8    A    
C24   C25   A    
C11   H1    S    
C29   H16   S    
C17   N2    A    
C3    F5    S    
C1    O2    A    
Cu1   Cu2   S    
C11   H9    S    
C21   O8    A    
C28   H13   S    
C18   C19   S    
C12   C23   S    
Cu2   O4    S    
C3    H6    S    
C29   H17   S    
C25   C26   A    
C22   C23   A    
C14   C19   S    
C18   F1    S    
Cu2   O8    S    
Cu2   O2    S    
C15   C16   A    
Cu1   N2    S    
C8    C9    A    
C27   H11   S    
C28   H15   S    
C24   O9    S    
