data_mof_unit_43534.cif
_audit_creation_date              2012-10-26T18:33:40-0400
_audit_creation_method            fapswitch 2.2
_symmetry_space_group_name_H-M    P1
_symmetry_Int_Tables_number       1
_space_group_crystal_system       triclinic
_cell_length_a                    15.07957
_cell_length_b                    13.682906
_cell_length_c                    10.746338
_cell_angle_alpha                 89.942201
_cell_angle_beta                  89.534204
_cell_angle_gamma                 90.111137
_cell_volume                      2217.23844584

loop_
_atom_site_label
_atom_site_type_symbol
_atom_type_description
_atom_site_fract_x
_atom_site_fract_y
_atom_site_fract_z
_atom_type_partial_charge
C1    C     C_R   0.328492 0.499949 0.499022 0.562426
C2    C     C_R   0.046344 0.679836 0.500392 0.271786
C3    C     C_R   0.093311 0.590632 0.497930 0.000746
C4    C     C_R   0.500123 0.500308 0.259616 0.643606
C5    C     C_R   0.046630 0.500974 0.496652 0.015608
C6    C     C_R   0.092809 0.411263 0.495367 0.011651
C7    C     C_R   0.046008 0.322698 0.494253 -0.133332
C8    C     C_R   0.953634 0.322653 0.494684 -0.134576
C9    C     C_R   0.185897 0.589093 0.497054 -0.142807
C10   C     C_R   0.231745 0.500078 0.497195 -0.028378
C11   C     C_R   0.185103 0.411485 0.495794 -0.147755
C12   C     C_3   0.579070 0.442187 0.927533 -0.294324
C13   C     C_R   0.440976 0.793038 0.574025 0.030585
C14   C     C_R   0.441240 0.206552 0.574411 0.034957
C15   C     C_R   0.558651 0.793440 0.425651 0.029013
C16   C     C_R   0.558211 0.206892 0.424920 0.042910
C17   C     C_R   0.559603 0.896513 0.423195 -0.027680
C18   C     C_R   0.559419 0.103791 0.422879 -0.014924
C19   C     C_R   0.671550 0.500097 0.499290 0.541547
C20   C     C_R   0.499430 0.948126 0.499294 0.054319
C21   C     C_R   0.499430 0.051800 0.499278 0.054614
C22   C     C_R   0.439404 0.896120 0.575617 -0.015552
C23   C     C_R   0.814755 0.411583 0.496702 -0.140254
C24   C     C_R   0.439540 0.103430 0.575803 -0.015902
C25   C     C_R   0.619054 0.948955 0.346850 -0.152992
C26   C     C_R   0.618948 0.051678 0.346664 -0.147542
C27   C     C_R   0.379727 0.050940 0.651619 -0.145642
C28   C     C_R   0.379627 0.948202 0.651484 -0.147523
C29   C     C_R   0.499717 0.500156 0.740314 0.547024
C30   C     C_3   0.506948 0.610456 0.070738 0.460203
C31   C     C_3   0.410580 0.452517 0.073338 0.457178
C32   C     C_3   0.504864 0.607738 0.926462 -0.194056
C33   C     C_3   0.411218 0.455952 0.927688 -0.205851
C34   C     C_R   0.768407 0.500338 0.497802 -0.008323
C35   C     C_3   0.579445 0.442261 0.070796 -0.333329
C36   C     C_3   0.498891 0.501629 0.121383 0.142999
C37   C     C_3   0.498981 0.501102 0.878040 -0.055807
C38   C     C_3   0.114403 0.796249 0.619687 -0.019440
C39   C     C_3   0.045116 0.864417 0.676101 -0.386065
C40   C     C_3   0.445743 0.767604 0.106408 0.041265
C41   C     C_3   0.358183 0.818697 0.132807 -0.377915
C42   C     C_3   0.256347 0.455612 0.117123 0.034074
C43   C     C_3   0.180236 0.527190 0.134404 -0.381219
C44   C     C_R   0.814810 0.589299 0.497279 -0.137661
C45   C     C_R   0.907226 0.590104 0.496962 -0.040899
C46   C     C_R   0.953666 0.500798 0.496648 0.045718
C47   C     C_R   0.907126 0.411181 0.495968 0.020913
C48   C     C_R   0.953715 0.678774 0.497216 -0.109544
Cu1   Cu    Cu3+1 0.499990 0.597420 0.500010 0.965192
Cu2   Cu    Cu3+1 0.499990 0.402580 0.500010 0.948402
H1    H     H_    0.222589 0.657221 0.496692 0.164455
H2    H     H_    0.665527 0.090341 0.287093 0.101945
H3    H     H_    0.333077 0.089315 0.711076 0.100803
H4    H     H_    0.332930 0.909518 0.710870 0.090645
H5    H     H_    0.446331 0.649053 0.892172 0.128825
H6    H     H_    0.354679 0.500615 0.893744 0.114653
H7    H     H_    0.564251 0.644888 0.886163 0.111721
H8    H     H_    0.401572 0.381702 0.887827 0.099839
H9    H     H_    0.643043 0.472673 0.105180 0.119148
H10   H     H_    0.578277 0.365799 0.105689 0.133407
H11   H     H_    0.642096 0.474574 0.891818 0.128547
H12   H     H_    0.220502 0.342571 0.495284 0.128332
H13   H     H_    0.575887 0.365392 0.893789 0.146885
H14   H     H_    0.779083 0.342688 0.496511 0.121624
H15   H     H_    0.779132 0.658039 0.497675 0.125451
H16   H     H_    0.918187 0.747552 0.495858 0.121560
H17   H     H_    0.637536 0.630764 0.061892 0.296258
H18   H     H_    0.442436 0.311858 0.064419 0.298773
H19   H     H_    0.178235 0.836668 0.613508 0.144383
H20   H     H_    0.125938 0.733208 0.683611 0.111019
H21   H     H_    0.981773 0.824646 0.691659 0.139066
H22   H     H_    0.068849 0.892337 0.766949 0.098527
H23   H     H_    0.080865 0.253507 0.493318 0.107363
H24   H     H_    0.033507 0.927331 0.612961 0.162457
H25   H     H_    0.469438 0.789907 0.012250 0.112057
H26   H     H_    0.494227 0.792620 0.176879 0.181746
H27   H     H_    0.333955 0.799440 0.227645 0.178374
H28   H     H_    0.367431 0.899120 0.127106 0.097006
H29   H     H_    0.307995 0.795921 0.063471 0.149222
H30   H     H_    0.253570 0.401917 0.194873 0.185187
H31   H     H_    0.247063 0.416743 0.027180 0.121936
H32   H     H_    0.179879 0.580606 0.056518 0.150190
H33   H     H_    0.116163 0.487050 0.136110 0.099324
H34   H     H_    0.918563 0.253448 0.494045 0.105022
H35   H     H_    0.187698 0.567240 0.223515 0.180750
H36   H     H_    0.395306 0.751886 0.632156 0.110330
H37   H     H_    0.395781 0.247418 0.632857 0.113597
H38   H     H_    0.604472 0.752589 0.367761 0.149485
H39   H     H_    0.603737 0.248015 0.366542 0.114897
H40   H     H_    0.665675 0.910543 0.287383 0.111813
N1    N     N_R   0.499930 0.743810 0.499950 -0.240716
N2    N     N_R   0.499930 0.256190 0.499950 -0.236067
O1    O     O_R   0.370250 0.582280 0.500040 -0.510162
O2    O     O_3   0.405012 0.354749 0.117305 -0.709601
O3    O     O_3   0.090223 0.768778 0.497502 -0.566114
O4    O     O_3   0.432793 0.665273 0.115493 -0.485175
O5    O     O_3   0.337493 0.507654 0.120421 -0.503001
O6    O     O_R   0.370250 0.417720 0.500040 -0.503810
O7    O     O_R   0.499970 0.582270 0.317700 -0.433395
O8    O     O_R   0.499970 0.417730 0.317700 -0.488131
O9    O     O_R   0.629730 0.582260 0.499980 -0.514289
O10   O     O_R   0.629730 0.417740 0.499980 -0.520334
O11   O     O_R   0.500000 0.582270 0.682320 -0.517974
O12   O     O_R   0.500000 0.417730 0.682320 -0.509229
O13   O     O_3   0.586971 0.653148 0.113949 -0.736065

loop_
_geom_bond_atom_site_label_1
_geom_bond_atom_site_label_2
_ccdc_geom_bond_type
C38   H20   S    
C42   H30   S    
C33   H8    S    
C18   C21   A    
C43   H33   S    
C35   C36   S    
C9    H1    S    
C24   C27   A    
C11   H12   S    
C4    C36   S    
C7    C8    A    
C7    H23   S    
C45   C46   A    
Cu2   O12   S    
C25   H40   S    
C2    O3    S    
C40   O4    S    
C14   H37   S    
C41   H27   S    
C38   C39   S    
C19   O10   A    
C17   C20   A    
C29   O11   A    
C35   H9    S    
C39   H24   S    
C14   C24   A    
C12   C37   S    
C48   H16   S    
C30   O4    S    
C18   C26   A    
C38   O3    S    
C39   H22   S    
C31   C33   S    
C9    C10   A    
C32   H5    S    
C33   H6    S    
C38   H19   S    
C16   H39   S    
C22   C28   A    
C13   N1    A    
C44   H15   S    
C42   H31   S    
C32   H7    S    
Cu1   N1    S    
Cu2   O6    S    
C23   C47   A    
C43   H35   S    
C34   C44   A    
C42   O5    S    
C41   H28   S    
C12   H13   S    
C28   H4    S    
H17   O13   S    
C2    C48   A    
C25   C26   A    
C33   C37   S    
C40   H26   S    
C29   O12   A    
C35   H10   S    
C13   H36   S    
C41   H29   S    
C3    C9    A    
C26   H2    S    
Cu1   O7    S    
C23   C34   A    
C16   C18   A    
C32   C37   S    
C12   C35   S    
C14   N2    A    
Cu2   N2    S    
C23   H14   S    
C20   C22   A    
C16   N2    A    
C4    O8    A    
C30   O13   S    
C21   C24   A    
C42   C43   S    
C6    C11   A    
C44   C45   A    
C45   C48   A    
C15   C17   A    
C46   C47   A    
C40   C41   S    
C8    H34   S    
C1    C10   S    
C3    C5    A    
C19   C34   S    
C1    O6    A    
Cu1   O11   S    
C27   H3    S    
Cu2   O10   S    
C6    C7    A    
C31   O2    S    
C5    C46   A    
Cu2   O8    S    
C40   H25   S    
C30   C36   S    
C17   C25   A    
C2    C3    A    
C8    C47   A    
C30   C32   S    
C12   H11   S    
C19   O9    A    
C5    C6    A    
C13   C22   A    
C31   O5    S    
H18   O2    S    
C10   C11   A    
C15   N1    A    
C20   C21   A    
C1    O1    A    
Cu1   Cu2   S    
C4    O7    A    
C29   C37   S    
C27   C28   A    
C43   H32   S    
C39   H21   S    
C31   C36   S    
Cu1   O1    S    
Cu1   O9    S    
C15   H38   S    
