data_mof_unit_65741.cif
_audit_creation_date              2012-12-10T20:11:14-0500
_audit_creation_method            fapswitch 2.2
_symmetry_space_group_name_H-M    P1
_symmetry_Int_Tables_number       1
_space_group_crystal_system       triclinic
_cell_length_a                    19.296872
_cell_length_b                    18.546451
_cell_length_c                    14.158628
_cell_angle_alpha                 89.999945
_cell_angle_beta                  90.011491
_cell_angle_gamma                 90.000237
_cell_volume                      5067.20990761

loop_
_atom_site_label
_atom_site_type_symbol
_atom_type_description
_atom_site_fract_x
_atom_site_fract_y
_atom_site_fract_z
_atom_type_partial_charge
C1    C     C_R   0.365631 0.500000 0.499971 0.940052
C2    C     C_R   0.634369 0.500000 0.500030 0.940342
C3    C     C_R   0.963978 0.513981 0.416023 -0.068555
C4    C     C_R   0.035838 0.486074 0.584048 -0.068301
C5    C     C_R   0.035784 0.513930 0.415981 -0.068283
C6    C     C_R   0.964032 0.486026 0.584053 -0.068525
C7    C     C_R   0.071417 0.500001 0.500003 0.165649
C8    C     C_R   0.928453 0.500004 0.500049 0.166316
C9    C     C_R   0.453083 0.726794 0.553874 0.451074
C10   C     C_R   0.453090 0.273207 0.446087 0.451077
C11   C     C_R   0.546918 0.726794 0.446127 0.451240
C12   C     C_R   0.546910 0.273207 0.553913 0.451242
C13   C     C_R   0.451184 0.802485 0.552427 -0.192110
C14   C     C_R   0.451195 0.197515 0.447527 -0.192106
C15   C     C_R   0.548815 0.802486 0.447574 -0.192103
C16   C     C_R   0.548805 0.197516 0.552473 -0.192098
C17   C     C_R   0.499999 0.841617 0.500000 0.100058
C18   C     C_R   0.499999 0.158385 0.500000 0.100069
C19   C     C_R   0.498632 0.961938 0.414128 0.314904
C20   C     C_R   0.498598 0.038066 0.585870 0.314921
C21   C     C_R   0.501367 0.961938 0.585873 0.314978
C22   C     C_R   0.501401 0.038065 0.414130 0.314993
C23   C     C_R   0.499999 0.077173 0.500000 -0.181929
C24   C     C_R   0.499999 0.922829 0.500000 -0.181915
C25   C     C_R   0.499999 0.500000 0.329063 0.905647
C26   C     C_R   0.500000 0.500000 0.670937 0.905645
C27   C     C_1   0.499999 0.500000 0.227644 -0.111936
C28   C     C_1   0.499999 0.500000 0.772355 -0.111935
C29   C     C_1   0.499998 0.500000 0.142438 0.053174
C30   C     C_1   0.499998 0.500000 0.857562 0.053174
C31   C     C_1   0.499997 0.500000 0.042604 0.067855
C32   C     C_1   0.499997 0.500000 0.957396 0.067855
C33   C     C_R   0.745888 0.434555 0.496015 -0.178924
C34   C     C_R   0.254113 0.565431 0.495840 -0.178371
C35   C     C_R   0.254114 0.434568 0.504085 -0.178387
C36   C     C_R   0.745888 0.565447 0.504106 -0.178923
C37   C     C_R   0.817730 0.434271 0.496130 0.379392
C38   C     C_R   0.182272 0.565736 0.495937 0.378188
C39   C     C_R   0.182273 0.434263 0.504006 0.378184
C40   C     C_R   0.817730 0.565732 0.504009 0.379394
C41   C     C_R   0.853616 0.500002 0.500070 -0.138262
C42   C     C_R   0.146327 0.500000 0.499979 -0.136132
C43   C     C_R   0.709707 0.500000 0.500051 -0.186427
C44   C     C_R   0.290290 0.499999 0.499962 -0.186361
H1    H     H_    0.718576 0.383605 0.492468 0.229545
H2    H     H_    0.281435 0.616387 0.492590 0.229619
H3    H     H_    0.281436 0.383612 0.507331 0.229611
H4    H     H_    0.718575 0.616396 0.507645 0.229549
H5    H     H_    0.936062 0.524735 0.351132 0.166326
H6    H     H_    0.063723 0.475386 0.648983 0.166864
H7    H     H_    0.063627 0.524616 0.351028 0.166867
H8    H     H_    0.936157 0.475272 0.648961 0.166331
H9    H     H_    0.412135 0.830606 0.593193 0.225251
H10   H     H_    0.412156 0.169393 0.406722 0.225241
H11   H     H_    0.587865 0.830607 0.406809 0.225152
H12   H     H_    0.587844 0.169394 0.593277 0.225143
N1    N     N_R   0.500000 0.689440 0.500000 -0.164436
N2    N     N_R   0.500000 0.310560 0.500000 -0.164435
O1    O     O_R   0.398180 0.560840 0.499980 -0.586516
O2    O     O_R   0.601820 0.439160 0.500020 -0.586415
O3    O     O_R   0.601820 0.560840 0.500020 -0.586408
O4    O     O_R   0.398180 0.439160 0.499980 -0.586522
O5    O     O_R   0.500000 0.560830 0.373710 -0.566912
O6    O     O_R   0.500000 0.439170 0.626290 -0.566904
O7    O     O_R   0.500000 0.560830 0.626290 -0.566808
O8    O     O_R   0.500000 0.439170 0.373710 -0.566799
Zn1   Zn    Zn3+2 0.500000 0.581210 0.500000 1.062067
Zn2   Zn    Zn3+2 0.500000 0.418790 0.500000 1.062073
Cl1   Cl    Cl    0.861308 0.350874 0.490113 -0.480840
Cl2   Cl    Cl    0.138854 0.649324 0.492609 -0.482153
Cl3   Cl    Cl    0.138855 0.350677 0.507348 -0.482155
Cl4   Cl    Cl    0.861308 0.649130 0.510031 -0.480836
Cl5   Cl    Cl    0.394565 0.682131 0.628411 -0.524338
Cl6   Cl    Cl    0.394576 0.317873 0.371514 -0.524338
Cl7   Cl    Cl    0.605440 0.682132 0.371596 -0.525657
Cl8   Cl    Cl    0.605427 0.317874 0.628482 -0.525662
Cl9   Cl    Cl    0.490165 0.916285 0.304941 -0.423954
Cl10  Cl    Cl    0.490095 0.083721 0.695044 -0.423957
Cl11  Cl    Cl    0.509833 0.916286 0.695059 -0.423714
Cl12  Cl    Cl    0.509905 0.083721 0.304957 -0.423720

loop_
_geom_bond_atom_site_label_1
_geom_bond_atom_site_label_2
_ccdc_geom_bond_type
O8    Zn2   S    
C38   Cl2   S    
C37   Cl1   S    
C27   C29   T    
C33   H1    S    
C14   C18   A    
C35   H3    S    
C1    O4    A    
C3    H5    S    
O6    Zn2   S    
C10   N2    A    
C38   C42   A    
C1    O1    A    
C2    O2    A    
C25   O5    A    
C7    C42   S    
C19   Cl9   S    
C9    C13   A    
C26   O6    A    
O1    Zn1   S    
C11   C15   A    
C12   C16   A    
O7    Zn1   S    
C34   H2    S    
C2    O3    A    
C12   N2    A    
C9    Cl5   S    
N1    Zn1   S    
C4    C7    A    
C39   C42   A    
C13   H9    S    
O5    Zn1   S    
C17   C24   S    
C18   C23   S    
C33   C43   A    
C36   C40   A    
C19   C22   A    
C34   C44   A    
C8    C41   S    
C4    C6    A    
C3    C8    A    
C10   C14   A    
C5    C7    A    
C6    C8    A    
C33   C37   A    
C4    H6    S    
C15   H11   S    
C35   C39   A    
C16   H12   S    
O3    Zn1   S    
C1    C44   S    
C31   C32   T    
C20   C23   A    
C2    C43   S    
C21   Cl11  S    
C35   C44   A    
N2    Zn2   S    
C40   C41   A    
C14   H10   S    
C12   Cl8   S    
C15   C17   A    
C40   Cl4   S    
C34   C38   A    
C26   O7    A    
C25   O8    A    
C3    C5    A    
C20   Cl10  S    
C25   C27   S    
C26   C28   S    
C13   C17   A    
C28   C30   T    
C19   C24   A    
C22   Cl12  S    
C29   C31   S    
C11   Cl7   S    
C30   C32   S    
C10   Cl6   S    
C36   H4    S    
C9    N1    A    
O4    Zn2   S    
C37   C41   A    
C20   C21   A    
O2    Zn2   S    
C16   C18   A    
C21   C24   A    
C39   Cl3   S    
C22   C23   A    
C5    H7    S    
C36   C43   A    
C6    H8    S    
C11   N1    A    
