data_mof_unit_8744.cif
_audit_creation_date              2012-12-11T21:12:38-0500
_audit_creation_method            fapswitch 2.2
_symmetry_space_group_name_H-M    P1
_symmetry_Int_Tables_number       1
_space_group_crystal_system       triclinic
_cell_length_a                    8.223993
_cell_length_b                    18.854288
_cell_length_c                    26.968294
_cell_angle_alpha                 99.514616
_cell_angle_beta                  92.720555
_cell_angle_gamma                 88.34964
_cell_volume                      4118.53204419

loop_
_atom_site_label
_atom_site_type_symbol
_atom_type_description
_atom_site_fract_x
_atom_site_fract_y
_atom_site_fract_z
_atom_type_partial_charge
Ba1   Ba    Ba6+2 0.160810 0.465630 0.521640 1.816825
Ba2   Ba    Ba6+2 0.649380 0.534380 0.478400 1.861707
C1    C     C_3   0.429380 0.279921 0.699601 -0.344163
C2    C     C_R   0.059845 0.095141 0.445952 0.557412
C3    C     C_R   0.213022 0.956649 0.463411 -0.066846
C4    C     C_3   0.966086 0.272629 0.629467 0.299892
C5    C     C_R   0.055890 0.978556 0.478880 -0.024152
C6    C     C_R   0.270960 0.886557 0.462449 0.571808
C7    C     C_R   0.175361 0.834497 0.478652 -0.144677
C8    C     C_R   0.025938 0.857619 0.501330 -0.130199
C9    C     C_R   0.966964 0.930123 0.501725 0.024325
C10   C     C_R   0.223944 0.760834 0.474101 -0.020699
C11   C     C_R   0.123229 0.712085 0.491225 0.247999
C12   C     C_3   0.436335 0.305055 0.649114 0.314688
C13   C     C_R   0.986210 0.734848 0.518759 -0.012829
C14   C     C_R   0.937884 0.809158 0.524928 -0.177823
C15   C     C_R   0.846152 0.072912 0.500336 0.022756
C16   C     C_3   0.997462 0.202201 0.649268 0.438478
C17   C     C_R   0.787897 0.145351 0.501147 0.031875
C18   C     C_R   0.874482 0.193625 0.477443 -0.132995
C19   C     C_R   0.004026 0.165914 0.447781 -0.041157
C20   C     C_R   0.806783 0.837788 0.554291 0.653895
C21   C     C_R   0.748802 0.907633 0.553826 -0.060020
C22   C     C_R   0.821305 0.954092 0.525827 -0.027964
C23   C     C_3   0.489733 0.313535 0.392170 0.852006
C24   C     C_R   0.758340 0.025034 0.524080 0.116975
C25   C     C_R   0.606875 0.049212 0.544005 -0.030709
C26   C     C_R   0.641052 0.169053 0.524692 0.001462
C27   C     C_R   0.550254 0.119426 0.544423 -0.045680
C28   C     C_3   0.840750 0.620174 0.631200 0.313713
C29   C     C_R   0.588189 0.241487 0.527058 0.013357
C30   C     C_R   0.684041 0.289825 0.508008 -0.215071
C31   C     C_R   0.824608 0.267306 0.482539 0.000224
C32   C     C_R   0.266307 0.447073 0.171344 0.663960
C33   C     C_R   0.193217 0.572147 0.177439 0.686007
C34   C     C_3   0.518542 0.234917 0.369913 -0.260707
C35   C     C_2   0.026668 0.526939 0.268750 0.621309
C36   C     C_3   0.992132 0.520457 0.322641 -0.098565
C37   C     C_1   0.279137 0.492593 0.335725 -0.020333
C38   C     C_2   0.312749 0.495057 0.288462 -0.174567
C39   C     C_2   0.179500 0.512920 0.252042 0.130169
C40   C     C_3   0.838912 0.637537 0.688265 -0.324034
C41   C     C_R   0.291991 0.506800 0.098425 -0.093768
C42   C     C_R   0.305174 0.444133 0.120620 -0.103542
C43   C     C_R   0.353362 0.379325 0.091415 -0.044443
C44   C     C_R   0.235360 0.571195 0.127109 -0.109127
C45   C     C_3   0.871029 0.721818 0.377975 0.321649
C46   C     C_2   0.147555 0.525202 0.355173 -0.412388
C47   C     C_2   0.645866 0.468284 0.636966 0.309477
C48   C     C_R   0.457944 0.440530 0.971231 0.037552
C49   C     C_R   0.347524 0.563560 0.972607 0.037605
C50   C     C_R   0.425287 0.500918 0.946810 0.042041
C51   C     C_R   0.554431 0.383496 0.946580 -0.037056
C52   C     C_3   0.978260 0.369162 0.365743 0.294904
C53   C     C_R   0.599397 0.381686 0.897410 -0.068242
C54   C     C_R   0.555033 0.437974 0.871167 -0.026785
C55   C     C_R   0.470986 0.498432 0.896040 -0.083657
C56   C     C_3   0.880064 0.796141 0.363507 -0.307165
C57   C     C_R   0.432636 0.556198 0.870202 -0.038484
C58   C     C_R   0.480051 0.552947 0.819991 0.611796
C59   C     C_R   0.594898 0.434755 0.820636 0.587440
C60   C     C_2   0.739662 0.455435 0.725199 -0.160788
C61   C     C_3   0.751363 0.427090 0.669978 -0.090091
C62   C     C_1   0.519433 0.507565 0.655842 -0.032934
C63   C     C_2   0.479198 0.511284 0.703612 -0.189753
C64   C     C_3   0.005056 0.340392 0.310429 0.534251
C65   C     C_2   0.598083 0.486863 0.742090 0.195752
C66   C     C_R   0.398042 0.439987 0.019862 -0.039591
C67   C     C_3   0.363943 0.697070 0.350823 0.280892
C68   C     C_R   0.335173 0.504938 0.047515 -0.067197
C69   C     C_R   0.315603 0.567942 0.024800 -0.038799
C70   C     C_R   0.395491 0.376536 0.041799 0.573038
C71   C     C_R   0.226083 0.633780 0.105414 -0.058257
C72   C     C_R   0.301655 0.618714 0.944603 -0.038709
C73   C     C_R   0.345350 0.615548 0.894895 -0.067953
C74   C     C_R   0.268025 0.632992 0.055833 0.578947
C75   C     C_3   0.327891 0.685893 0.593717 0.355970
C76   C     C_3   0.302791 0.765732 0.613571 0.589437
C77   C     C_3   0.405572 0.711256 0.299146 -0.292498
C78   C     C_R   0.990770 0.048820 0.475442 -0.045943
F1    F     F_    0.857104 0.324263 0.285104 -0.665574
F2    F     F_    0.900868 0.537713 0.236040 -0.658464
F3    F     F_    0.274155 0.697985 0.040860 -0.695112
F4    F     F_    0.655222 0.447161 0.586557 -0.719719
F5    F     F_    0.447000 0.795044 0.634929 -0.612877
F6    F     F_    0.405510 0.316882 0.435569 -0.718083
F7    F     F_    0.916087 0.147311 0.618501 -0.728267
F8    F     F_    0.163578 0.641088 0.482958 -0.730621
F9    F     F_    0.424167 0.872339 0.446753 -0.689888
F10   F     F_    0.735505 0.800728 0.585929 -0.637013
F11   F     F_    0.172805 0.071855 0.411582 -0.711822
F12   F     F_    0.419581 0.309995 0.014884 -0.693583
H1    H     H_    0.374606 0.358715 0.651763 0.068465
H2    H     H_    0.495645 0.227572 0.698605 0.138896
H3    H     H_    0.767466 0.722083 0.402939 0.092721
H4    H     H_    0.890018 0.837411 0.397916 0.086635
H5    H     H_    0.768367 0.807805 0.341201 0.158447
H6    H     H_    0.231207 0.706363 0.355406 -0.023387
H7    H     H_    0.346272 0.671054 0.269872 0.120701
H8    H     H_    0.014083 0.267356 0.591167 0.069523
H9    H     H_    0.062810 0.198149 0.424577 0.139962
H10   H     H_    0.649023 0.924681 0.577777 0.119972
H11   H     H_    0.832128 0.281552 0.626912 -0.050898
H12   H     H_    0.960563 0.656099 0.703976 0.132238
H13   H     H_    0.355865 0.329598 0.106674 0.170074
H14   H     H_    0.834654 0.440367 0.751020 0.143832
H15   H     H_    0.603131 0.340649 0.965138 0.171904
H16   H     H_    0.225379 0.663889 0.959314 0.174371
H17   H     H_    0.129485 0.188544 0.650062 0.071317
H18   H     H_    0.308165 0.659742 0.875558 0.140164
H19   H     H_    0.953111 0.207101 0.687973 0.045377
H20   H     H_    0.717811 0.604361 0.615999 0.002752
H21   H     H_    0.746177 0.680372 0.699708 0.175927
H22   H     H_    0.809196 0.589076 0.703916 0.036297
H23   H     H_    0.887597 0.414208 0.368929 0.018559
H24   H     H_    0.095032 0.388191 0.384406 -0.052493
H25   H     H_    0.066731 0.380302 0.292518 -0.054454
H26   H     H_    0.208364 0.662734 0.580847 -0.102787
H27   H     H_    0.301280 0.273921 0.709093 0.133899
H28   H     H_    0.261224 0.794676 0.582563 -0.132102
H29   H     H_    0.486633 0.320254 0.729128 0.138549
H30   H     H_    0.610043 0.338408 0.401523 -0.036224
H31   H     H_    0.588808 0.230855 0.335350 0.122484
H32   H     H_    0.986319 0.710435 0.398396 -0.055851
H33   H     H_    0.988279 0.798925 0.340834 0.124998
H34   H     H_    0.083348 0.290967 0.307077 0.063247
H35   H     H_    0.396392 0.640029 0.352714 0.052864
H36   H     H_    0.539267 0.706491 0.294892 0.157862
H37   H     H_    0.362824 0.766088 0.294017 0.141195
H38   H     H_    0.433712 0.133914 0.560484 0.098368
H39   H     H_    0.643341 0.345236 0.510343 0.155392
H40   H     H_    0.298481 0.993931 0.453848 0.180083
H41   H     H_    0.526341 0.014540 0.558772 0.064137
H42   H     H_    0.434943 0.482616 0.275636 0.155495
H43   H     H_    0.670932 0.335851 0.880093 0.140454
H44   H     H_    0.189787 0.684732 0.127369 0.162009
H45   H     H_    0.410238 0.679472 0.561781 0.053746
H46   H     H_    0.358212 0.529926 0.714683 0.155393
H47   H     H_    0.149364 0.551706 0.394113 0.150310
H48   H     H_    0.928342 0.574956 0.620790 0.056559
H49   H     H_    0.209176 0.773104 0.642450 0.016375
H50   H     H_    0.566119 0.309184 0.640876 -0.039752
H51   H     H_    0.588668 0.207149 0.397552 0.051428
H52   H     H_    0.400237 0.207888 0.360330 0.137674
N1    N     N_R   0.212936 0.510859 0.199373 -0.411312
N2    N     N_R   0.558422 0.492045 0.795093 -0.416282
O1    O     O_2   0.106080 0.324280 0.466820 -0.392996
O2    O     O_2   0.660688 0.561939 0.331955 -0.467348
O3    O     O_3   0.849116 0.670592 0.334270 -0.580317
O4    O     O_3   0.859130 0.413620 0.470620 -0.469439
O5    O     O_3   0.459240 0.537930 0.559910 -0.404255
O6    O     O_2   0.583120 0.462390 0.379940 -0.476717
O7    O     O_3   0.398619 0.347481 0.357011 -0.666298
O8    O     O_2   0.563755 0.755554 0.479758 -0.435364
O9    O     O_3   0.453165 0.743766 0.387363 -0.550952
O10   O     O_2   0.278594 0.392619 0.190491 -0.560106
O11   O     O_2   0.660390 0.379962 0.799215 -0.613315
O12   O     O_3   0.395988 0.652471 0.632587 -0.627247
O13   O     O_2   0.139593 0.627616 0.201766 -0.564459
O14   O     O_2   0.453181 0.604815 0.798784 -0.579105
O15   O     O_3   0.376230 0.370290 0.556910 -0.413440
O16   O     O_2   0.249163 0.243349 0.519442 -0.467371
O17   O     O_3   0.919771 0.313222 0.387265 -0.653397
O18   O     O_3   0.357152 0.255253 0.612184 -0.624291
O19   O     O_2   0.227190 0.537650 0.620070 -0.478067
O20   O     O_3   0.971110 0.406970 0.583250 -0.433214
O21   O     O_2   0.080847 0.468343 0.675012 -0.504079
O22   O     O_3   0.044509 0.328871 0.661961 -0.640435
O23   O     O_2   0.704230 0.675760 0.533200 -0.424066
O24   O     O_3   0.951180 0.586390 0.529420 -0.428856
O25   O     O_3   0.434080 0.629720 0.443130 -0.439453
O26   O     O_3   0.886693 0.681595 0.613048 -0.584943
O27   O     O_3   0.351080 0.462080 0.440130 -0.393641
O28   O     O_3   0.839200 0.593040 0.416790 -0.489146
P1    P     P_3+3 0.929380 0.335110 0.452880 1.021109
P2    P     P_3+3 0.398530 0.559060 0.613740 1.074802
P3    P     P_3+3 0.963000 0.410423 0.648191 0.985102
P4    P     P_3+3 0.880940 0.664900 0.547160 1.138231
P5    P     P_3+3 0.834300 0.585232 0.351230 1.043522
P6    P     P_3+3 0.392877 0.277070 0.553231 1.032537
P7    P     P_3+3 0.399423 0.440896 0.376691 1.028389
P8    P     P_3+3 0.417298 0.722983 0.446669 1.093312

loop_
_geom_bond_atom_site_label_1
_geom_bond_atom_site_label_2
_ccdc_geom_bond_type
Ba2   O4    S    
C53   C54   A    
C12   H50   S    
Ba1   P2    S    
C47   C61   S    
C25   C27   A    
Ba1   O24   S    
O25   P8    S    
C17   C18   A    
C16   H17   S    
C77   H36   S    
O17   P1    S    
O9    P8    S    
C75   C76   S    
O19   P2    D    
C5    C9    A    
Ba1   O27   S    
C24   C25   A    
C35   C36   S    
C49   C69   A    
C60   C65   D    
O24   P4    S    
C15   C24   A    
C47   F4    S    
C77   H7    S    
C26   C27   A    
C34   H51   S    
C22   C24   A    
C2    C78   A    
Ba2   O27   S    
C69   C74   A    
C70   F12   S    
C32   N1    Am   
O1    P1    D    
C55   C57   A    
C21   H10   S    
O22   P3    S    
C77   H37   S    
C9    C22   A    
O3    P5    S    
C54   C55   A    
Ba1   Ba2   S    
C33   N1    Am   
C56   H4    S    
C40   H22   S    
C3    H40   S    
C10   P8    S    
C45   O3    S    
C6    C7    A    
C63   C65   S    
C64   H25   S    
C52   H24   S    
C48   C50   A    
C21   C22   A    
C49   C72   A    
C68   C69   A    
O5    P2    S    
C52   O17   S    
C62   P2    S    
C23   H30   S    
C12   H1    S    
O16   P6    D    
O18   P6    S    
C30   H39   S    
C75   O12   S    
C2    F11   S    
C19   H9    S    
C67   H6    S    
O4    P1    S    
Ba1   O15   S    
C57   C58   A    
C47   C62   D    
C43   C70   A    
C12   O18   S    
C56   H5    S    
C58   N2    Am   
C74   F3    S    
C41   C44   A    
C43   H13   S    
C51   C53   A    
Ba2   O6    S    
C4    C16   S    
C4    O22   S    
C48   C51   A    
C28   H48   S    
C72   C73   A    
C23   O7    S    
C49   C50   A    
C25   H41   S    
C34   H31   S    
C32   C42   A    
C16   H19   S    
C75   H26   S    
C8    C9    A    
C76   H49   S    
C37   C38   D    
C3    C5    A    
Ba2   O23   S    
C38   H42   S    
C15   C78   A    
C64   H34   S    
C28   H20   S    
C4    H8    S    
C76   H28   S    
C59   N2    Am   
C60   C61   S    
C59   O11   D    
C51   H15   S    
C40   H21   S    
C29   C30   A    
C71   H44   S    
Ba1   O19   S    
C66   C70   A    
C52   H23   S    
C65   N2    S    
C20   F10   S    
Ba1   O4    S    
O20   P3    S    
C67   O9    S    
C4    H11   S    
C10   C11   A    
O15   P6    S    
C17   C26   A    
C28   O26   S    
C37   P7    S    
C1    C12   S    
C1    H27   S    
Ba2   O24   S    
C52   C64   S    
C63   H46   S    
C76   F5    S    
O12   P2    S    
C38   C39   S    
O21   P3    D    
O7    P7    S    
C41   C68   A    
C11   C13   A    
C41   C42   A    
C71   C74   A    
C35   F2    S    
C67   C77   S    
C18   C31   A    
C57   C73   A    
O23   P4    D    
C5    C78   A    
C42   C43   A    
C7    C8    A    
O26   P4    S    
Ba2   O5    S    
Ba1   P1    S    
C73   H18   S    
C14   C20   A    
C36   P5    S    
C46   H47   S    
C54   C59   A    
C36   C46   S    
C26   C29   A    
C58   O14   D    
C75   H45   S    
C40   H12   S    
C3    C6    A    
C60   H14   S    
C32   O10   D    
O2    P5    D    
Ba2   O25   S    
C16   F7    S    
C61   P3    S    
C29   P6    S    
C62   C63   D    
C34   H52   S    
C8    C14   A    
C30   C31   A    
C64   F1    S    
C2    C19   A    
C45   H32   S    
Ba1   O20   S    
C53   H43   S    
O8    P8    D    
C11   F8    S    
C23   F6    S    
C15   C17   A    
Ba1   O5    S    
C1    H2    S    
O27   P7    S    
C35   C39   D    
C31   P1    S    
C7    C10   A    
C33   O13   D    
Ba1   O1    S    
C50   C55   A    
C23   C34   S    
C72   H16   S    
C27   H38   S    
C1    H29   S    
C39   N1    S    
C18   C19   A    
C67   H35   S    
C56   H33   S    
C66   C68   A    
C13   P4    S    
C45   H3    S    
C20   C21   A    
C28   C40   S    
C6    F9    S    
Ba2   P4    S    
O6    P7    D    
C33   C44   A    
C48   C66   A    
O28   P5    S    
C44   C71   A    
Ba2   O28   S    
C13   C14   A    
C37   C46   D    
C45   C56   S    
