data_mof_unit_35746.cif
_audit_creation_date              2012-12-11T14:30:53-0500
_audit_creation_method            fapswitch 2.2
_symmetry_space_group_name_H-M    P1
_symmetry_Int_Tables_number       1
_space_group_crystal_system       triclinic
_cell_length_a                    17.437349
_cell_length_b                    24.297253
_cell_length_c                    14.854197
_cell_angle_alpha                 89.281435
_cell_angle_beta                  124.914506
_cell_angle_gamma                 90.153734
_cell_volume                      5160.16622815

loop_
_atom_site_label
_atom_site_type_symbol
_atom_type_description
_atom_site_fract_x
_atom_site_fract_y
_atom_site_fract_z
_atom_type_partial_charge
C1    C     C_R   0.849316 0.651967 0.903585 -0.147413
C2    C     C_R   0.924848 0.503266 0.628029 0.131086
C3    C     C_3   0.945493 0.888084 0.096005 -0.805040
C4    C     C_3   0.686068 0.324800 0.972959 -0.198878
C5    C     C_3   0.124195 0.228100 0.938484 -0.222526
C6    C     C_3   0.186069 0.824800 0.972963 -0.198875
C7    C     C_3   0.624194 0.728100 0.938484 -0.222526
C8    C     C_3   0.780240 0.465142 0.224570 -0.321391
C9    C     C_3   0.689116 0.493951 0.189157 -0.923003
C10   C     C_3   0.826170 0.409955 0.447752 -0.403682
C11   C     C_3   0.745504 0.408595 0.461002 -0.811015
C12   C     C_3   0.280240 0.965142 0.224570 -0.321391
C13   C     C_R   0.470870 0.001948 0.296623 0.140464
C14   C     C_3   0.189116 0.993951 0.189156 -0.923002
C15   C     C_3   0.326170 0.909955 0.447752 -0.403682
C16   C     C_3   0.245505 0.908595 0.461003 -0.811014
C17   C     C_3   0.082890 0.334475 0.245870 -0.287839
C18   C     C_3   0.946158 0.322599 0.767410 -0.355547
C19   C     C_3   0.582889 0.834475 0.245870 -0.287828
C20   C     C_3   0.446157 0.822599 0.767411 -0.355546
C21   C     C_3   0.385121 0.442991 0.590979 -0.236870
C22   C     C_3   0.649767 0.560362 0.419108 -0.257942
C23   C     C_3   0.885121 0.942991 0.590979 -0.236866
C24   C     C_R   0.424848 0.003266 0.628029 0.131087
C25   C     C_3   0.149767 0.060362 0.419108 -0.257939
C26   C     C_R   0.691943 0.500691 0.646152 0.142017
C27   C     C_R   0.315701 0.500486 0.340581 0.182635
C28   C     C_R   0.191943 0.000691 0.646152 0.142017
C29   C     C_R   0.815702 0.000486 0.340581 0.182636
C30   C     C_3   0.536816 0.451134 0.486267 0.415492
C31   C     C_3   0.482775 0.490699 0.387033 0.354698
C32   C     C_3   0.036816 0.951134 0.486267 0.415493
C33   C     C_R   0.190513 0.624545 0.088882 -0.113519
C34   C     C_3   0.982775 0.990699 0.387033 0.354698
C35   C     C_3   0.468718 0.462316 0.517724 0.550255
C36   C     C_3   0.542155 0.539213 0.458361 0.556828
C37   C     C_3   0.968718 0.962316 0.517724 0.550255
C38   C     C_3   0.042155 0.039213 0.458361 0.556827
C39   C     C_3   0.414153 0.500976 0.418438 -0.245704
C40   C     C_3   0.595897 0.500094 0.557149 -0.203384
C41   C     C_3   0.914153 0.000976 0.418438 -0.245704
C42   C     C_3   0.095897 0.000094 0.557149 -0.203385
C43   C     C_3   0.471971 0.551024 0.487933 -0.314640
C44   C     C_R   0.349316 0.151967 0.903585 -0.147412
C45   C     C_3   0.527049 0.511437 0.588789 -0.341278
C46   C     C_3   0.971971 0.051024 0.487933 -0.314638
C47   C     C_3   0.027049 0.011437 0.588789 -0.341278
C48   C     C_2   0.333303 0.681054 0.064045 -0.031997
C49   C     C_2   0.885484 0.774515 0.066937 -0.036668
C50   C     C_2   0.833303 0.181054 0.064044 -0.031991
C51   C     C_2   0.385484 0.274516 0.066937 -0.036667
C52   C     C_2   0.256039 0.658172 0.980697 -0.232264
C53   C     C_2   0.862390 0.743813 0.981344 -0.189145
C54   C     C_2   0.756039 0.158171 0.980697 -0.232266
C55   C     C_R   0.690513 0.124544 0.088882 -0.113518
C56   C     C_2   0.362390 0.243813 0.981344 -0.189146
C57   C     C_2   0.868205 0.228976 0.037504 0.113488
C58   C     C_2   0.318173 0.317506 0.046903 0.032366
C59   C     C_2   0.368205 0.728976 0.037505 0.113497
C60   C     C_2   0.818172 0.817505 0.046903 0.032366
C61   C     C_R   0.933530 0.354152 0.094582 0.589621
C62   C     C_R   0.080940 0.360916 0.908744 0.610487
C63   C     C_R   0.433529 0.854152 0.094582 0.589616
C64   C     C_R   0.580940 0.860915 0.908744 0.610486
C65   C     C_2   0.818956 0.276592 0.013381 0.541779
C66   C     C_R   0.859000 0.328143 0.005738 -0.199735
C67   C     C_2   0.230818 0.300201 0.011104 0.552449
C68   C     C_2   0.318955 0.776592 0.013381 0.541779
C69   C     C_2   0.730817 0.800200 0.011104 0.552450
C70   C     C_2   0.858779 0.479657 0.341947 0.189796
C71   C     C_2   0.850515 0.468136 0.434388 0.250538
C72   C     C_2   0.358779 0.979657 0.341947 0.189796
C73   C     C_2   0.350515 0.968136 0.434388 0.250538
C74   C     C_2   0.940936 0.501130 0.369086 -0.326647
C75   C     C_2   0.879853 0.508701 0.509135 -0.312565
C76   C     C_2   0.440937 0.001130 0.369086 -0.326646
C77   C     C_R   0.163938 0.340445 0.001479 -0.198572
C78   C     C_2   0.379853 0.008701 0.509135 -0.312566
C79   C     C_R   0.994535 0.547793 0.262504 -0.117837
C80   C     C_R   0.946075 0.547724 0.694783 -0.172478
C81   C     C_R   0.494535 0.047793 0.262504 -0.117837
C82   C     C_R   0.446075 0.047724 0.694783 -0.172477
C83   C     C_R   0.741736 0.454945 0.704621 -0.135791
C84   C     C_R   0.263873 0.454683 0.288309 -0.107892
C85   C     C_R   0.241736 0.954945 0.704621 -0.135791
C86   C     C_R   0.763873 0.954683 0.288309 -0.107893
C87   C     C_R   0.993851 0.455884 0.263268 -0.186799
C88   C     C_R   0.358999 0.828144 0.005737 -0.199737
C89   C     C_R   0.945164 0.457177 0.693338 -0.091114
C90   C     C_R   0.493851 0.955884 0.263269 -0.186799
C91   C     C_R   0.445164 0.957177 0.693338 -0.091117
C92   C     C_R   0.739502 0.547059 0.702431 -0.138370
C93   C     C_R   0.262701 0.546619 0.292995 -0.190944
C94   C     C_R   0.239502 0.047059 0.702431 -0.138370
C95   C     C_R   0.762701 0.046619 0.292995 -0.190945
C96   C     C_R   0.837846 0.356044 0.912148 -0.294013
C97   C     C_R   0.174349 0.363881 0.091405 -0.284782
C98   C     C_R   0.337845 0.856044 0.912148 -0.294011
C99   C     C_R   0.663937 0.840444 0.001479 -0.198571
C100  C     C_R   0.674348 0.863880 0.091405 -0.284783
C101  C     C_R   0.942357 0.653791 0.085991 -0.115202
C102  C     C_R   0.096651 0.623496 0.905548 -0.135259
C103  C     C_R   0.442357 0.153791 0.085991 -0.115201
C104  C     C_R   0.596651 0.123496 0.905548 -0.135260
C105  C     C_R   0.881497 0.685011 0.992188 0.177605
C106  C     C_R   0.185441 0.635579 0.993318 0.163407
C107  C     C_R   0.381497 0.185011 0.992188 0.177604
C108  C     C_R   0.685441 0.135579 0.993318 0.163406
C109  C     C_3   0.507276 0.361917 0.422952 -0.187185
C110  C     C_R   0.970870 0.501948 0.296622 0.140464
C111  C     C_3   0.420456 0.523483 0.210116 -0.171639
C112  C     C_3   0.007276 0.861917 0.422953 -0.187186
C113  C     C_3   0.920456 0.023483 0.210116 -0.171637
C114  C     C_3   0.949075 0.222620 0.026158 -0.416425
C115  C     C_3   0.995799 0.165756 0.061231 -0.879882
C116  C     C_3   0.345958 0.377984 0.063256 -0.409223
C117  C     C_3   0.445495 0.388084 0.096005 -0.805039
C118  C     C_3   0.449074 0.722620 0.026157 -0.416436
C119  C     C_3   0.495811 0.665760 0.061252 -0.879879
C120  C     C_3   0.845957 0.877983 0.063256 -0.409224
H1    H     H_    0.811882 0.665456 0.818740 0.096514
H2    H     H_    0.934968 0.760117 0.150737 0.106464
H3    H     H_    0.199143 0.039253 0.196951 0.262246
H4    H     H_    0.134062 0.984370 0.102108 0.249748
H5    H     H_    0.296942 0.977731 0.165537 0.199420
H6    H     H_    0.269268 0.920014 0.216501 0.175938
H7    H     H_    0.258525 0.936246 0.527039 0.258114
H8    H     H_    0.179377 0.921509 0.383160 0.265885
H9    H     H_    0.236771 0.866018 0.481688 0.252296
H10   H     H_    0.304318 0.885173 0.374703 0.191853
H11   H     H_    0.388828 0.887909 0.515062 0.186370
H12   H     H_    0.109460 0.376958 0.268982 0.152898
H13   H     H_    0.853868 0.176299 0.147853 0.125316
H14   H     H_    0.100286 0.317336 0.190870 0.140697
H15   H     H_    0.120846 0.309212 0.322364 0.183969
H16   H     H_    0.901663 0.356194 0.764359 0.153019
H17   H     H_    0.949499 0.288550 0.820012 0.134024
H18   H     H_    0.911047 0.306638 0.682969 0.183651
H19   H     H_    0.609460 0.876958 0.268980 0.152894
H20   H     H_    0.600285 0.817334 0.190871 0.140699
H21   H     H_    0.620845 0.809212 0.322365 0.183967
H22   H     H_    0.401662 0.856195 0.764358 0.153020
H23   H     H_    0.449498 0.788550 0.820015 0.134023
H24   H     H_    0.434969 0.260118 0.150737 0.106464
H25   H     H_    0.411046 0.806636 0.682971 0.183650
H26   H     H_    0.334697 0.476216 0.538252 0.140706
H27   H     H_    0.437987 0.458529 0.674616 0.139538
H28   H     H_    0.345092 0.410150 0.599148 0.164341
H29   H     H_    0.631299 0.520077 0.377000 0.157758
H30   H     H_    0.716838 0.556657 0.501209 0.157804
H31   H     H_    0.660781 0.589759 0.369821 0.168392
H32   H     H_    0.834696 0.976216 0.538251 0.140705
H33   H     H_    0.937987 0.958530 0.674616 0.139537
H34   H     H_    0.845092 0.910151 0.599148 0.164340
H35   H     H_    0.235410 0.666184 0.897308 0.131300
H36   H     H_    0.131299 0.020077 0.376999 0.157757
H37   H     H_    0.216838 0.056656 0.501209 0.157803
H38   H     H_    0.160782 0.089759 0.369821 0.168392
H39   H     H_    0.810819 0.759564 0.898809 0.130593
H40   H     H_    0.735411 0.166183 0.897308 0.131301
H41   H     H_    0.310819 0.259564 0.898809 0.130593
H42   H     H_    0.994579 0.512668 0.453069 0.139728
H43   H     H_    0.884396 0.550079 0.483558 0.128023
H44   H     H_    0.494579 0.012668 0.453069 0.139728
H45   H     H_    0.250380 0.630331 0.171685 0.091102
H46   H     H_    0.384396 0.050079 0.483558 0.128023
H47   H     H_    0.988784 0.590464 0.277748 0.102525
H48   H     H_    0.925986 0.589905 0.666701 0.099956
H49   H     H_    0.488784 0.090464 0.277748 0.102525
H50   H     H_    0.425986 0.089905 0.666701 0.099955
H51   H     H_    0.726186 0.412299 0.681376 0.150912
H52   H     H_    0.283887 0.412247 0.312841 0.104844
H53   H     H_    0.226186 0.912299 0.681376 0.150912
H54   H     H_    0.783886 0.912247 0.312841 0.104844
H55   H     H_    0.987825 0.414088 0.282798 0.177628
H56   H     H_    0.311882 0.165456 0.818740 0.096514
H57   H     H_    0.925587 0.416057 0.666165 0.153069
H58   H     H_    0.487826 0.914088 0.282798 0.177628
H59   H     H_    0.425587 0.916056 0.666165 0.153070
H60   H     H_    0.721020 0.589592 0.676488 0.129674
H61   H     H_    0.280352 0.588529 0.321030 0.104000
H62   H     H_    0.221020 0.089592 0.676488 0.129674
H63   H     H_    0.780352 0.088528 0.321030 0.104000
H64   H     H_    0.790248 0.342974 0.828203 0.139098
H65   H     H_    0.227309 0.353703 0.176220 0.135342
H66   H     H_    0.290248 0.842974 0.828203 0.139098
H67   H     H_    0.750380 0.130330 0.171685 0.091102
H68   H     H_    0.727309 0.853702 0.176220 0.135342
H69   H     H_    0.989824 0.669369 0.168042 0.081992
H70   H     H_    0.069707 0.627239 0.819721 0.100824
H71   H     H_    0.489825 0.169369 0.168042 0.081992
H72   H     H_    0.569707 0.127238 0.819721 0.100824
H73   H     H_    0.451975 0.378536 0.340265 0.159792
H74   H     H_    0.475834 0.346221 0.465364 0.174309
H75   H     H_    0.539842 0.326352 0.410503 0.143062
H76   H     H_    0.476975 0.543912 0.209219 0.157901
H77   H     H_    0.385864 0.554162 0.230937 0.137079
H78   H     H_    0.443811 0.591990 0.487601 0.166845
H79   H     H_    0.367162 0.509484 0.125544 0.150089
H80   H     H_    0.951975 0.878536 0.340265 0.159792
H81   H     H_    0.975834 0.846221 0.465364 0.174309
H82   H     H_    0.039842 0.826352 0.410503 0.143062
H83   H     H_    0.976974 0.043912 0.209219 0.157900
H84   H     H_    0.885865 0.054162 0.230937 0.137079
H85   H     H_    0.867161 0.009484 0.125544 0.150089
H86   H     H_    0.022044 0.156609 0.147888 0.266844
H87   H     H_    0.945550 0.133466 0.007265 0.254382
H88   H     H_    0.056091 0.164736 0.054811 0.248941
H89   H     H_    0.547774 0.520488 0.673032 0.165419
H90   H     H_    0.922619 0.230318 0.939050 0.171118
H91   H     H_    0.003369 0.253395 0.076636 0.214161
H92   H     H_    0.497266 0.368233 0.176752 0.257725
H93   H     H_    0.454130 0.371685 0.032815 0.242282
H94   H     H_    0.459537 0.432957 0.102980 0.258852
H95   H     H_    0.296663 0.401059 0.985587 0.191431
H96   H     H_    0.340509 0.395060 0.128361 0.229146
H97   H     H_    0.522060 0.656623 0.147913 0.266848
H98   H     H_    0.445570 0.633464 0.007302 0.254383
H99   H     H_    0.556103 0.664740 0.054831 0.248943
H100  H     H_    0.943811 0.091990 0.487601 0.166845
H101  H     H_    0.422614 0.730309 0.939045 0.171121
H102  H     H_    0.503361 0.753401 0.076618 0.214156
H103  H     H_    0.997265 0.868233 0.176752 0.257725
H104  H     H_    0.954129 0.871684 0.032814 0.242281
H105  H     H_    0.959536 0.932957 0.102979 0.258852
H106  H     H_    0.796662 0.901058 0.985587 0.191431
H107  H     H_    0.840509 0.895059 0.128361 0.229146
H108  H     H_    0.663767 0.332098 0.887048 0.140870
H109  H     H_    0.723891 0.360982 0.025101 0.138640
H110  H     H_    0.621839 0.319451 0.970803 0.162052
H111  H     H_    0.047774 0.020488 0.673032 0.165419
H112  H     H_    0.099273 0.241522 0.854053 0.176621
H113  H     H_    0.078841 0.243594 0.962749 0.146897
H114  H     H_    0.120643 0.182520 0.938316 0.160082
H115  H     H_    0.163769 0.832101 0.887052 0.140871
H116  H     H_    0.223895 0.860981 0.025109 0.138639
H117  H     H_    0.121841 0.819452 0.970807 0.162052
H118  H     H_    0.599272 0.741521 0.854053 0.176621
H119  H     H_    0.578840 0.743594 0.962749 0.146897
H120  H     H_    0.620642 0.682519 0.938316 0.160082
H121  H     H_    0.664892 0.479637 0.240091 0.262935
H122  H     H_    0.353869 0.676298 0.147854 0.125317
H123  H     H_    0.699143 0.539253 0.196951 0.262246
H124  H     H_    0.634062 0.484371 0.102108 0.249748
H125  H     H_    0.796942 0.477731 0.165537 0.199420
H126  H     H_    0.769267 0.420014 0.216500 0.175939
H127  H     H_    0.758525 0.436246 0.527039 0.258115
H128  H     H_    0.679377 0.421509 0.383159 0.265885
H129  H     H_    0.736771 0.366018 0.481688 0.252296
H130  H     H_    0.804318 0.385173 0.374703 0.191853
H131  H     H_    0.888828 0.387909 0.515062 0.186370
H132  H     H_    0.164892 0.979636 0.240091 0.262934
N1    N     N_R   0.892320 0.603520 0.941090 -0.043082
N2    N     N_R   0.973240 0.529450 0.794410 -0.041788
N3    N     N_R   0.526760 0.029450 0.205590 -0.043029
N4    N     N_R   0.473240 0.029450 0.794410 -0.041788
N5    N     N_R   0.819350 0.473090 0.793940 -0.045771
N6    N     N_R   0.180650 0.473090 0.206060 -0.046469
N7    N     N_R   0.319350 0.973090 0.793940 -0.045771
N8    N     N_R   0.680650 0.973090 0.206060 -0.046469
N9    N     N_R   0.027860 0.473090 0.206590 -0.049722
N10   N     N_R   0.972140 0.473090 0.793410 -0.051850
N11   N     N_R   0.527860 0.973090 0.206590 -0.049722
N12   N     N_R   0.107680 0.603520 0.058910 -0.045880
N13   N     N_R   0.472140 0.973090 0.793410 -0.051850
N14   N     N_R   0.818250 0.529450 0.792940 -0.044006
N15   N     N_R   0.181750 0.529450 0.207060 -0.040537
N16   N     N_R   0.318250 0.029450 0.792940 -0.044006
N17   N     N_R   0.681750 0.029450 0.207060 -0.040537
N18   N     N_R   0.896320 0.399020 0.944720 -0.055860
N19   N     N_R   0.103680 0.399020 0.055280 -0.063431
N20   N     N_R   0.396320 0.899020 0.944720 -0.055860
N21   N     N_R   0.603680 0.899020 0.055280 -0.063431
N22   N     N_R   0.949790 0.603520 0.054810 -0.046598
N23   N     N_R   0.392320 0.103520 0.941090 -0.043082
N24   N     N_R   0.050210 0.603520 0.945190 -0.044629
N25   N     N_R   0.449790 0.103520 0.054810 -0.046598
N26   N     N_R   0.550210 0.103520 0.945190 -0.044629
N27   N     N_R   0.607680 0.103520 0.058910 -0.045880
N28   N     N_R   0.953790 0.399020 0.058440 -0.093625
N29   N     N_R   0.046210 0.399020 0.941560 -0.093875
N30   N     N_R   0.453790 0.899020 0.058440 -0.093625
N31   N     N_R   0.546210 0.899020 0.941560 -0.093874
N32   N     N_R   0.026760 0.529450 0.205590 -0.043029
Ni1   Ni    Ni4+2 0.934100 0.565890 0.869590 0.206123
Ni2   Ni    Ni4+2 0.065900 0.565890 0.130410 0.207430
Ni3   Ni    Ni4+2 0.434100 0.065890 0.869590 0.206123
Ni4   Ni    Ni4+2 0.565900 0.065890 0.130410 0.207430
Ni5   Ni    Ni4+2 0.068420 0.436630 0.132700 0.193025
Ni6   Ni    Ni4+2 0.931580 0.436630 0.867300 0.193491
Ni7   Ni    Ni4+2 0.568420 0.936630 0.132700 0.193024
Ni8   Ni    Ni4+2 0.431580 0.936630 0.867300 0.193491
O1    O     O_3   0.577610 0.400628 0.488321 -0.625008
O2    O     O_3   0.036394 0.341002 0.803514 -0.642023
O3    O     O_3   0.486339 0.831356 0.199693 -0.642528
O4    O     O_3   0.536393 0.841001 0.803514 -0.642024
O5    O     O_3   0.428959 0.420102 0.544575 -0.629063
O6    O     O_3   0.579128 0.581572 0.427994 -0.615766
O7    O     O_3   0.928958 0.920102 0.544575 -0.629063
O8    O     O_3   0.079128 0.081572 0.427994 -0.615766
O9    O     O_3   0.456656 0.476957 0.280842 -0.627787
O10   O     O_3   0.077610 0.900629 0.488321 -0.625008
O11   O     O_3   0.956656 0.976957 0.280842 -0.627787
O12   O     O_3   0.740904 0.276541 0.018137 -0.616882
O13   O     O_3   0.217459 0.243668 0.015239 -0.618823
O14   O     O_3   0.240902 0.776541 0.018135 -0.616883
O15   O     O_3   0.717458 0.743667 0.015239 -0.618824
O16   O     O_3   0.986340 0.331357 0.199694 -0.642529

loop_
_geom_bond_atom_site_label_1
_geom_bond_atom_site_label_2
_ccdc_geom_bond_type
C22   H30   S    
C55   N27   A    
C3    H104  S    
C62   C77   A    
C112  H82   S    
C116  H96   S    
N23   Ni3   S    
C114  C115  S    
C6    O14   S    
C97   H65   S    
C11   H129  S    
C49   C60   S    
C80   N2    A    
C100  H68   S    
C101  H69   S    
C13   C90   A    
C12   H6    S    
C26   C92   A    
C104  H72   S    
C28   C94   A    
N8    N17   A    
C92   H60   S    
C93   H61   S    
N15   Ni2   S    
C83   H51   S    
C70   C74   D    
C112  O10   S    
C81   H49   S    
C111  H76   S    
C92   N14   A    
C10   C71   S    
C19   H21   S    
N24   Ni1   S    
C65   O12   S    
N20   N30   A    
N25   Ni4   S    
C53   H39   S    
N26   Ni3   S    
C46   H100  S    
C34   O11   S    
C111  O9    S    
N3    Ni4   S    
N4    Ni3   S    
C86   H54   S    
C32   C34   S    
C18   H17   S    
N9    N32   A    
C63   O3    S    
C64   O4    S    
C117  H93   S    
C16   H9    S    
C120  H107  S    
N6    Ni5   S    
N7    Ni8   S    
C15   C73   S    
N3    N11   A    
C8    H125  S    
C23   H33   S    
C61   N28   A    
N19   Ni5   S    
C27   C93   A    
C35   C45   S    
C6    H116  S    
C50   C57   S    
N11   Ni7   S    
C117  H92   S    
C33   C106  A    
C72   C73   S    
C74   C110  S    
N31   Ni8   S    
N28   Ni5   S    
N12   Ni2   S    
C21   H26   S    
N14   Ni1   S    
C95   H63   S    
C15   H10   S    
C109  O1    S    
C49   C53   D    
C25   O8    S    
C62   O2    S    
C113  H83   S    
C58   C67   D    
C48   C52   D    
C19   H19   S    
C28   C85   A    
C31   C36   S    
C103  C107  A    
N21   Ni7   S    
C79   H47   S    
C91   N13   A    
C112  H80   S    
C2    C75   S    
C30   O1    S    
C1    C105  A    
C37   O7    S    
C38   O8    S    
C118  H102  S    
C67   C77   S    
C62   N29   A    
C9    H121  S    
C87   C110  A    
C33   N12   A    
N12   N24   A    
C19   O3    S    
C26   C83   A    
C21   O5    S    
C68   O14   S    
C27   C84   A    
N1    N22   A    
C75   H43   S    
N7    N16   A    
C64   C99   A    
C17   H15   S    
C18   H16   S    
N22   Ni2   S    
C37   C47   S    
C113  O11   S    
C7    O15   S    
C115  H88   S    
C25   H36   S    
C58   C116  S    
C32   O10   S    
C14   H4    S    
C21   H28   S    
C48   H122  S    
C31   O9    S    
C74   H42   S    
C45   H89   S    
C10   H130  S    
C113  H85   S    
C114  H91   S    
C36   O6    S    
C32   C37   S    
C85   N7    A    
C43   C45   S    
C86   N8    A    
C59   C118  S    
C5    H114  S    
C101  N22   A    
C103  H71   S    
C9    H123  S    
C120  H106  S    
C48   C59   S    
C67   O13   S    
C44   C107  A    
C22   H31   S    
C3    H103  S    
C29   C41   S    
C33   H45   S    
C51   C56   D    
C7    H119  S    
C84   H52   S    
C87   H55   S    
C8    C70   S    
C54   C108  S    
C55   C108  A    
C4    H109  S    
N32   Ni2   S    
C60   C69   D    
C17   O16   S    
C80   H48   S    
C109  H75   S    
C37   C41   S    
C12   C72   S    
C16   H7    S    
C1    H1    S    
C38   C46   S    
C10   C11   S    
C53   C105  S    
C15   H11   S    
C7    H120  S    
N2    N10   A    
C115  H86   S    
C25   H38   S    
N26   N27   A    
C88   C98   A    
C63   N30   A    
C23   H32   S    
C90   H58   S    
C63   C88   A    
N17   Ni4   S    
C52   H35   S    
C50   C54   D    
C11   H128  S    
C30   C31   S    
N19   N29   A    
C14   H132  S    
C13   C81   A    
C4    O12   S    
N18   N28   A    
C18   H18   S    
N9    Ni5   S    
C119  H98   S    
C70   C71   S    
C87   N9    A    
N29   Ni6   S    
C18   O2    S    
C22   H29   S    
C8    H126  S    
C17   H12   S    
C20   H23   S    
C82   N4    A    
C22   O6    S    
C34   C41   S    
C112  H81   S    
C116  H95   S    
C1    N1    A    
C40   C45   S    
C6    H117  S    
C78   H46   S    
C44   H56   S    
C97   N19   A    
C12   H5    S    
C98   N20   A    
C79   N32   A    
C56   H41   S    
C2    C89   A    
C35   C39   S    
C7    H118  S    
N4    N13   A    
C5    H112  S    
C51   C58   S    
C69   C99   S    
C24   C78   S    
N16   Ni3   S    
C20   O4    S    
C104  C108  A    
C23   O7    S    
C66   C96   A    
N2    Ni1   S    
C46   C47   S    
C81   N3    A    
C79   C110  A    
N5    N14   A    
C57   C65   D    
C50   H13   S    
N18   Ni6   S    
C93   N15   A    
C94   N16   A    
C98   H66   S    
C5    O13   S    
C102  H70   S    
C83   N5    A    
C43   H78   S    
C4    H108  S    
C117  H94   S    
C60   C120  S    
C54   H40   S    
N30   Ni7   S    
C44   N23   A    
C23   H34   S    
C17   H14   S    
C32   C42   S    
C20   H25   S    
C36   C43   S    
C89   N10   A    
C94   H62   S    
N20   Ni8   S    
C6    H115  S    
C82   H50   S    
C115  H87   S    
C72   C76   D    
C51   H24   S    
C30   C35   S    
C21   H27   S    
C84   N6    A    
N23   N25   A    
C38   C42   S    
N1    Ni1   S    
C47   H111  S    
C96   N18   A    
C15   C16   S    
C116  C117  S    
C10   H131  S    
C113  H84   S    
C24   C82   A    
C118  C119  S    
C111  H79   S    
C61   C66   A    
C27   C39   S    
C19   H20   S    
C91   H59   S    
N13   Ni8   S    
C85   H53   S    
C41   C46   S    
C89   H57   S    
C3    H105  S    
N8    Ni7   S    
C52   C106  S    
C5    H113  S    
C118  H101  S    
C119  H99   S    
C96   H64   S    
N6    N15   A    
N5    Ni6   S    
C95   N17   A    
C101  C105  A    
C35   O5    S    
N21   N31   A    
C20   H22   S    
C36   C40   S    
C104  N26   A    
C29   C95   A    
C8    C9    S    
C39   C43   S    
N10   Ni6   S    
C4    H110  S    
C56   C107  S    
C59   C68   D    
C99   C100  A    
C13   C76   S    
C73   C78   D    
C30   C40   S    
C109  H74   S    
C69   O15   S    
C109  H73   S    
C90   N11   A    
C16   H8    S    
C29   C86   A    
C12   C14   S    
C55   H67   S    
C25   H37   S    
C68   C88   S    
C76   H44   S    
C103  N25   A    
C24   C91   A    
C61   O16   S    
C14   H3    S    
C34   C38   S    
C57   C114  S    
C100  N21   A    
C11   H127  S    
N27   Ni4   S    
C114  H90   S    
C111  H77   S    
C71   C75   D    
C64   N31   A    
C26   C40   S    
C49   H2    S    
C28   C42   S    
C31   C39   S    
C102  C106  A    
C42   C47   S    
C2    C80   A    
C3    C120  S    
C65   C66   S    
C119  H97   S    
C77   C97   A    
C102  N24   A    
C9    H124  S    
