data_mof_unit_8507.cif
_audit_creation_date              2012-12-10T19:08:09-0500
_audit_creation_method            fapswitch 2.2
_symmetry_space_group_name_H-M    P1
_symmetry_Int_Tables_number       1
_space_group_crystal_system       triclinic
_cell_length_a                    9.083514
_cell_length_b                    10.81818
_cell_length_c                    9.581834
_cell_angle_alpha                 89.371333
_cell_angle_beta                  89.207753
_cell_angle_gamma                 90.499356
_cell_volume                      941.395233225

loop_
_atom_site_label
_atom_site_type_symbol
_atom_type_description
_atom_site_fract_x
_atom_site_fract_y
_atom_site_fract_z
_atom_type_partial_charge
C1    C     C_R   0.500856 0.262548 0.500771 0.792343
C2    C     C_R   0.514242 0.608039 0.923939 0.226808
C3    C     C_3   0.635739 0.699593 0.906160 -0.516514
C4    C     C_R   0.220770 0.500240 0.500571 0.837782
C5    C     C_3   0.652973 0.692887 0.063886 -0.255263
C6    C     C_R   0.502193 0.737461 0.499685 0.787145
C7    C     C_R   0.779240 0.500368 0.499427 0.844511
C8    C     C_1   0.065549 0.500470 0.500867 -0.186769
C9    C     C_1   0.934459 0.500526 0.499227 -0.174082
C10   C     C_R   0.471027 0.061925 0.622427 0.057288
C11   C     C_R   0.511782 0.129578 0.503103 -0.072887
C12   C     C_R   0.573348 0.937740 0.388302 -0.228790
C13   C     C_R   0.571735 0.066796 0.388206 -0.217302
C14   C     C_R   0.800589 0.638876 0.102740 0.225000
C15   C     C_R   0.903542 0.714086 0.170605 -0.163602
C16   C     C_R   0.049261 0.675817 0.184034 -0.141740
C17   C     C_R   0.092924 0.562003 0.130935 -0.084752
C18   C     C_R   0.990520 0.484053 0.069020 -0.172354
C19   C     C_R   0.845117 0.522006 0.054568 -0.098567
C20   C     C_3   0.163826 0.908280 0.503753 -0.649864
C21   C     C_R   0.512105 0.870716 0.501317 -0.074081
C22   C     C_R   0.468124 0.934882 0.619916 0.072996
C23   C     C_3   0.332635 0.927782 0.711334 0.084763
C24   C     C_3   0.337424 0.068871 0.715280 -0.465504
C25   C     C_R   0.521450 0.607044 0.070646 0.197922
C26   C     C_R   0.465907 0.396133 0.075891 -0.121155
C27   C     C_R   0.466987 0.395946 0.927553 -0.093913
Cu1   Cu    Cu3+1 0.499990 0.499980 0.640670 0.934486
Cu2   Cu    Cu3+1 0.500010 0.500020 0.359330 0.932455
H1    H     H_    0.613889 0.116939 0.297468 0.154781
H2    H     H_    0.729517 0.663750 0.843098 0.220985
H3    H     H_    0.872917 0.804689 0.207489 0.109362
H4    H     H_    0.129258 0.735623 0.232428 0.129193
H5    H     H_    0.206394 0.534505 0.136231 0.164242
H6    H     H_    0.024850 0.395714 0.028436 0.132013
H7    H     H_    0.769752 0.462516 0.999865 0.137686
H8    H     H_    0.185049 0.783551 0.669140 0.254726
H9    H     H_    0.045225 0.888211 0.487762 0.215549
H10   H     H_    0.227826 0.851556 0.429317 0.205344
H11   H     H_    0.183799 0.007476 0.479931 0.230844
H12   H     H_    0.595069 0.790631 0.869252 0.175687
H13   H     H_    0.629089 0.783274 0.111353 0.135699
H14   H     H_    0.618989 0.891138 0.299442 0.141017
H15   H     H_    0.353945 0.884782 0.815008 0.106436
H16   H     H_    0.243618 0.117176 0.666329 0.198895
H17   H     H_    0.365202 0.103869 0.820310 0.151445
H18   H     H_    0.439511 0.311288 0.131489 0.151272
H19   H     H_    0.442617 0.310993 0.874430 0.145823
N1    N     N_R   0.500920 0.500930 0.147930 -0.192343
N2    N     N_R   0.500930 0.500890 0.852020 -0.179802
N3    N     N_2   0.201316 0.876111 0.646415 -0.400949
O1    O     O_R   0.500000 0.319640 0.618810 -0.585082
O2    O     O_R   0.500020 0.319680 0.381230 -0.595315
O3    O     O_R   0.288380 0.499980 0.618770 -0.576476
O4    O     O_R   0.288400 0.500020 0.381190 -0.586782
O5    O     O_R   0.499980 0.680320 0.618770 -0.586139
O6    O     O_R   0.500000 0.680360 0.381190 -0.591597
O7    O     O_R   0.711600 0.499980 0.618810 -0.582101
O8    O     O_R   0.711620 0.500020 0.381230 -0.560777

loop_
_geom_bond_atom_site_label_1
_geom_bond_atom_site_label_2
_ccdc_geom_bond_type
C27   H19   S    
C8    C9    T    
C5    H13   S    
Cu1   O7    S    
C16   H4    S    
C20   N3    S    
Cu1   O1    S    
C18   H6    S    
C13   H1    S    
C7    O7    A    
C23   N3    S    
C1    C11   S    
C27   N2    A    
C4    C8    S    
C24   H17   S    
C2    N2    A    
C2    C3    S    
Cu1   O5    S    
C15   H3    S    
Cu2   N1    S    
C21   C22   A    
C10   C22   A    
C3    H2    S    
C11   C13   A    
C6    O6    A    
C5    C14   S    
Cu2   O2    S    
C26   H18   S    
C5    C25   S    
C24   H16   S    
Cu1   N2    S    
C7    O8    A    
Cu1   Cu2   S    
Cu2   O6    S    
C17   C18   A    
C12   H14   S    
C4    O3    A    
C19   H7    S    
C4    O4    A    
C26   C27   A    
H8    N3    S    
C1    O1    A    
C25   N1    A    
C10   C11   A    
C23   C24   S    
C15   C16   A    
C12   C21   A    
C2    C25   A    
C20   H9    S    
C12   C13   A    
C18   C19   A    
C17   H5    S    
C26   N1    A    
C7    C9    S    
C20   H10   S    
Cu1   O3    S    
C14   C15   A    
C3    H12   S    
C1    O2    A    
Cu2   O4    S    
C10   C24   S    
C22   C23   S    
C6    C21   S    
C20   H11   S    
C14   C19   A    
C23   H15   S    
Cu2   O8    S    
C6    O5    A    
C16   C17   A    
C3    C5    S    
