data_mof_unit_26779.cif
_audit_creation_date              2013-03-05T15:43:04-0500
_audit_creation_method            fapswitch 2.2
_symmetry_space_group_name_H-M    P1
_symmetry_Int_Tables_number       1
_space_group_crystal_system       triclinic
_cell_length_a                    9.839031
_cell_length_b                    10.934506
_cell_length_c                    15.362958
_cell_angle_alpha                 87.701366
_cell_angle_beta                  73.735706
_cell_angle_gamma                 89.121412
_cell_volume                      1585.38581093

loop_
_atom_site_label
_atom_site_type_symbol
_atom_site_description
_atom_site_fract_x
_atom_site_fract_y
_atom_site_fract_z
_atom_type_partial_charge
O1    O     O_R   0.117050 0.321960 0.499980 -0.581954
O2    O     O_R   0.882890 0.321920 0.500020 -0.573145
C1    C     C_R   0.000353 0.265479 0.498893 0.862770
O3    O     O_R   0.052910 0.500040 0.629810 -0.607542
O4    O     O_R   0.818750 0.499990 0.629840 -0.538224
C2    C     C_R   0.917055 0.499032 0.672209 0.866792
Cu1   Cu    Cu3+1 0.138640 0.500020 0.499980 0.922386
Cu2   Cu    Cu3+1 0.861360 0.499980 0.500020 0.959497
O5    O     O_R   0.117110 0.678080 0.499980 -0.571836
O6    O     O_R   0.882950 0.678040 0.500020 -0.572092
O7    O     O_R   0.181250 0.500010 0.370160 -0.591188
O8    O     O_R   0.947090 0.499960 0.370190 -0.587576
C3    C     C_R   0.000257 0.734228 0.498617 0.853967
C4    C     C_R   0.083062 0.499787 0.327643 0.772156
C5    C     C_R   0.870766 0.512916 0.770769 -0.137944
C6    C     C_R   0.129704 0.496218 0.227941 -0.050216
C7    C     C_R   0.888671 0.629980 0.897578 -0.217030
C8    C     C_R   0.944380 0.594832 0.808603 -0.272408
C9    C     C_R   0.741832 0.461696 0.824757 0.247713
C10   C     C_R   0.671733 0.518331 0.907158 0.012094
C11   C     C_R   0.751833 0.594316 0.946574 0.127962
C12   C     C_R   0.524188 0.504131 0.950598 0.060877
C13   C     C_R   0.467438 0.540177 0.041255 0.058134
C14   C     C_R   0.554928 0.606683 0.081442 -0.207408
C15   C     C_R   0.693241 0.636200 0.033656 -0.199045
C16   C     C_R   0.430416 0.466242 0.902649 -0.165317
C17   C     C_R   0.285537 0.450992 0.944490 0.113572
C18   C     C_R   0.231711 0.469253 0.038672 0.122385
C19   C     C_R   0.323686 0.512803 0.087446 0.053661
C20   C     C_R   0.088769 0.444542 0.085866 -0.189634
C21   C     C_R   0.038322 0.459390 0.179064 -0.206363
C22   C     C_R   0.270653 0.523232 0.181990 -0.224355
H1    H     H_    0.754521 0.692764 0.064987 0.142618
H2    H     H_    0.339524 0.546988 0.222174 0.145979
H3    H     H_    0.929025 0.437176 0.213405 0.156041
H4    H     H_    0.949473 0.690587 0.926280 0.152872
H5    H     H_    0.044473 0.633162 0.768827 0.174254
H6    H     H_    0.516408 0.644967 0.147498 0.136182
H7    H     H_    0.468545 0.452720 0.830446 0.163654
H8    H     H_    0.014767 0.410004 0.052649 0.154296
C23   C     C_2   0.888605 0.933779 0.504260 -0.142574
C24   C     C_2   0.006241 0.866270 0.488288 -0.372316
H9    H     H_    0.785714 0.891162 0.530218 0.170091
H10   H     H_    0.110028 0.907877 0.462345 0.154500
C25   C     C_2   0.894301 0.065915 0.482890 0.187170
C26   C     C_2   0.995841 0.132215 0.503958 -0.363909
H11   H     H_    0.073960 0.087344 0.532294 0.141650
C27   C     C_2   0.402119 0.423723 0.550815 0.195864
N1    N     N_2   0.346430 0.498660 0.500980 -0.325973
H12   H     H_    0.397881 0.497321 0.433291 0.194619
C28   C     C_2   0.558085 0.422239 0.546832 -0.048883
N2    N     N_2   0.652550 0.498630 0.501000 -0.144389
H13   H     H_    0.591701 0.356667 0.591590 0.174819
C29   C     C_3   0.784937 0.123132 0.439490 -0.318760
C30   C     C_3   0.705253 0.032414 0.398705 -0.905284
H14   H     H_    0.780783 0.971995 0.351635 0.265730
H15   H     H_    0.631166 0.976806 0.453132 0.247036
H16   H     H_    0.641505 0.083593 0.359919 0.251163
H17   H     H_    0.705275 0.174629 0.490924 0.218592
H18   H     H_    0.839894 0.187348 0.383072 0.207408
C31   C     C_3   0.314659 0.331527 0.619202 -0.338112
C32   C     C_3   0.351528 0.200324 0.589688 -0.858780
H19   H     H_    0.342728 0.189095 0.519938 0.265612
H20   H     H_    0.460495 0.175757 0.591555 0.246082
H21   H     H_    0.277138 0.135864 0.636739 0.245644
H22   H     H_    0.335935 0.342381 0.685637 0.177927
H23   H     H_    0.200784 0.342705 0.630760 0.265719
C33   C     C_3   0.617320 0.585099 0.433576 -0.140429
C34   C     C_3   0.713059 0.693305 0.392363 -0.742156
H24   H     H_    0.706789 0.762877 0.443466 0.239515
H25   H     H_    0.822190 0.670139 0.355376 0.271237
H26   H     H_    0.669312 0.739854 0.340336 0.177029
H27   H     H_    0.610436 0.532801 0.374349 0.140092
H28   H     H_    0.521420 0.637860 0.467339 0.168509
C35   C     C_3   0.193718 0.413881 0.885681 -0.433205
C36   C     C_3   0.185981 0.275008 0.882675 -0.769964
H29   H     H_    0.293536 0.236016 0.854282 0.272669
H30   H     H_    0.138990 0.234421 0.951844 0.253874
H31   H     H_    0.118813 0.250711 0.838704 0.245360
H32   H     H_    0.085934 0.452708 0.909235 0.217998
H33   H     H_    0.236954 0.452751 0.815592 0.193928
N3    N     N_R   0.697233 0.341974 0.806220 0.097027
O9    O     O_R   0.633499 0.268500 0.873615 -0.358965
O10   O     O_R   0.741966 0.296385 0.726222 -0.389753

loop_
_geom_bond_atom_site_label_1
_geom_bond_atom_site_label_2
_geom_bond_distance
_ccdc_geom_bond_type
C5    C8    1.400783 A    
C30   H14   1.110809 S    
C23   C24   1.331911 D    
C9    C10   1.422141 A    
C36   H31   1.110635 S    
Cu1   Cu2   2.728001 S    
C29   H18   1.112205 S    
C25   C26   1.360367 D    
C6    C21   1.395688 A    
Cu1   O7    1.919670 S    
C16   C17   1.399428 A    
C13   C19   1.423862 A    
C18   C19   1.424365 A    
C8    H5    1.083495 S    
C36   H30   1.110496 S    
C19   C22   1.407807 A    
O4    C2    1.308099 A    
O7    C4    1.309059 A    
C16   H7    1.082318 S    
C33   H28   1.106959 S    
C34   H25   1.096097 S    
O5    C3    1.300015 A    
C32   H20   1.109160 S    
C2    C5    1.467400 S    
C29   C30   1.529743 S    
C31   H22   1.108946 S    
C27   C28   1.518411 S    
C33   C34   1.525826 S    
C14   H6    1.078193 S    
C13   C14   1.415600 A    
C7    H4    1.083903 S    
C9    N3    1.450832 S    
C35   H32   1.104257 S    
Cu2   N2    2.050598 S    
N2    C33   1.483099 S    
C23   H9    1.083722 S    
C34   H24   1.103743 S    
C24   H10   1.086441 S    
O3    Cu1   1.935833 S    
C17   C35   1.514901 S    
C3    C24   1.446457 S    
C29   H17   1.109518 S    
C28   N2    1.291287 D    
C36   H29   1.111057 S    
Cu1   N1    2.048631 S    
O3    C2    1.312744 A    
C35   H33   1.110540 S    
C33   H27   1.112187 S    
C7    C11   1.398653 A    
C28   H13   1.084833 S    
C22   H2    1.077190 S    
C34   H26   1.112006 S    
C5    C9    1.416361 A    
C35   C36   1.524772 S    
C32   H19   1.110701 S    
C31   H23   1.089916 S    
Cu2   O8    1.935836 S    
C7    C8    1.390182 A    
C20   H8    1.079444 S    
C14   C15   1.389219 A    
C27   N1    1.314797 D    
C10   C12   1.425781 A    
C25   C29   1.530227 S    
N1    H12   1.021764 S    
N3    O10   1.300810 A    
C30   H15   1.109799 S    
C21   H3    1.083375 S    
Cu1   O5    1.955255 S    
C11   C15   1.393179 A    
C26   H11   1.086151 S    
C32   H21   1.110684 S    
O1    Cu1   1.961787 S    
O2    Cu2   1.955256 S    
O8    C4    1.314249 A    
O6    C3    1.310283 A    
O4    Cu2   1.919670 S    
C6    C22   1.398676 A    
C1    C26   1.456830 S    
C18   C20   1.414733 A    
O2    C1    1.297939 A    
C27   C31   1.515204 S    
C20   C21   1.393144 A    
C4    C6    1.472673 S    
C31   C32   1.529529 S    
C10   C11   1.416291 A    
Cu2   O6    1.961786 S    
N3    O9    1.302206 A    
C12   C16   1.407993 A    
C30   H16   1.110616 S    
C17   C18   1.415842 A    
C23   C25   1.467182 S    
C12   C13   1.417234 A    
O1    C1    1.316565 A    
C15   H1    1.084264 S    
