data_mof_unit_33491.cif
_audit_creation_date              2012-12-11T17:12:44-0500
_audit_creation_method            fapswitch 2.2
_symmetry_space_group_name_H-M    P1
_symmetry_Int_Tables_number       1
_space_group_crystal_system       triclinic
_cell_length_a                    17.216095
_cell_length_b                    6.878677
_cell_length_c                    14.435638
_cell_angle_alpha                 89.997854
_cell_angle_beta                  110.119187
_cell_angle_gamma                 90.001664
_cell_volume                      1605.20861881

loop_
_atom_site_label
_atom_site_type_symbol
_atom_type_description
_atom_site_fract_x
_atom_site_fract_y
_atom_site_fract_z
_atom_type_partial_charge
O1    O     O_R   0.314130 0.635770 0.168990 -0.549191
O2    O     O_R   0.685870 0.364230 0.831010 -0.549191
O3    O     O_R   0.185870 0.135770 0.331010 -0.549171
O4    O     O_R   0.814130 0.864230 0.668990 -0.549170
O5    O     O_R   0.146800 0.302460 0.139760 -0.543357
O6    O     O_R   0.853200 0.697540 0.860240 -0.543357
O7    O     O_R   0.353200 0.802460 0.360240 -0.543364
O8    O     O_R   0.646800 0.197540 0.639760 -0.543364
C1    C     C_R   0.113986 0.475867 0.112769 0.738209
C2    C     C_R   0.886014 0.524133 0.887231 0.738209
C3    C     C_R   0.386014 0.975867 0.387231 0.738140
C4    C     C_R   0.613986 0.024133 0.612769 0.738139
O9    O     O_R   0.311100 0.305780 0.157130 -0.512961
O10   O     O_R   0.688900 0.694220 0.842870 -0.512961
O11   O     O_R   0.188900 0.805780 0.342870 -0.513007
O12   O     O_R   0.811100 0.194220 0.657130 -0.513007
O13   O     O_R   0.351340 0.139640 0.348510 -0.536159
O14   O     O_R   0.648660 0.860360 0.651490 -0.536159
O15   O     O_R   0.148660 0.639640 0.151490 -0.536130
O16   O     O_R   0.851340 0.360360 0.848510 -0.536130
C5    C     C_R   0.333172 0.476378 0.136022 0.792093
C6    C     C_R   0.666828 0.523622 0.863978 0.792093
C7    C     C_R   0.166826 0.976367 0.363975 0.792117
C8    C     C_R   0.833174 0.023633 0.636025 0.792117
C9    C     C_1   0.533567 0.008870 0.533042 -0.145354
C10   C     C_1   0.466433 0.991130 0.466958 -0.145354
C11   C     C_1   0.966433 0.508870 0.966958 -0.145234
C12   C     C_1   0.033567 0.491130 0.033042 -0.145234
O17   O     O_3   0.263010 0.470920 0.312770 -0.373861
O18   O     O_3   0.736990 0.529080 0.687230 -0.373861
O19   O     O_3   0.236990 0.970920 0.187230 -0.373832
O20   O     O_3   0.763010 0.029080 0.812770 -0.373832
V1    V     V_3+5 0.247590 0.194450 0.238360 1.535526
V2    V     V_3+5 0.752410 0.805550 0.761640 1.535526
V3    V     V_3+5 0.252410 0.694450 0.261640 1.535492
V4    V     V_3+5 0.747590 0.305550 0.738360 1.535492
C13   C     C_R   0.115866 0.998799 0.427815 -0.292011
C14   C     C_R   0.884134 0.001201 0.572185 -0.292011
C15   C     C_R   0.384142 0.498854 0.072195 -0.292197
C16   C     C_R   0.615857 0.501146 0.927805 -0.292197
C17   C     C_R   0.930292 0.785332 0.467248 0.798505
C18   C     C_R   0.069708 0.214668 0.532752 0.798505
C19   C     C_R   0.569567 0.285105 0.032559 0.798933
C20   C     C_R   0.430433 0.714895 0.967441 0.798933
C21   C     C_R   0.875672 0.829881 0.516394 -0.307911
C22   C     C_R   0.124328 0.170119 0.483606 -0.307911
C23   C     C_R   0.624210 0.329664 0.983448 -0.307836
C24   C     C_R   0.375789 0.670336 0.016552 -0.307836
C25   C     C_R   0.947676 0.132227 0.576005 0.688298
C26   C     C_R   0.052324 0.867773 0.423995 0.688298
C27   C     C_R   0.552408 0.632323 0.924112 0.688447
C28   C     C_R   0.447592 0.367677 0.075888 0.688447
C29   C     C_R   0.004208 0.088037 0.527266 -0.261272
C30   C     C_R   0.995792 0.911963 0.472734 -0.261272
C31   C     C_R   0.495850 0.588118 0.972814 -0.261494
C32   C     C_R   0.504150 0.411882 0.027186 -0.261494
H1    H     H_    0.172877 0.273421 0.487462 0.188189
H2    H     H_    0.827123 0.726579 0.512538 0.188189
H3    H     H_    0.327306 0.773750 0.012778 0.188352
H4    H     H_    0.672694 0.226250 0.987222 0.188352
F1    F     F_    0.043269 0.703622 0.368839 -0.620853
F2    F     F_    0.956731 0.296378 0.631160 -0.620853
F3    F     F_    0.456534 0.203353 0.130881 -0.620845
F4    F     F_    0.543466 0.796647 0.869119 -0.620845
F5    F     F_    0.919394 0.615833 0.416102 -0.598205
F6    F     F_    0.080606 0.384167 0.583898 -0.598205
F7    F     F_    0.580370 0.115481 0.083577 -0.598056
F8    F     F_    0.419630 0.884519 0.916423 -0.598056

loop_
_geom_bond_atom_site_label_1
_geom_bond_atom_site_label_2
_ccdc_geom_bond_type
C2    C11   S    
O10   V2    S    
C16   C23   A    
O7    C3    A    
C31   C32   A    
O19   V1    S    
O2    C6    A    
C8    C14   S    
C16   C27   A    
O17   V3    S    
O3    C7    A    
C5    C15   S    
O18   V4    S    
C4    C9    S    
O8    C4    A    
C6    C16   S    
O10   C6    A    
O11   C7    A    
C15   C28   A    
C9    C10   T    
O9    C5    A    
O12   C8    A    
C14   C25   A    
O15   V3    S    
C29   C30   A    
O12   V4    S    
O1    C5    A    
C13   C26   A    
O14   V2    S    
C20   C31   A    
O7    V3    S    
O5    C1    A    
C26   C30   A    
C28   C32   A    
C25   C29   A    
O20   V4    S    
O19   V3    S    
O11   V3    S    
C27   C31   A    
O5    V1    S    
C18   C29   A    
C18   C22   A    
O4    C8    A    
O4    V2    S    
C17   C30   A    
C20   F8    S    
O6    C2    A    
O18   V2    S    
O2    V4    S    
C21   H2    S    
O16   V4    S    
O17   V1    S    
C19   C32   A    
C23   H4    S    
C20   C24   A    
O1    V3    S    
C24   H3    S    
C19   F7    S    
O9    V1    S    
O8    V4    S    
C4    O14   A    
C11   C12   T    
C18   F6    S    
C26   F1    S    
C17   C21   A    
O3    V1    S    
C3    O13   A    
C14   C21   A    
C17   F5    S    
C25   F2    S    
C3    C10   S    
O13   V1    S    
C13   C22   A    
C7    C13   S    
C19   C23   A    
C22   H1    S    
C1    O15   A    
C27   F4    S    
O6    V2    S    
C1    C12   S    
C2    O16   A    
C15   C24   A    
C28   F3    S    
O20   V2    S    
