data_mof_unit_34378.cif
_audit_creation_date              2012-12-10T19:08:05-0500
_audit_creation_method            fapswitch 2.2
_symmetry_space_group_name_H-M    P1
_symmetry_Int_Tables_number       1
_space_group_crystal_system       triclinic
_cell_length_a                    9.064691
_cell_length_b                    10.81569
_cell_length_c                    9.608781
_cell_angle_alpha                 89.76901
_cell_angle_beta                  89.322203
_cell_angle_gamma                 90.879437
_cell_volume                      941.868179871

loop_
_atom_site_label
_atom_site_type_symbol
_atom_type_description
_atom_site_fract_x
_atom_site_fract_y
_atom_site_fract_z
_atom_type_partial_charge
C1    C     C_R   0.495995 0.262531 0.500184 0.788118
C2    C     C_R   0.452725 0.935554 0.376483 -0.227168
C3    C     C_R   0.479970 0.870641 0.500408 -0.098157
C4    C     C_R   0.482795 0.936168 0.625365 0.141885
C5    C     C_3   0.588762 0.931713 0.743121 -0.489973
C6    C     C_3   0.587534 0.072016 0.743085 -0.458065
C7    C     C_R   0.626680 0.523994 0.070483 0.229582
C8    C     C_R   0.382329 0.456707 0.077944 -0.088420
C9    C     C_R   0.382362 0.452692 0.929936 0.239015
C10   C     C_R   0.626885 0.521666 0.924620 0.180045
C11   C     C_3   0.733461 0.626322 0.910244 -0.485491
C12   C     C_R   0.220888 0.499921 0.500474 0.843635
C13   C     C_3   0.733373 0.632475 0.069261 -0.091698
C14   C     C_R   0.496550 0.737551 0.499916 0.786073
C15   C     C_R   0.779103 0.500234 0.499531 0.844850
C16   C     C_1   0.065604 0.500066 0.500708 -0.201964
C17   C     C_1   0.934384 0.500187 0.499360 -0.205064
C18   C     C_R   0.482006 0.063355 0.625374 0.118387
C19   C     C_R   0.478943 0.129329 0.500575 -0.096880
C20   C     C_R   0.452911 0.064575 0.376368 -0.214326
Cu1   Cu    Cu3+1 0.499990 0.499980 0.640670 0.935825
Cu2   Cu    Cu3+1 0.500010 0.500020 0.359330 0.935719
H1    H     H_    0.439717 0.112926 0.278475 0.165190
H2    H     H_    0.684575 0.706569 0.856764 0.214648
H3    H     H_    0.842232 0.608769 0.113587 0.167897
H4    H     H_    0.437901 0.887604 0.279008 0.165896
H5    H     H_    0.537568 0.890529 0.838597 0.199736
H6    H     H_    0.697323 0.893378 0.711890 0.193435
H7    H     H_    0.535573 0.111275 0.838182 0.199362
H8    H     H_    0.695227 0.115042 0.711935 0.198958
H9    H     H_    0.287438 0.422785 0.136598 0.153763
H10   H     H_    0.840805 0.596396 0.865709 0.178763
N1    N     N_R   0.500920 0.500930 0.147930 -0.200499
N2    N     N_R   0.500930 0.500890 0.852020 -0.180796
O1    O     O_R   0.500000 0.319640 0.618810 -0.587417
O2    O     O_R   0.500020 0.319680 0.381230 -0.584187
O3    O     O_R   0.288380 0.499980 0.618770 -0.580375
O4    O     O_R   0.288400 0.500020 0.381190 -0.585795
O5    O     O_R   0.499980 0.680320 0.618770 -0.574873
O6    O     O_R   0.500000 0.680360 0.381190 -0.581976
O7    O     O_R   0.711600 0.499980 0.618810 -0.577138
O8    O     O_R   0.711620 0.500020 0.381230 -0.576827
C21   C     C_3   0.673255 0.754760 0.123256 -0.769231
H11   H     H_    0.553017 0.761628 0.104226 0.234020
H12   H     H_    0.696960 0.763473 0.235548 0.247625
H13   H     H_    0.730879 0.833299 0.069895 0.217665
C22   C     C_3   0.252166 0.387385 0.866346 -0.795475
H14   H     H_    0.286914 0.327209 0.779598 0.260839
H15   H     H_    0.196525 0.324310 0.942737 0.174124
H16   H     H_    0.168513 0.455520 0.834853 0.236738

loop_
_geom_bond_atom_site_label_1
_geom_bond_atom_site_label_2
_ccdc_geom_bond_type
C2    H4    S    
C7    C10   A    
C21   H11   S    
Cu1   O1    S    
C5    H6    S    
C7    N1    A    
C15   O8    A    
C19   C20   A    
Cu1   O5    S    
C20   H1    S    
C7    C13   S    
Cu2   O6    S    
C2    C3    A    
C4    C18   A    
C22   H15   S    
Cu1   Cu2   S    
C21   H12   S    
C11   C13   S    
C13   H3    S    
Cu2   O8    S    
C3    C14   S    
Cu1   O7    S    
C5    C6    S    
C6    H8    S    
C11   H10   S    
C9    C22   S    
C22   H16   S    
C8    N1    A    
C12   O4    A    
C9    N2    A    
C6    C18   S    
C21   H13   S    
C1    C19   S    
C16   C17   T    
C10   C11   S    
C2    C20   A    
C3    C4    A    
Cu2   O4    S    
C12   C16   S    
C11   H2    S    
C13   C21   S    
C6    H7    S    
Cu1   O3    S    
C15   O7    A    
C10   N2    A    
C18   C19   A    
C12   O3    A    
C15   C17   S    
Cu2   N1    S    
C8    C9    A    
Cu1   N2    S    
C1    O1    A    
C14   O5    A    
C5    H5    S    
C8    H9    S    
C14   O6    A    
Cu2   O2    S    
C22   H14   S    
C1    O2    A    
C4    C5    S    
