data_mof_unit_62961.cif
_audit_creation_date              2012-10-26T18:11:56-0400
_audit_creation_method            fapswitch 2.2
_symmetry_space_group_name_H-M    P1
_symmetry_Int_Tables_number       1
_space_group_crystal_system       triclinic
_cell_length_a                    18.83603
_cell_length_b                    18.838088
_cell_length_c                    18.771105
_cell_angle_alpha                 109.471084
_cell_angle_beta                  109.559738
_cell_angle_gamma                 109.468005
_cell_volume                      5121.96453338

loop_
_atom_site_label
_atom_site_type_symbol
_atom_type_description
_atom_site_fract_x
_atom_site_fract_y
_atom_site_fract_z
_atom_type_partial_charge
C1    C     C_R   0.381020 0.499958 0.380735 0.539224
C2    C     C_R   0.313802 0.499454 0.312919 0.000123
C3    C     C_R   0.324177 0.250185 0.506618 -0.137086
C4    C     C_R   0.619120 0.618577 0.500471 0.553102
C5    C     C_R   0.262586 0.185553 0.508051 -0.052165
C6    C     C_R   0.185628 0.186968 0.499630 0.041794
C7    C     C_R   0.170132 0.251548 0.486433 0.134295
C8    C     C_R   0.231765 0.314576 0.481607 -0.007713
C9    C     C_R   0.310174 0.314669 0.495181 0.005420
C10   C     C_R   0.756941 0.499432 0.678040 -0.133587
C11   C     C_R   0.821757 0.500829 0.742849 -0.132638
C12   C     C_R   0.741289 0.815387 0.494993 -0.016489
C13   C     C_R   0.814326 0.500406 0.814482 0.022031
C14   C     C_R   0.742881 0.500392 0.822121 -0.143315
C15   C     C_R   0.679580 0.502030 0.758819 -0.134607
C16   C     C_R   0.618983 0.500187 0.619062 0.548317
C17   C     C_R   0.686105 0.500650 0.686270 0.027189
C18   C     C_R   0.998950 0.880296 0.381071 0.548506
C19   C     C_R   0.881347 0.881107 0.499824 0.552058
C20   C     C_R   0.002157 0.120779 0.619171 0.542164
C21   C     C_R   0.118965 0.119042 0.499868 0.561754
C22   C     C_R   0.999087 0.618920 0.118052 0.559344
C23   C     C_3   0.696396 0.867271 0.492459 -0.219720
C24   C     C_R   0.118643 0.499771 0.118406 0.546393
C25   C     C_R   0.000140 0.381248 0.881356 0.541261
C26   C     C_R   0.881129 0.500099 0.881200 0.539765
C27   C     C_R   0.004603 0.824279 0.246499 -0.139292
C28   C     C_R   0.379439 0.381366 0.498026 0.547808
C29   C     C_R   0.004062 0.761166 0.180681 0.122919
C30   C     C_R   0.997151 0.685473 0.183576 0.033264
C31   C     C_R   0.988102 0.672624 0.250026 -0.147738
C32   C     C_R   0.988358 0.735524 0.315781 -0.021001
C33   C     C_R   0.997580 0.812272 0.313987 0.016543
C34   C     C_3   0.627338 0.798202 0.496417 0.017190
C35   C     C_R   0.925147 0.177825 0.681884 -0.145840
C36   C     C_R   0.923641 0.239637 0.746406 -0.141339
C37   C     C_R   0.001375 0.314800 0.815303 0.009426
C38   C     C_R   0.080807 0.327383 0.820558 -0.118636
C39   C     C_R   0.083751 0.265023 0.757372 -0.015785
C40   C     C_R   0.681050 0.754953 0.498544 0.033408
C41   C     C_R   0.004508 0.189414 0.686920 0.040582
C42   C     C_R   0.686554 0.684344 0.501282 0.007785
C43   C     C_R   0.759618 0.678194 0.502789 -0.157585
C44   C     C_R   0.824709 0.743480 0.503433 -0.156070
C45   C     C_R   0.264764 0.428867 0.227224 -0.114918
C46   C     C_R   0.815408 0.813465 0.498887 0.011928
C47   C     C_3   0.279688 0.114895 0.515925 -0.377908
C48   C     C_3   0.096568 0.297789 0.559777 -0.285519
C49   C     C_3   0.211516 0.378610 0.459601 -0.384804
C50   C     C_3   0.925776 0.727327 0.031892 -0.279876
C51   C     C_3   0.975998 0.718488 0.384980 -0.382048
C52   C     C_3   0.172162 0.283795 0.767796 -0.405602
C53   C     C_3   0.527856 0.689658 0.335756 -0.282423
C54   C     C_3   0.148113 0.351416 0.069983 -0.389953
C55   C     C_R   0.199814 0.427390 0.161924 -0.017937
C56   C     C_R   0.185246 0.498340 0.183606 0.048939
C57   C     C_R   0.234891 0.569175 0.268638 -0.146807
C58   C     C_R   0.298438 0.569475 0.333297 -0.147547
Cu1   Cu    Cu3+1 0.499970 0.561780 0.561770 0.910525
Cu2   Cu    Cu3+1 0.500030 0.438220 0.438230 0.919259
Cu3   Cu    Cu3+1 0.061810 0.000000 0.561760 0.899547
Cu4   Cu    Cu3+1 0.938190 0.000070 0.438240 0.933516
Cu5   Cu    Cu3+1 0.938200 0.438300 0.000110 0.915806
Cu6   Cu    Cu3+1 0.061800 0.561880 0.000070 0.940169
H1    H     H_    0.767092 0.624278 0.505062 0.123022
H2    H     H_    0.982005 0.613737 0.251109 0.127247
H3    H     H_    0.864306 0.119958 0.628600 0.116694
H4    H     H_    0.861812 0.229598 0.741758 0.126789
H5    H     H_    0.140866 0.385797 0.874545 0.121227
H6    H     H_    0.735072 0.932229 0.552546 0.102463
H7    H     H_    0.673323 0.868531 0.430375 0.155561
H8    H     H_    0.625762 0.824514 0.558122 0.126792
H9    H     H_    0.276537 0.374624 0.211406 0.131811
H10   H     H_    0.223670 0.623780 0.285021 0.112392
H11   H     H_    0.223420 0.049919 0.462348 0.144787
H12   H     H_    0.335940 0.624717 0.398954 0.127553
H13   H     H_    0.338120 0.119211 0.511314 0.117384
H14   H     H_    0.291328 0.120801 0.580146 0.158716
H15   H     H_    0.063006 0.266513 0.431713 0.247576
H16   H     H_    0.145543 0.368001 0.594816 0.127776
H17   H     H_    0.114057 0.269540 0.601407 0.153129
H18   H     H_    0.031963 0.290802 0.547044 0.147981
H19   H     H_    0.261909 0.422165 0.452791 0.158336
H20   H     H_    0.150823 0.342749 0.395597 0.114961
H21   H     H_    0.203401 0.419726 0.510903 0.133070
H22   H     H_    0.043882 0.837845 0.129154 0.243528
H23   H     H_    0.384356 0.250916 0.515146 0.128302
H24   H     H_    0.883387 0.753751 0.042966 0.130033
H25   H     H_    0.892610 0.656775 0.009579 0.154323
H26   H     H_    0.936006 0.735306 0.979503 0.150273
H27   H     H_    0.920032 0.724770 0.386917 0.131610
H28   H     H_    0.962455 0.651968 0.371737 0.114104
H29   H     H_    0.035719 0.765519 0.449769 0.156236
H30   H     H_    0.169743 0.236425 0.711686 0.156988
H31   H     H_    0.206218 0.348758 0.775097 0.115075
H32   H     H_    0.211446 0.284369 0.827429 0.137135
H33   H     H_    0.492378 0.718980 0.430642 0.255133
H34   H     H_    0.762640 0.498791 0.622301 0.117150
H35   H     H_    0.462157 0.666170 0.282835 0.146763
H36   H     H_    0.531726 0.632320 0.336474 0.150250
H37   H     H_    0.576681 0.723769 0.321022 0.154015
H38   H     H_    0.169764 0.302680 0.064195 0.119611
H39   H     H_    0.078102 0.318574 0.049931 0.156189
H40   H     H_    0.156209 0.374668 0.024569 0.129698
H41   H     H_    0.876754 0.500623 0.736413 0.120765
H42   H     H_    0.736982 0.500576 0.877643 0.116493
H43   H     H_    0.624823 0.502710 0.765493 0.121427
H44   H     H_    0.010412 0.882934 0.244994 0.114871
H45   H     H_    0.881267 0.738734 0.506442 0.120293
N1    N     N_2   0.092180 0.252348 0.477982 -0.494161
N2    N     N_2   0.008914 0.773479 0.111245 -0.493959
N3    N     N_2   0.540938 0.747422 0.418762 -0.512731
O1    O     O_R   0.409790 0.552170 0.461990 -0.523500
O2    O     O_R   0.052170 0.642450 0.090210 -0.473140
O3    O     O_R   0.038000 0.447920 0.090280 -0.512463
O4    O     O_R   0.409840 0.447810 0.357660 -0.514296
O5    O     O_R   0.142370 0.552280 0.090250 -0.512471
O6    O     O_R   0.947830 0.357730 0.909970 -0.511822
O7    O     O_R   0.052200 0.462090 0.909940 -0.515153
O8    O     O_R   0.857630 0.447900 0.909930 -0.510423
O9    O     O_R   0.962000 0.552260 0.909900 -0.508278
O10   O     O_R   0.590140 0.642360 0.552170 -0.509368
O11   O     O_R   0.590190 0.538010 0.447840 -0.514097
O12   O     O_R   0.947790 0.909920 0.357650 -0.512094
O13   O     O_R   0.590160 0.552190 0.642340 -0.508628
O14   O     O_R   0.590210 0.447830 0.538010 -0.511617
O15   O     O_R   0.409810 0.461990 0.552160 -0.511599
O16   O     O_R   0.409860 0.357640 0.447830 -0.509066
O17   O     O_R   0.052180 0.909860 0.461960 -0.517226
O18   O     O_R   0.962030 0.909820 0.552150 -0.511154
O19   O     O_R   0.857630 0.909880 0.447840 -0.511420
O20   O     O_R   0.052210 0.090150 0.642360 -0.509041
O21   O     O_R   0.947820 0.090210 0.538040 -0.511298
O22   O     O_R   0.142360 0.090190 0.552160 -0.532197
O23   O     O_R   0.037970 0.090250 0.447850 -0.473691
O24   O     O_R   0.947800 0.538090 0.090240 -0.526043

loop_
_geom_bond_atom_site_label_1
_geom_bond_atom_site_label_2
_ccdc_geom_bond_type
C57   H10   S    
C31   H2    S    
C48   N1    S    
C55   C56   A    
C27   C29   A    
C34   N3    S    
C35   C36   A    
C25   O6    A    
Cu4   O12   S    
C20   C41   S    
C19   C46   S    
C58   H12   S    
C7    C8    A    
C39   C41   A    
C53   H35   S    
C5    C47   S    
C12   C23   S    
C24   O5    A    
C29   C30   A    
Cu6   O7    S    
C34   C40   S    
C49   H20   S    
C54   H40   S    
C36   C37   A    
C26   O8    A    
C30   C31   A    
C10   C17   A    
Cu1   O15   S    
Cu6   O9    S    
C56   C57   A    
C52   H31   S    
C45   H9    S    
C1    C2    S    
C15   H43   S    
C10   H34   S    
Cu3   O20   S    
C51   H27   S    
C50   H26   S    
C53   H37   S    
C16   C17   S    
C11   H41   S    
C52   H30   S    
C26   O9    A    
C20   O21   A    
C16   O13   A    
C28   O15   A    
C50   H24   S    
Cu5   O3    S    
C44   H45   S    
C19   O18   A    
C40   C42   A    
C39   C52   S    
C38   H5    S    
Cu1   Cu2   S    
C53   H36   S    
C13   C14   A    
C23   H6    S    
C1    O1    A    
C20   O20   A    
C25   O7    A    
C44   C46   A    
Cu3   O22   S    
C2    C45   A    
C19   O19   A    
C38   C39   A    
Cu6   O2    S    
C3    H23   S    
C49   H21   S    
C54   H39   S    
Cu2   O16   S    
C12   C46   A    
H33   N3    S    
C8    C9    A    
C6    C21   S    
C27   C33   A    
Cu6   O5    S    
C4    O11   A    
C22   O24   A    
Cu4   O23   S    
C12   C40   A    
Cu2   O11   S    
C43   C44   A    
C32   C51   S    
C37   C38   A    
C3    C9    A    
C23   H7    S    
C51   H28   S    
C50   H25   S    
C31   C32   A    
C35   H3    S    
C43   H1    S    
C23   C34   S    
C2    C58   A    
C4    O10   A    
Cu3   O18   S    
C51   H29   S    
C53   N3    S    
C1    O4    A    
C13   C26   S    
Cu2   O4    S    
Cu1   O13   S    
C42   C43   A    
C47   H13   S    
C34   H8    S    
C21   O22   A    
Cu4   O21   S    
C15   C17   A    
C54   C55   S    
H22   N2    S    
C22   C30   S    
H15   N1    S    
Cu4   O19   S    
C54   H38   S    
Cu1   O1    S    
C3    C5    A    
Cu5   O6    S    
C36   H4    S    
C6    C7    A    
Cu3   O17   S    
C24   C56   S    
C7    N1    S    
C32   C33   A    
C49   H19   S    
Cu2   O14   S    
C48   H17   S    
C47   H11   S    
Cu5   O24   S    
Cu5   O8    S    
C11   C13   A    
C48   H16   S    
C57   C58   A    
C5    C6    A    
C4    C42   S    
C27   H44   S    
Cu1   O10   S    
C50   N2    S    
C48   H18   S    
C52   H32   S    
C29   N2    S    
Cu3   Cu4   S    
C35   C41   A    
C18   C33   S    
C10   C11   A    
Cu5   Cu6   S    
C22   O2    A    
C45   C55   A    
C24   O3    A    
C14   H42   S    
C18   O12   A    
C14   C15   A    
C18   O17   A    
C47   H14   S    
C16   O14   A    
C8    C49   S    
C21   O23   A    
C28   O16   A    
C9    C28   S    
C25   C37   S    
