data_mof_unit_31783.cif
_audit_creation_date              2012-12-11T21:15:15-0500
_audit_creation_method            fapswitch 2.2
_symmetry_space_group_name_H-M    P1
_symmetry_Int_Tables_number       1
_space_group_crystal_system       triclinic
_cell_length_a                    8.213309
_cell_length_b                    18.77724
_cell_length_c                    26.958223
_cell_angle_alpha                 99.491079
_cell_angle_beta                  92.670522
_cell_angle_gamma                 88.243611
_cell_volume                      4095.10688954

loop_
_atom_site_label
_atom_site_type_symbol
_atom_type_description
_atom_site_fract_x
_atom_site_fract_y
_atom_site_fract_z
_atom_type_partial_charge
Ba1   Ba    Ba6+2 0.160810 0.465630 0.521640 1.646956
Ba2   Ba    Ba6+2 0.649380 0.534380 0.478400 1.640216
Br1   Br    Br    0.984109 0.649845 0.003092 -0.594921
C1    C     C_3   0.432902 0.263328 0.697407 -0.294412
C2    C     C_R   0.078634 0.095234 0.452493 0.031728
C3    C     C_R   0.224994 0.071309 0.429645 -0.079182
C4    C     C_3   0.971319 0.271008 0.623129 0.393516
C5    C     C_R   0.286650 0.001433 0.431188 -0.089727
C6    C     C_R   0.201489 0.953528 0.454737 0.031264
C7    C     C_R   0.054633 0.976864 0.477945 0.016504
C8    C     C_R   0.260049 0.882540 0.454659 -0.108941
C9    C     C_R   0.171735 0.832900 0.476193 -0.037711
C10   C     C_R   0.025155 0.856499 0.500402 -0.001347
C11   C     C_R   0.967960 0.928846 0.501419 -0.005772
C12   C     C_3   0.452433 0.292147 0.648653 0.284598
C13   C     C_R   0.223601 0.759897 0.473471 -0.005492
C14   C     C_R   0.127067 0.711424 0.492500 -0.294447
C15   C     C_R   0.986618 0.734039 0.518509 0.045353
C16   C     C_3   0.990504 0.197860 0.640513 0.232814
C17   C     C_R   0.935451 0.808003 0.523491 -0.045148
C18   C     C_R   0.848639 0.072369 0.501062 -0.006943
C19   C     C_R   0.790888 0.144602 0.501863 -0.012107
C20   C     C_R   0.879042 0.192825 0.478145 -0.052014
C21   C     C_R   0.017177 0.165566 0.451203 -0.037384
C22   C     C_R   0.796090 0.834927 0.549878 -0.038106
C23   C     C_3   0.469135 0.314018 0.397602 0.307555
C24   C     C_R   0.736160 0.905599 0.549179 0.033455
C25   C     C_R   0.822023 0.952847 0.524918 0.009489
C26   C     C_R   0.761973 0.024343 0.524509 0.019428
C27   C     C_R   0.589525 0.929487 0.571851 -0.070186
C28   C     C_3   0.840594 0.620360 0.631228 0.294225
C29   C     C_R   0.528660 0.999525 0.570631 -0.070113
C30   C     C_R   0.614662 0.047555 0.547459 0.040709
C31   C     C_R   0.644098 0.168109 0.525903 -0.036966
C32   C     C_R   0.555877 0.118431 0.547411 -0.086893
C33   C     C_R   0.590883 0.240823 0.527912 -0.006123
C34   C     C_3   0.476110 0.232612 0.381088 -0.387558
C35   C     C_R   0.685465 0.289132 0.508148 -0.296898
C36   C     C_R   0.826641 0.266654 0.482677 0.052584
C37   C     C_R   0.313666 0.452464 0.176022 0.589652
C38   C     C_R   0.151806 0.560216 0.172305 0.597765
C39   C     C_2   0.025334 0.522252 0.268786 -0.072542
C40   C     C_3   0.838194 0.637411 0.688338 -0.348789
C41   C     C_3   0.990378 0.517974 0.323111 -0.050368
C42   C     C_1   0.278740 0.492770 0.336479 0.011053
C43   C     C_2   0.314018 0.497856 0.289891 -0.094778
C44   C     C_2   0.179840 0.511161 0.252377 0.196049
C45   C     C_3   0.858573 0.722727 0.378010 0.347067
C46   C     C_R   0.293370 0.502620 0.097976 -0.081802
C47   C     C_R   0.357953 0.450348 0.125901 -0.019349
C48   C     C_R   0.465366 0.396612 0.103206 -0.056231
C49   C     C_R   0.186449 0.556823 0.121001 -0.075148
C50   C     C_2   0.145157 0.523594 0.355816 -0.289815
C51   C     C_2   0.645576 0.469684 0.636854 -0.299920
C52   C     C_3   0.980036 0.367680 0.365507 0.297860
C53   C     C_R   0.469024 0.437567 0.971736 0.028203
C54   C     C_R   0.330049 0.555336 0.970305 0.038812
C55   C     C_R   0.421186 0.495310 0.945825 0.057324
C56   C     C_3   0.867743 0.797298 0.363492 -0.362345
C57   C     C_R   0.547775 0.376199 0.944678 -0.096391
C58   C     C_R   0.583683 0.373134 0.894530 -0.041881
C59   C     C_R   0.545798 0.431676 0.869407 -0.022323
C60   C     C_R   0.466998 0.493417 0.895179 -0.075806
C61   C     C_R   0.435081 0.553310 0.870543 -0.034446
C62   C     C_R   0.482470 0.550486 0.820337 0.609944
C63   C     C_R   0.584145 0.428923 0.818782 0.588827
C64   C     C_3   0.008915 0.337648 0.310564 -0.362744
C65   C     C_2   0.733865 0.450186 0.724067 -0.074566
C66   C     C_3   0.747050 0.424502 0.668432 -0.050712
C67   C     C_3   0.337804 0.696368 0.351020 0.292281
C68   C     C_1   0.518461 0.507999 0.656085 0.040904
C69   C     C_2   0.477480 0.511060 0.703689 -0.093724
C70   C     C_2   0.594086 0.483585 0.741452 0.182222
C71   C     C_R   0.437087 0.443024 0.023634 0.037286
C72   C     C_R   0.334268 0.500055 0.046818 0.026514
C73   C     C_R   0.269782 0.553563 0.019012 -0.008744
C74   C     C_R   0.504991 0.393222 0.053340 -0.092878
C75   C     C_R   0.110657 0.604570 0.091736 -0.042042
C76   C     C_3   0.331011 0.686222 0.593090 0.313436
C77   C     C_R   0.311953 0.616781 0.946331 -0.034392
C78   C     C_3   0.355010 0.712379 0.298125 -0.342450
C79   C     C_R   0.361013 0.615496 0.897269 -0.036571
C80   C     C_R   0.144692 0.601288 0.041048 0.235570
C81   C     C_3   0.329187 0.767541 0.610401 -0.382159
C82   C     C_R   0.994234 0.048296 0.477395 0.005629
Cl1   Cl    Cl    0.863798 0.194728 0.692216 -0.664158
H1    H     H_    0.418971 0.350661 0.654586 0.053432
H2    H     H_    0.204639 0.668601 0.583778 0.005465
H3    H     H_    0.405793 0.673423 0.559390 0.061847
H4    H     H_    0.308689 0.276079 0.711191 0.146474
H5    H     H_    0.247036 0.782238 0.642298 0.136664
H6    H     H_    0.285427 0.796013 0.579259 0.054326
H7    H     H_    0.454518 0.785309 0.622876 0.121972
H8    H     H_    0.581735 0.284007 0.638728 0.013301
H9    H     H_    0.522868 0.288256 0.726195 0.172687
H10   H     H_    0.594898 0.332710 0.407761 0.023481
H11   H     H_    0.393371 0.326030 0.431145 0.061163
H12   H     H_    0.743588 0.679635 0.699856 0.140592
H13   H     H_    0.556612 0.218457 0.348741 0.136449
H14   H     H_    0.525213 0.205897 0.412586 0.055035
H15   H     H_    0.351700 0.212715 0.369697 0.115254
H16   H     H_    0.454312 0.203948 0.691341 0.152038
H17   H     H_    0.745140 0.720510 0.398320 0.118462
H18   H     H_    0.964981 0.714472 0.403345 -0.035306
H19   H     H_    0.862324 0.839216 0.397652 0.076481
H20   H     H_    0.983756 0.802164 0.344886 0.119729
H21   H     H_    0.763461 0.806439 0.337397 0.141467
H22   H     H_    0.208674 0.706036 0.361031 -0.015956
H23   H     H_    0.810400 0.588360 0.703882 0.066859
H24   H     H_    0.372613 0.638844 0.350843 0.067771
H25   H     H_    0.273573 0.677193 0.271338 0.124395
H26   H     H_    0.482815 0.701819 0.286782 0.143182
H27   H     H_    0.035395 0.268393 0.587521 0.043757
H28   H     H_    0.321010 0.769697 0.296729 0.123776
H29   H     H_    0.292670 0.106837 0.410853 0.065455
H30   H     H_    0.400241 0.984573 0.413390 0.074210
H31   H     H_    0.165649 0.655249 0.488756 0.067481
H32   H     H_    0.373371 0.866348 0.436745 0.110063
H33   H     H_    0.081377 0.198875 0.429916 0.101542
H34   H     H_    0.959399 0.656867 0.704109 0.138660
H35   H     H_    0.729985 0.801150 0.570324 0.097272
H36   H     H_    0.520899 0.893813 0.590225 0.065852
H37   H     H_    0.414713 0.016323 0.588233 0.076631
H38   H     H_    0.441857 0.134280 0.564914 0.104930
H39   H     H_    0.839554 0.280757 0.614907 -0.092788
H40   H     H_    0.643975 0.344782 0.510449 0.070611
H41   H     H_    0.439365 0.491883 0.278691 0.128560
H42   H     H_    0.520384 0.356766 0.124114 0.123892
H43   H     H_    0.826744 0.432421 0.749600 0.136725
H44   H     H_    0.643417 0.324521 0.875570 0.138265
H45   H     H_    0.096492 0.386666 0.384375 0.024320
H46   H     H_    0.579190 0.328470 0.960795 0.077219
H47   H     H_    0.592719 0.351683 0.039419 0.074144
H48   H     H_    0.923639 0.527615 0.242426 0.111224
H49   H     H_    0.016940 0.642448 0.107543 0.160338
H50   H     H_    0.267414 0.667895 0.965999 0.138509
H51   H     H_    0.953474 0.154397 0.608947 0.000080
H52   H     H_    0.341395 0.663827 0.880419 0.133705
H53   H     H_    0.357809 0.531824 0.715149 0.136331
H54   H     H_    0.145051 0.549339 0.394953 0.070932
H55   H     H_    0.658669 0.458088 0.596443 0.086674
H56   H     H_    0.889616 0.412995 0.367980 0.037877
H57   H     H_    0.119783 0.187652 0.652129 0.092830
H58   H     H_    0.717767 0.604206 0.615942 0.010585
H59   H     H_    0.929006 0.575232 0.620832 0.080823
H60   H     H_    0.087149 0.287977 0.307973 0.147039
H61   H     H_    0.071220 0.377135 0.292326 0.077984
H62   H     H_    0.890792 0.324306 0.289982 0.119205
N1    N     N_R   0.214888 0.508093 0.199411 -0.425067
N2    N     N_R   0.554024 0.488133 0.794371 -0.423541
O1    O     O_2   0.106080 0.324280 0.466820 -0.468942
O2    O     O_2   0.659654 0.564889 0.331965 -0.494246
O3    O     O_3   0.860013 0.670332 0.334458 -0.592892
O4    O     O_3   0.859130 0.413620 0.470620 -0.483087
O5    O     O_3   0.459240 0.537930 0.559910 -0.490949
O6    O     O_2   0.583120 0.462390 0.379940 -0.464304
O7    O     O_3   0.401156 0.346697 0.357955 -0.630756
O8    O     O_2   0.564737 0.756992 0.476373 -0.500142
O9    O     O_3   0.440849 0.741326 0.384599 -0.608400
O10   O     O_2   0.361378 0.403911 0.198627 -0.599115
O11   O     O_2   0.643063 0.372978 0.796279 -0.595581
O12   O     O_3   0.396730 0.652824 0.632346 -0.622349
O13   O     O_2   0.066804 0.609969 0.192880 -0.590869
O14   O     O_2   0.461478 0.603887 0.800061 -0.588682
O15   O     O_3   0.376230 0.370290 0.556910 -0.474496
O16   O     O_2   0.255022 0.243132 0.517751 -0.494772
O17   O     O_3   0.919068 0.312461 0.387316 -0.643706
O18   O     O_3   0.349426 0.254206 0.611287 -0.612096
O19   O     O_2   0.227190 0.537650 0.620070 -0.464379
O20   O     O_3   0.971110 0.406970 0.583250 -0.486655
O21   O     O_2   0.079345 0.465846 0.675484 -0.491562
O22   O     O_3   0.039206 0.325436 0.660013 -0.569135
O23   O     O_2   0.704230 0.675760 0.533200 -0.469189
O24   O     O_3   0.951180 0.586390 0.529420 -0.490266
O25   O     O_3   0.434080 0.629720 0.443130 -0.472631
O26   O     O_3   0.885563 0.682168 0.613029 -0.636689
O27   O     O_3   0.351080 0.462080 0.440130 -0.477738
O28   O     O_3   0.839200 0.593040 0.416790 -0.487189
P1    P     P_3+3 0.929380 0.335110 0.452880 0.975964
P2    P     P_3+3 0.398530 0.559060 0.613740 0.998243
P3    P     P_3+3 0.960560 0.408706 0.647777 0.977303
P4    P     P_3+3 0.880940 0.664900 0.547160 0.977101
P5    P     P_3+3 0.835296 0.585036 0.351165 0.976721
P6    P     P_3+3 0.394554 0.276723 0.553251 0.932604
P7    P     P_3+3 0.399733 0.440467 0.376839 0.962320
P8    P     P_3+3 0.415681 0.722948 0.445297 0.925866

loop_
_geom_bond_atom_site_label_1
_geom_bond_atom_site_label_2
_ccdc_geom_bond_type
C5    C6    A    
O17   P1    S    
C45   O3    S    
C7    C82   A    
Ba2   O5    S    
C70   N2    S    
C50   H54   S    
C29   H37   S    
C40   H12   S    
C52   O17   S    
C16   Cl1   S    
O24   P4    S    
C12   H8    S    
C42   C43   D    
O26   P4    S    
C2    C21   A    
C56   H19   S    
C74   H47   S    
C48   H42   S    
C54   C73   A    
C25   C26   A    
O7    P7    S    
C63   N2    Am   
C27   H36   S    
Ba2   O23   S    
C76   C81   S    
C31   C32   A    
Ba1   P2    S    
C37   C47   A    
C38   N1    Am   
C17   C22   A    
C15   P4    S    
C45   H18   S    
C26   C30   A    
Ba1   O20   S    
C62   N2    Am   
O27   P7    S    
C52   C64   S    
C40   H23   S    
C23   O7    S    
C14   C15   A    
Ba1   Ba2   S    
Ba2   P4    S    
C28   H58   S    
Ba1   O5    S    
C67   C78   S    
C34   H15   S    
Ba1   O27   S    
C41   C50   S    
C69   H53   S    
C51   C68   D    
C78   H25   S    
C4    O22   S    
C13   C14   A    
O18   P6    S    
C71   C74   A    
C1    H16   S    
C78   H28   S    
Ba2   O6    S    
C20   C21   A    
C46   C72   A    
C33   P6    S    
Ba2   O27   S    
C67   H24   S    
C75   H49   S    
C38   C49   A    
O12   P2    S    
O28   P5    S    
C14   H31   S    
C40   H34   S    
C81   H7    S    
C2    C82   A    
C42   C50   D    
Ba2   O4    S    
C52   H56   S    
C10   C11   A    
C24   C27   A    
C54   C77   A    
C57   H46   S    
Ba1   O4    S    
C39   C41   S    
C49   C75   A    
O8    P8    D    
C73   C80   A    
C76   H2    S    
C35   H40   S    
O21   P3    D    
C47   C48   A    
C1    H4    S    
C28   O26   S    
C61   C62   A    
C23   H10   S    
C35   C36   A    
C19   C31   A    
C18   C82   A    
Ba1   O24   S    
C56   H20   S    
C53   C71   A    
C71   C72   A    
C59   C63   A    
C9    C13   A    
C43   H41   S    
O16   P6    D    
C77   C79   A    
C7    C11   A    
C44   N1    S    
C65   C66   S    
C3    C5    A    
C65   C70   D    
O6    P7    D    
C45   H17   S    
C18   C26   A    
C56   H21   S    
C53   C57   A    
C63   O11   D    
C57   C58   A    
C68   P2    S    
C72   C73   A    
C48   C74   A    
C59   C60   A    
Ba2   O25   S    
C1    H9    S    
O1    P1    D    
C78   H26   S    
Ba1   O15   S    
C16   H51   S    
C46   C49   A    
C64   H60   S    
O22   P3    S    
C67   O9    S    
C4    H39   S    
O2    P5    D    
C6    C8    A    
C41   P5    S    
C61   C79   A    
C28   C40   S    
C58   H44   S    
C13   P8    S    
C81   H5    S    
O23   P4    D    
C52   H45   S    
C38   O13   D    
O20   P3    S    
Br1   C80   S    
C12   O18   S    
C76   O12   S    
C34   H13   S    
O5    P2    S    
O9    P8    S    
C45   C56   S    
C12   H1    S    
C6    C7    A    
C55   C60   A    
C43   C44   S    
C32   H38   S    
C21   H33   S    
C16   H57   S    
O19   P2    D    
C10   C17   A    
O15   P6    S    
C37   O10   D    
O4    P1    S    
C69   C70   S    
C75   C80   A    
C15   C17   A    
C36   P1    S    
C8    C9    A    
C23   C34   S    
C22   C24   A    
C81   H6    S    
C4    C16   S    
C77   H50   S    
C39   H48   S    
C29   C30   A    
C4    H27   S    
C1    C12   S    
C33   C35   A    
C68   C69   D    
C79   H52   S    
O3    P5    S    
Ba2   O24   S    
O25   P8    S    
C27   C29   A    
Ba1   P1    S    
C42   P7    S    
C54   C55   A    
C2    C3    A    
C51   C66   S    
C20   C36   A    
C62   O14   D    
Ba1   O19   S    
C30   C32   A    
C53   C55   A    
C37   N1    Am   
Ba1   O1    S    
C31   C33   A    
C39   C44   D    
C58   C59   A    
C3    H29   S    
C76   H3    S    
C5    H30   S    
C23   H11   S    
C60   C61   A    
C28   H59   S    
C51   H55   S    
C9    C10   A    
C46   C47   A    
C64   H61   S    
C64   H62   S    
C19   C20   A    
C65   H43   S    
C67   H22   S    
Ba2   O28   S    
C11   C25   A    
C18   C19   A    
C8    H32   S    
C22   H35   S    
C34   H14   S    
C66   P3    S    
C24   C25   A    
