data_mof_unit_5641.cif
_audit_creation_date              2012-12-11T16:48:22-0500
_audit_creation_method            fapswitch 2.2
_symmetry_space_group_name_H-M    P1
_symmetry_Int_Tables_number       1
_space_group_crystal_system       triclinic
_cell_length_a                    17.439338
_cell_length_b                    24.278784
_cell_length_c                    15.139329
_cell_angle_alpha                 89.999925
_cell_angle_beta                  125.822934
_cell_angle_gamma                 90.0
_cell_volume                      5197.4839117

loop_
_atom_site_label
_atom_site_type_symbol
_atom_type_description
_atom_site_fract_x
_atom_site_fract_y
_atom_site_fract_z
_atom_type_partial_charge
C1    C     C_R   0.313215 0.372902 0.909206 -0.125937
C2    C     C_R   0.431966 0.496187 0.634525 -0.077529
C3    C     C_R   0.095023 0.870671 0.909229 -0.106094
C4    C     C_R   0.316074 0.357416 0.998952 0.058699
C5    C     C_R   0.687676 0.362190 0.002370 0.064466
C6    C     C_R   0.812323 0.862190 0.997630 0.064469
C7    C     C_R   0.183927 0.857417 0.001048 0.058698
C8    C     C_R   0.068033 0.996187 0.365475 -0.077530
C9    C     C_R   0.982916 0.997634 0.664658 -0.008705
C10   C     C_R   0.177614 0.499594 0.671001 -0.113250
C11   C     C_R   0.797390 0.499269 0.366676 -0.110948
C12   C     C_R   0.702610 0.999269 0.633324 -0.110950
C13   C     C_R   0.322386 0.999594 0.329000 -0.113249
C14   C     C_2   0.926185 0.455339 0.528976 -0.286640
C15   C     C_2   0.027428 0.461421 0.609596 -0.303974
C16   C     C_2   0.472572 0.961421 0.390404 -0.303973
C17   C     C_R   0.689569 0.377131 0.091877 -0.123817
C18   C     C_2   0.573815 0.955339 0.471024 -0.286643
C19   C     C_2   0.872334 0.500040 0.482526 0.905826
C20   C     C_2   0.076555 0.498287 0.594861 0.815009
C21   C     C_2   0.423445 0.998286 0.405140 0.815008
C22   C     C_2   0.627665 0.000040 0.517474 0.905827
C23   C     C_R   0.388650 0.765927 0.100288 0.099761
C24   C     C_R   0.618307 0.762597 0.897153 0.118041
C25   C     C_R   0.881693 0.262598 0.102846 0.118039
C26   C     C_R   0.111350 0.265927 0.899711 0.099763
C27   C     C_R   0.357774 0.740399 0.001682 0.049046
C28   C     C_R   0.810431 0.877131 0.908123 -0.123818
C29   C     C_R   0.648261 0.738276 0.996423 0.038046
C30   C     C_R   0.851739 0.238276 0.003576 0.038046
C31   C     C_R   0.142226 0.240399 0.998317 0.049046
C32   C     C_R   0.296151 0.770056 0.904844 -0.170619
C33   C     C_R   0.704393 0.769987 0.091757 -0.160766
C34   C     C_R   0.795606 0.269987 0.908242 -0.160765
C35   C     C_R   0.203848 0.270056 0.095155 -0.170618
C36   C     C_R   0.751792 0.317813 0.910172 -0.166610
C37   C     C_R   0.252686 0.315428 0.094104 -0.181339
C38   C     C_R   0.247313 0.815429 0.905895 -0.181339
C39   C     C_R   0.186786 0.872902 0.090794 -0.125938
C40   C     C_R   0.748207 0.817813 0.089827 -0.166615
C41   C     C_R   0.762996 0.332987 0.006888 0.024291
C42   C     C_R   0.240329 0.330168 0.996504 0.040302
C43   C     C_R   0.259671 0.830169 0.003495 0.040303
C44   C     C_R   0.737003 0.832987 0.993111 0.024290
C45   C     C_R   0.440661 0.651006 0.089012 -0.116275
C46   C     C_R   0.565787 0.648748 0.910551 -0.085640
C47   C     C_R   0.934213 0.148748 0.089449 -0.085641
C48   C     C_R   0.059339 0.151006 0.910988 -0.116274
C49   C     C_R   0.837621 0.309202 0.104622 0.167446
C50   C     C_R   0.376861 0.682130 0.999069 0.006778
C51   C     C_R   0.160269 0.310167 0.898700 0.162631
C52   C     C_R   0.339731 0.810168 0.101299 0.162631
C53   C     C_R   0.662379 0.809202 0.895377 0.167448
C54   C     C_3   0.844238 0.289439 0.202798 -0.508093
C55   C     C_3   0.145991 0.290982 0.795982 -0.532067
C56   C     C_3   0.354009 0.790983 0.204017 -0.532067
C57   C     C_3   0.655763 0.789438 0.797201 -0.508095
C58   C     C_3   0.407718 0.742941 0.203026 -0.387518
C59   C     C_3   0.606771 0.738873 0.798765 -0.437372
C60   C     C_3   0.893230 0.238873 0.201234 -0.437369
C61   C     C_R   0.628785 0.680250 0.000758 0.017115
C62   C     C_3   0.092282 0.242941 0.796974 -0.387519
C63   C     C_R   0.474040 0.445218 0.530003 -0.017400
C64   C     C_R   0.502269 0.447904 0.462971 -0.172117
C65   C     C_R   0.997717 0.947907 0.537017 -0.172115
C66   C     C_R   0.025947 0.945220 0.469987 -0.017397
C67   C     C_R   0.425267 0.489556 0.535417 0.051908
C68   C     C_R   0.482182 0.494291 0.399693 0.188820
C69   C     C_R   0.017808 0.994293 0.600300 0.188830
C70   C     C_R   0.074727 0.989556 0.464579 0.051900
C71   C     C_R   0.386417 0.529774 0.453380 -0.057688
C72   C     C_R   0.871216 0.180251 0.999241 0.017114
C73   C     C_R   0.414925 0.532049 0.384984 -0.177956
C74   C     C_R   0.085070 0.032048 0.615013 -0.177957
C75   C     C_R   0.113580 0.029772 0.546619 -0.057687
C76   C     C_3   0.594459 0.420018 0.541692 0.534215
C77   C     C_3   0.564157 0.416616 0.616949 0.415390
C78   C     C_3   0.935827 0.916623 0.383036 0.415385
C79   C     C_3   0.905523 0.920027 0.458291 0.534223
C80   C     C_R   0.524325 0.452543 0.287039 -0.223229
C81   C     C_R   0.449162 0.452220 0.699268 -0.225320
C82   C     C_R   0.050837 0.952220 0.300732 -0.225312
C83   C     C_R   0.123139 0.182130 0.000931 0.006777
C84   C     C_R   0.975671 0.952543 0.712958 -0.223249
C85   C     C_R   0.232784 0.545846 0.719317 0.085161
C86   C     C_R   0.753578 0.545036 0.302832 0.070448
C87   C     C_R   0.746422 0.045036 0.697168 0.070449
C88   C     C_R   0.267216 0.045846 0.280683 0.085158
C89   C     C_R   0.523864 0.544540 0.288972 0.468508
C90   C     C_R   0.444298 0.543693 0.693454 0.518104
C91   C     C_R   0.055702 0.043693 0.306545 0.518104
C92   C     C_R   0.976132 0.044541 0.711025 0.468510
C93   C     C_R   0.234706 0.453786 0.714366 -0.207096
C94   C     C_R   0.517076 0.497633 0.335336 -0.008703
C95   C     C_R   0.750980 0.453604 0.303207 -0.205014
C96   C     C_R   0.749020 0.953604 0.696793 -0.205016
C97   C     C_R   0.265294 0.953786 0.285634 -0.207098
C98   C     C_R   0.346703 0.650358 0.908392 -0.072922
C99   C     C_R   0.654245 0.649976 0.091947 -0.094096
C100  C     C_R   0.845755 0.149976 0.908052 -0.094093
C101  C     C_R   0.153297 0.150358 0.091608 -0.072922
C102  C     C_R   0.404977 0.370670 0.090770 -0.106095
C103  C     C_R   0.597957 0.374403 0.909526 -0.117963
C104  C     C_R   0.902042 0.874403 0.090474 -0.117968
F1    F     F_    0.900567 0.549567 0.534816 -0.639677
F2    F     F_    0.034639 0.534134 0.509565 -0.652565
F3    F     F_    0.465361 0.034133 0.490436 -0.652565
F4    F     F_    0.599432 0.049567 0.465184 -0.639675
F5    F     F_    0.670648 0.455070 0.580847 -0.665503
F6    F     F_    0.547320 0.362828 0.631502 -0.725415
F7    F     F_    0.952658 0.862834 0.368480 -0.725425
F8    F     F_    0.829340 0.955082 0.419138 -0.665500
H1    H     H_    0.255283 0.368296 0.825745 0.106752
H2    H     H_    0.307937 0.333577 0.171246 0.134579
H3    H     H_    0.192062 0.833577 0.828753 0.134579
H4    H     H_    0.799632 0.838008 0.166232 0.184827
H5    H     H_    0.891213 0.315835 0.275431 0.201450
H6    H     H_    0.100651 0.319535 0.726609 0.199001
H7    H     H_    0.399350 0.819535 0.273390 0.199001
H8    H     H_    0.608788 0.815834 0.724568 0.201451
H9    H     H_    0.774575 0.279388 0.185890 0.210285
H10   H     H_    0.212302 0.277565 0.807530 0.212126
H11   H     H_    0.287699 0.777566 0.192470 0.212125
H12   H     H_    0.748895 0.376133 0.176352 0.116316
H13   H     H_    0.725427 0.779388 0.814110 0.210285
H14   H     H_    0.484209 0.744038 0.271504 0.223564
H15   H     H_    0.531362 0.736549 0.727426 0.228489
H16   H     H_    0.968640 0.236549 0.272573 0.228489
H17   H     H_    0.015792 0.244038 0.728495 0.223566
H18   H     H_    0.370985 0.703175 0.190558 0.224615
H19   H     H_    0.648609 0.700630 0.816392 0.212365
H20   H     H_    0.851393 0.200631 0.183608 0.212365
H21   H     H_    0.129015 0.203175 0.809441 0.224614
H22   H     H_    0.339732 0.561401 0.444708 0.219999
H23   H     H_    0.751105 0.876133 0.823648 0.116317
H24   H     H_    0.387970 0.564506 0.324759 0.161062
H25   H     H_    0.112028 0.064504 0.675241 0.161057
H26   H     H_    0.160269 0.061398 0.555295 0.219996
H27   H     H_    0.601244 0.379629 0.512292 0.058728
H28   H     H_    0.609236 0.440404 0.693933 0.079278
H29   H     H_    0.890754 0.940413 0.306054 0.079281
H30   H     H_    0.898730 0.879638 0.487685 0.058727
H31   H     H_    0.489656 0.666574 0.169630 0.191529
H32   H     H_    0.524617 0.661988 0.827466 0.182707
H33   H     H_    0.975384 0.161989 0.172534 0.182707
H34   H     H_    0.244717 0.868297 0.174254 0.106752
H35   H     H_    0.010344 0.166573 0.830370 0.191532
H36   H     H_    0.532191 0.410176 0.312464 0.126423
H37   H     H_    0.433899 0.409468 0.674761 0.189881
H38   H     H_    0.066099 0.909468 0.325238 0.189877
H39   H     H_    0.967804 0.910176 0.687533 0.126426
H40   H     H_    0.211336 0.588475 0.700141 0.143570
H41   H     H_    0.766213 0.587252 0.330441 0.175974
H42   H     H_    0.733786 0.087252 0.669559 0.175974
H43   H     H_    0.288663 0.088475 0.299859 0.143571
H44   H     H_    0.215301 0.412209 0.683543 0.117091
H45   H     H_    0.276340 0.754789 0.827007 0.134050
H46   H     H_    0.757701 0.411787 0.331481 0.113517
H47   H     H_    0.742299 0.911787 0.668519 0.113516
H48   H     H_    0.284699 0.912209 0.316457 0.117090
H49   H     H_    0.304372 0.664054 0.824964 0.128690
H50   H     H_    0.692400 0.664494 0.174964 0.122686
H51   H     H_    0.807600 0.164494 0.825036 0.122688
H52   H     H_    0.195628 0.164054 0.175036 0.128691
H53   H     H_    0.432474 0.361518 0.173737 0.096267
H54   H     H_    0.571806 0.368276 0.825737 0.156380
H55   H     H_    0.928193 0.868275 0.174262 0.156387
H56   H     H_    0.723249 0.755221 0.169502 0.144570
H57   H     H_    0.067526 0.861520 0.826262 0.096268
H58   H     H_    0.902458 0.414845 0.492413 0.099064
H59   H     H_    0.063463 0.431424 0.675240 0.113657
H60   H     H_    0.436537 0.931424 0.324760 0.113657
H61   H     H_    0.597543 0.914845 0.507587 0.099063
H62   H     H_    0.662282 0.671527 0.369998 0.373320
H63   H     H_    0.332969 0.674327 0.680288 0.367841
H64   H     H_    0.167030 0.174327 0.319712 0.367842
H65   H     H_    0.837713 0.171528 0.630002 0.373322
H66   H     H_    0.776749 0.255221 0.830496 0.144570
H67   H     H_    0.223659 0.254789 0.172992 0.134051
H68   H     H_    0.700365 0.338008 0.833766 0.184812
N1    N     N_R   0.395410 0.396350 0.944340 -0.041856
N2    N     N_R   0.474920 0.471030 0.794350 -0.075484
N3    N     N_R   0.025080 0.971030 0.205650 -0.075485
N4    N     N_R   0.974920 0.971030 0.794350 -0.068393
N5    N     N_R   0.320260 0.527820 0.794570 -0.045566
N6    N     N_R   0.679740 0.527820 0.205430 -0.058910
N7    N     N_R   0.820260 0.027820 0.794570 -0.058910
N8    N     N_R   0.179740 0.027820 0.205430 -0.045566
N9    N     N_R   0.524590 0.527840 0.205200 -0.101773
N10   N     N_R   0.475410 0.527840 0.794800 -0.098401
N11   N     N_R   0.024590 0.027840 0.205200 -0.098401
N12   N     N_R   0.604590 0.396350 0.055660 -0.042857
N13   N     N_R   0.975410 0.027840 0.794800 -0.101774
N14   N     N_R   0.320750 0.471000 0.795020 -0.038318
N15   N     N_R   0.679250 0.471000 0.204980 -0.035751
N16   N     N_R   0.820750 0.971000 0.795020 -0.035750
N17   N     N_R   0.179250 0.971000 0.204980 -0.038317
N18   N     N_R   0.393620 0.602490 0.942710 -0.044082
N19   N     N_R   0.606380 0.602490 0.057290 -0.050646
N20   N     N_R   0.893620 0.102490 0.942710 -0.050646
N21   N     N_R   0.106380 0.102490 0.057290 -0.044081
N22   N     N_R   0.451720 0.396350 0.057510 -0.042324
N23   N     N_R   0.895410 0.896350 0.944340 -0.042856
N24   N     N_R   0.548280 0.396350 0.942490 -0.043433
N25   N     N_R   0.951720 0.896350 0.057510 -0.043433
N26   N     N_R   0.048280 0.896350 0.942490 -0.042323
N27   N     N_R   0.104590 0.896350 0.055660 -0.041856
N28   N     N_R   0.449930 0.602500 0.055880 -0.053941
N29   N     N_R   0.550070 0.602500 0.944120 -0.039832
N30   N     N_R   0.949930 0.102500 0.055880 -0.039832
N31   N     N_R   0.050070 0.102500 0.944120 -0.053940
N32   N     N_R   0.525080 0.471030 0.205650 -0.068395
Ni1   Ni    Ni4+2 0.435420 0.434270 0.870230 0.227287
Ni2   Ni    Ni4+2 0.564580 0.434270 0.129770 0.218026
Ni3   Ni    Ni4+2 0.935420 0.934270 0.870230 0.218025
Ni4   Ni    Ni4+2 0.064580 0.934270 0.129770 0.227286
Ni5   Ni    Ni4+2 0.563430 0.564580 0.128740 0.272850
Ni6   Ni    Ni4+2 0.436570 0.564580 0.871260 0.295682
Ni7   Ni    Ni4+2 0.063430 0.064580 0.128740 0.295682
Ni8   Ni    Ni4+2 0.936570 0.064580 0.871260 0.272851
O1    O     O_2   0.502821 0.642818 0.350831 -0.350137
O2    O     O_2   0.997175 0.142818 0.649167 -0.350133
O3    O     O_2   0.855813 0.090135 0.516350 -0.197553
O4    O     O_3   0.861213 0.137168 0.673453 -0.611516
O5    O     O_2   0.644180 0.590133 0.483649 -0.197558
O6    O     O_3   0.638786 0.637167 0.326551 -0.611510
O7    O     O_2   0.417847 0.639161 0.591017 -0.314968
O8    O     O_2   0.276030 0.586992 0.538455 -0.287639
O9    O     O_3   0.364255 0.639475 0.718819 -0.616573
O10   O     O_2   0.082149 0.139161 0.408979 -0.314964
O11   O     O_2   0.223968 0.086993 0.461548 -0.287638
O12   O     O_3   0.135746 0.139475 0.281182 -0.616574
S1    S     S_3+6 0.577520 0.605115 0.365181 -0.057079
S2    S     S_3+6 0.374320 0.603451 0.631860 -0.090318
S3    S     S_3+6 0.125678 0.103451 0.368140 -0.090315
S4    S     S_3+6 0.922476 0.105116 0.634818 -0.057079

loop_
_geom_bond_atom_site_label_1
_geom_bond_atom_site_label_2
_ccdc_geom_bond_type
N26   Ni3   S    
C47   N30   A    
C23   C58   S    
C5    C103  A    
C10   C85   A    
C16   C21   D    
C65   C79   S    
C29   C33   A    
N7    N16   A    
N13   Ni8   S    
C95   H46   S    
C93   N14   A    
C36   H68   S    
C77   H28   S    
N5    N14   A    
C14   H58   S    
C60   H20   S    
N14   Ni1   S    
C47   H33   S    
O11   S3    D    
C23   C52   A    
N3    N11   A    
C54   C60   S    
N31   Ni8   S    
N23   N25   A    
C11   C19   S    
O6    S1    S    
C79   F8    S    
H63   O9    S    
N29   Ni6   S    
C64   C68   A    
C62   H21   S    
N23   Ni3   S    
C35   C37   A    
C86   H41   S    
C9    C69   S    
C32   H45   S    
C3    C7    A    
C57   H13   S    
C81   H37   S    
C43   C52   A    
C57   C59   S    
C79   H30   S    
C5    C17   A    
C11   C86   A    
C59   H15   S    
C49   C54   S    
H64   O12   S    
C55   C62   S    
C12   C22   S    
N3    Ni4   S    
C31   C83   S    
C90   S2    S    
C51   C55   S    
C96   N16   A    
C89   S1    S    
C37   C42   A    
C2    C90   A    
C103  N24   A    
N27   Ni4   S    
N15   Ni2   S    
C84   N4    A    
C24   C29   A    
C52   C56   S    
C44   C53   A    
C6    C28   A    
C23   C27   A    
N1    N22   A    
N25   Ni4   S    
C10   C20   S    
C76   F5    S    
C89   N9    A    
C39   N27   A    
N2    Ni1   S    
C73   H24   S    
C25   C30   A    
C78   F7    S    
N18   Ni6   S    
C25   C60   S    
C7    C43   S    
C83   C101  A    
C20   F2    S    
C27   C50   S    
C102  N22   A    
C42   C51   A    
C80   N32   A    
C63   C77   S    
C26   C62   S    
C55   H10   S    
C26   C31   A    
C6    C44   S    
C35   H67   S    
C28   N23   A    
C62   H17   S    
C36   C41   A    
C61   C99   A    
C1    H1    S    
C81   N2    A    
C71   H22   S    
N10   Ni6   S    
C9    C92   A    
C41   C49   A    
N6    Ni5   S    
N9    Ni5   S    
C29   C61   S    
N7    Ni8   S    
C101  H52   S    
C17   N12   A    
C85   N5    A    
C15   C20   D    
C66   C78   S    
C74   H25   S    
C63   C67   A    
C50   C98   A    
C33   C40   A    
C74   C75   A    
C30   C34   A    
C46   C61   A    
N18   N28   A    
C91   S3    S    
C97   H48   S    
C97   N17   A    
N6    N15   A    
C60   H16   S    
C13   C88   A    
C76   C77   S    
N21   Ni7   S    
C92   N13   A    
N5    Ni6   S    
C78   H29   S    
N11   Ni7   S    
C71   C73   A    
N16   Ni3   S    
C1    N1    A    
N26   N27   A    
C3    H57   S    
N4    Ni3   S    
C46   H32   S    
C37   H2    S    
C10   C93   A    
C68   C73   A    
C91   N11   A    
C82   N3    A    
C92   S4    S    
O12   S3    S    
C68   C94   S    
N30   Ni7   S    
C4    C102  A    
N19   N29   A    
C80   H36   S    
C18   H61   S    
C56   H11   S    
C99   H50   S    
C16   H60   S    
C17   H12   S    
C14   C15   S    
C48   N31   A    
C88   N8    A    
O2    S4    D    
N19   Ni5   S    
C64   C76   S    
C87   H42   S    
C15   H59   S    
O10   S3    D    
N12   Ni2   S    
C8    C91   A    
C21   F3    S    
C104  N25   A    
N22   Ni2   S    
C82   H38   S    
N17   Ni4   S    
C57   H8    S    
C19   F1    S    
C54   H9    S    
N32   Ni2   S    
C58   H14   S    
C45   N28   A    
C32   C38   A    
N20   Ni8   S    
C56   H7    S    
C31   C35   A    
C34   H66   S    
C33   H56   S    
C87   N7    A    
C80   C94   A    
C100  N20   A    
C98   H49   S    
C59   H19   S    
C90   N10   A    
N8    Ni7   S    
C11   C95   A    
N28   Ni5   S    
C65   C69   A    
O7    S2    D    
C5    C41   S    
C95   N15   A    
N12   N24   A    
C12   C87   A    
O1    S1    D    
C27   C32   A    
C18   C22   D    
C3    N26   A    
O8    S2    D    
C14   C19   D    
C93   H44   S    
C8    C82   A    
C28   H23   S    
N9    N32   A    
C53   C57   S    
C89   C94   A    
C30   C72   S    
C86   N6    A    
C24   C53   A    
C46   N29   A    
N2    N10   A    
C66   C70   A    
C8    C70   S    
C6    C104  A    
C48   C83   A    
C1    C4    A    
O5    S1    D    
N20   N30   A    
H62   O6    S    
C85   H40   S    
C38   C43   A    
C101  N21   A    
C26   C51   A    
C13   C21   S    
C104  H55   S    
C45   C50   A    
C38   H3    S    
C78   C79   S    
C98   N18   A    
C40   H4    S    
O9    S2    S    
C4    C42   S    
N8    N17   A    
C58   H18   S    
C24   C59   S    
C22   F4    S    
N24   Ni1   S    
C39   H34   S    
C102  H53   S    
C34   C36   A    
C56   C58   S    
C100  H51   S    
C67   C71   A    
C65   C66   A    
H65   O4    S    
C13   C97   A    
C77   F6    S    
C25   C49   A    
C47   C72   A    
O3    S4    D    
O4    S4    S    
C9    C84   A    
C63   C64   A    
C75   H26   S    
C84   H39   S    
C2    C67   S    
C40   C44   A    
C96   H47   S    
C76   H27   S    
C103  H54   S    
C16   C18   S    
C88   H43   S    
C54   H5    S    
C99   N19   A    
C70   C75   A    
C45   H31   S    
C7    C39   A    
C69   C74   A    
C12   C96   A    
C2    C81   A    
N1    Ni1   S    
C72   C100  A    
N21   N31   A    
N4    N13   A    
C48   H35   S    
C55   H6    S    
