data_mof_unit_53048.cif
_audit_creation_date              2012-12-10T17:47:38-0500
_audit_creation_method            fapswitch 2.2
_symmetry_space_group_name_H-M    P1
_symmetry_Int_Tables_number       1
_space_group_crystal_system       triclinic
_cell_length_a                    10.675409
_cell_length_b                    10.723248
_cell_length_c                    9.936388
_cell_angle_alpha                 92.45525
_cell_angle_beta                  91.275555
_cell_angle_gamma                 92.262974
_cell_volume                      1135.21121469

loop_
_atom_site_label
_atom_site_type_symbol
_atom_type_description
_atom_site_fract_x
_atom_site_fract_y
_atom_site_fract_z
_atom_type_partial_charge
C1    C     C_R   0.494140 0.260394 0.497132 0.825310
C2    C     C_R   0.619243 0.078845 0.535090 0.115842
C3    C     C_R   0.506360 0.128893 0.492105 -0.064765
C4    C     C_R   0.258080 0.495549 0.498886 0.815213
C5    C     C_R   0.402055 0.054094 0.452751 -0.240695
C6    C     C_R   0.407543 0.926794 0.459304 -0.149924
C7    C     C_R   0.515226 0.873900 0.510755 -0.107770
C8    C     C_R   0.344328 0.327660 0.129731 -0.164552
C9    C     C_R   0.266514 0.242495 0.054766 -0.192704
C10   C     C_R   0.265133 0.242552 0.915335 -0.190670
C11   C     C_R   0.341919 0.327416 0.849982 -0.153504
C12   C     C_3   0.879414 0.496112 0.499177 0.156274
C13   C     C_R   0.425005 0.412671 0.922351 0.174503
C14   C     C_R   0.425152 0.413018 0.066971 0.165620
C15   C     C_R   0.564198 0.588543 0.077688 -0.115425
C16   C     C_R   0.511878 0.739939 0.503432 0.879727
C17   C     C_R   0.560410 0.590611 0.935509 -0.110648
C18   C     C_R   0.742428 0.498454 0.500435 0.823755
C19   C     C_3   0.072844 0.457405 0.638019 -0.399971
C20   C     C_3   0.931475 0.466320 0.640662 -0.389833
C21   C     C_3   0.077744 0.627732 0.464796 -0.133091
C22   C     C_3   0.066811 0.398467 0.390615 -0.454277
C23   C     C_3   0.933365 0.624854 0.457400 -0.428637
C24   C     C_3   0.121877 0.495551 0.498395 0.154070
C25   C     C_1   0.745057 0.794029 0.682441 0.115099
C26   C     C_1   0.126336 0.725467 0.564355 0.135953
C27   C     C_3   0.922888 0.395977 0.393835 -0.393609
C28   C     C_R   0.727560 0.156814 0.560240 -0.171339
C29   C     C_R   0.840288 0.108446 0.599491 -0.194003
C30   C     C_R   0.844403 0.983679 0.626150 -0.155781
C31   C     C_R   0.736429 0.905613 0.611073 -0.018046
C32   C     C_R   0.623471 0.949461 0.553383 0.027609
H1    H     H_    0.114928 0.518799 0.721739 0.203323
H2    H     H_    0.616247 0.661708 0.135809 0.151830
H3    H     H_    0.098517 0.360025 0.657514 0.155905
H4    H     H_    0.335929 0.327121 0.236385 0.196403
H5    H     H_    0.204794 0.178072 0.105345 0.146983
H6    H     H_    0.202038 0.178322 0.857284 0.148604
H7    H     H_    0.329588 0.326468 0.743372 0.193342
H8    H     H_    0.600865 0.670491 0.890297 0.171224
H9    H     H_    0.888644 0.377603 0.675085 0.169348
H10   H     H_    0.909245 0.540361 0.716400 0.210590
H11   H     H_    0.896749 0.701296 0.520775 0.169483
H12   H     H_    0.885378 0.414181 0.291420 0.192821
H13   H     H_    0.097455 0.422861 0.288305 0.190668
H14   H     H_    0.100900 0.303882 0.409921 0.154523
H15   H     H_    0.888221 0.301208 0.417505 0.169005
H16   H     H_    0.113788 0.653042 0.364841 0.129791
H17   H     H_    0.901961 0.642010 0.352394 0.164703
H18   H     H_    0.316277 0.094524 0.417926 0.126709
H19   H     H_    0.725955 0.255651 0.547539 0.132913
H20   H     H_    0.923624 0.168451 0.615159 0.137941
H21   H     H_    0.931045 0.949592 0.667148 0.152928
H22   H     H_    0.326597 0.868804 0.424972 0.149496
N1    N     N_R   0.498810 0.498800 0.142780 -0.123543
N2    N     N_R   0.498760 0.498720 0.857170 -0.121198
N3    N     N_1   0.761277 0.707802 0.744635 -0.222503
N4    N     N_1   0.164191 0.801681 0.642470 -0.216267
O1    O     O_R   0.500000 0.316780 0.614690 -0.630891
O2    O     O_R   0.499990 0.316750 0.385360 -0.631087
O3    O     O_R   0.314800 0.499990 0.614670 -0.638591
O4    O     O_R   0.314790 0.499970 0.385330 -0.645554
O5    O     O_R   0.500010 0.683250 0.614640 -0.593585
O6    O     O_R   0.500000 0.683220 0.385310 -0.615998
O7    O     O_R   0.685210 0.500030 0.614670 -0.602388
O8    O     O_R   0.685200 0.500010 0.385330 -0.626127
Zn1   Zn    Zn3+2 0.500010 0.500020 0.653130 0.956213
Zn2   Zn    Zn3+2 0.499990 0.499980 0.346870 0.933257

loop_
_geom_bond_atom_site_label_1
_geom_bond_atom_site_label_2
_ccdc_geom_bond_type
C25   C31   S    
O8    Zn2   S    
C21   C26   S    
C6    C7    A    
C16   O5    A    
C18   O8    A    
N2    Zn1   S    
C26   N4    T    
C9    C10   A    
O3    Zn1   S    
C15   H2    S    
C20   H10   S    
C19   C20   S    
C17   N2    A    
O4    Zn2   S    
C30   C31   A    
C10   H6    S    
C21   H16   S    
O1    Zn1   S    
C13   N2    A    
C9    H5    S    
C2    C3    A    
C19   H3    S    
C13   C14   A    
C18   O7    A    
C11   H7    S    
C11   C13   A    
C12   C23   S    
C12   C20   S    
C29   C30   A    
C25   N3    T    
C6    H22   S    
C20   H9    S    
O6    Zn2   S    
C28   C29   A    
C22   H14   S    
C14   N1    A    
C22   C24   S    
C22   C27   S    
C1    O1    A    
C21   C23   S    
C8    H4    S    
C5    C6    A    
C4    C24   S    
C30   H21   S    
O5    Zn1   S    
C5    H18   S    
C23   H17   S    
C2    C28   A    
C10   C11   A    
C21   C24   S    
C12   C27   S    
C27   H15   S    
C4    O4    A    
C22   H13   S    
C23   H11   S    
O2    Zn2   S    
C2    C32   A    
C19   H1    S    
C1    O2    A    
C12   C18   S    
C15   C17   A    
N1    Zn2   S    
C7    C16   S    
O7    Zn1   S    
C8    C14   A    
C7    C32   A    
C16   O6    A    
C3    C5    A    
C28   H19   S    
C27   H12   S    
C19   C24   S    
C4    O3    A    
C29   H20   S    
C31   C32   A    
C8    C9    A    
C1    C3    S    
C17   H8    S    
C15   N1    A    
