data_mof_unit_32746.cif
_audit_creation_date              2012-12-10T17:56:18-0500
_audit_creation_method            fapswitch 2.2
_symmetry_space_group_name_H-M    P1
_symmetry_Int_Tables_number       1
_space_group_crystal_system       triclinic
_cell_length_a                    12.983089
_cell_length_b                    10.788919
_cell_length_c                    9.534353
_cell_angle_alpha                 90.852349
_cell_angle_beta                  97.746704
_cell_angle_gamma                 90.74105
_cell_volume                      1323.0249841

loop_
_atom_site_label
_atom_site_type_symbol
_atom_type_description
_atom_site_fract_x
_atom_site_fract_y
_atom_site_fract_z
_atom_type_partial_charge
C1    C     C_R   0.501255 0.262303 0.499149 0.844333
C2    C     C_R   0.498749 0.737697 0.500851 0.844314
C3    C     C_R   0.498330 0.871499 0.502318 -0.145557
C4    C     C_R   0.501673 0.128501 0.497682 -0.145550
C5    C     C_R   0.433587 0.423530 0.059094 0.368260
C6    C     C_R   0.566413 0.576470 0.940906 0.368264
C7    C     C_R   0.434081 0.423986 0.911020 -0.081142
C8    C     C_R   0.565919 0.576013 0.088980 -0.081160
C9    C     C_R   0.300245 0.505500 0.471348 0.830188
C10   C     C_R   0.699754 0.494495 0.528653 0.830192
C11   C     C_R   0.813606 0.485637 0.548521 -0.105916
C12   C     C_R   0.186395 0.514363 0.451487 -0.105909
C13   C     C_R   0.020563 0.595422 0.342355 0.252349
C14   C     C_R   0.979441 0.404597 0.657667 0.252346
C15   C     C_R   0.129048 0.583814 0.342346 0.047973
C16   C     C_R   0.870953 0.416185 0.657661 0.048003
C17   C     C_R   0.135688 0.455389 0.552419 -0.200359
C18   C     C_R   0.864315 0.544620 0.447597 -0.200363
C19   C     C_R   0.028896 0.464514 0.552797 0.042855
C20   C     C_R   0.971108 0.535504 0.447226 0.042859
C21   C     C_R   0.558311 0.061362 0.407026 0.274477
C22   C     C_R   0.441692 0.938638 0.592973 0.274490
C23   C     C_R   0.555734 0.933117 0.409787 -0.228797
C24   C     C_R   0.444269 0.066883 0.590212 -0.228795
Cu1   Cu    Cu3+1 0.500000 0.500020 0.640660 1.010503
Cu2   Cu    Cu3+1 0.500000 0.499980 0.359340 1.010500
H1    H     H_    0.817918 0.597703 0.367930 0.204524
H2    H     H_    0.182084 0.402302 0.632083 0.204522
H3    H     H_    0.600243 0.881275 0.341081 0.196287
H4    H     H_    0.399758 0.118725 0.658916 0.196285
H5    H     H_    0.381552 0.363116 0.843246 0.177200
H6    H     H_    0.618448 0.636884 0.156753 0.177202
N1    N     N_R   0.500030 0.500030 0.852080 -0.211838
N2    N     N_R   0.499970 0.499970 0.147920 -0.211837
O1    O     O_R   0.499990 0.319660 0.618740 -0.608991
O2    O     O_R   0.500010 0.680340 0.381260 -0.608993
O3    O     O_R   0.499990 0.319630 0.381170 -0.504003
O4    O     O_R   0.500010 0.680370 0.618830 -0.504000
O5    O     O_R   0.349000 0.499990 0.599490 -0.575079
O6    O     O_R   0.651000 0.500010 0.400510 -0.575078
O7    O     O_R   0.348990 0.499960 0.361920 -0.562379
O8    O     O_R   0.651010 0.500040 0.638080 -0.562384
C25   C     C_3   0.817473 0.349235 0.768591 -0.346472
C26   C     C_3   0.764889 0.228295 0.707852 -0.361483
C27   C     C_3   0.703714 0.166274 0.814196 -0.692647
H7    H     H_    0.641725 0.228434 0.842028 0.259905
H8    H     H_    0.666905 0.079050 0.767142 0.256931
H9    H     H_    0.756293 0.143594 0.911929 0.280900
H10   H     H_    0.711357 0.246825 0.609993 0.218982
H11   H     H_    0.825084 0.163494 0.679827 0.263213
H12   H     H_    0.872373 0.327170 0.863658 0.246355
H13   H     H_    0.762050 0.410269 0.813511 0.235675
C28   C     C_3   0.182527 0.650726 0.231387 -0.346436
C29   C     C_3   0.235164 0.771648 0.292093 -0.361467
C30   C     C_3   0.296318 0.833638 0.185704 -0.692589
H14   H     H_    0.358307 0.771471 0.157879 0.259902
H15   H     H_    0.243723 0.856293 0.087975 0.280890
H16   H     H_    0.333128 0.920875 0.232726 0.256928
H17   H     H_    0.175002 0.836475 0.320160 0.263188
H18   H     H_    0.288721 0.753102 0.389923 0.218969
H19   H     H_    0.237911 0.589649 0.186447 0.235685
H20   H     H_    0.127616 0.672808 0.136338 0.246345
Br1   Br    Br    0.940368 0.698702 0.203276 -0.487289
Br2   Br    Br    0.059640 0.301335 0.796764 -0.487309
Br3   Br    Br    0.645696 0.137957 0.284324 -0.474117
Br4   Br    Br    0.354304 0.862043 0.715672 -0.474119
Br5   Br    Br    0.336942 0.311574 0.127454 -0.424870
Br6   Br    Br    0.663060 0.688424 0.872546 -0.424868

loop_
_geom_bond_atom_site_label_1
_geom_bond_atom_site_label_2
_ccdc_geom_bond_type
C26   H10   S    
C12   C17   A    
C30   H14   S    
C6    N1    A    
C11   C18   A    
C14   C16   A    
C8    N2    A    
Cu1   O4    S    
C10   O8    A    
C28   H20   S    
C2    O4    A    
C3    C23   A    
C19   C20   A    
C13   Br1   S    
C12   C15   A    
C1    O3    A    
C5    Br5   S    
C1    C4    S    
C14   Br2   S    
C5    N2    A    
C6    Br6   S    
C2    C3    S    
Cu2   O3    S    
C30   H15   S    
C29   H18   S    
C27   H7    S    
Cu1   O5    S    
C4    C21   A    
C7    N1    A    
C16   C25   S    
C25   H12   S    
Cu1   O8    S    
C28   H19   S    
Cu1   O1    S    
C15   C28   S    
Cu2   O2    S    
C17   C19   A    
C18   C20   A    
C29   H17   S    
C27   H8    S    
C13   C15   A    
C25   C26   S    
C4    C24   A    
C9    C12   S    
C22   C24   A    
C25   H13   S    
C30   H16   S    
C24   H4    S    
C7    H5    S    
C10   C11   S    
C26   H11   S    
C8    H6    S    
C23   H3    S    
Cu2   O6    S    
C26   C27   S    
C1    O1    A    
C10   O6    A    
C11   C16   A    
C27   H9    S    
C2    O2    A    
C5    C7    A    
C29   C30   S    
C22   Br4   S    
C3    C22   A    
C6    C8    A    
C14   C19   A    
C13   C20   A    
C21   Br3   S    
Cu1   Cu2   S    
C28   C29   S    
C17   H2    S    
C9    O7    A    
C21   C23   A    
Cu2   N2    S    
C9    O5    A    
C18   H1    S    
Cu2   O7    S    
Cu1   N1    S    
