data_mof_unit_25300.cif
_audit_creation_date              2012-10-26T19:42:42-0400
_audit_creation_method            fapswitch 2.2
_symmetry_space_group_name_H-M    P1
_symmetry_Int_Tables_number       1
_space_group_crystal_system       triclinic
_cell_length_a                    19.300719
_cell_length_b                    10.864385
_cell_length_c                    9.590632
_cell_angle_alpha                 89.545369
_cell_angle_beta                  88.985616
_cell_angle_gamma                 95.254801
_cell_volume                      2002.20580519

loop_
_atom_site_label
_atom_site_type_symbol
_atom_type_description
_atom_site_fract_x
_atom_site_fract_y
_atom_site_fract_z
_atom_type_partial_charge
Br1   Br    Br    0.344433 0.234979 0.667611 -0.627083
Br2   Br    Br    0.519841 0.881037 0.194377 -0.523233
Br3   Br    Br    0.628005 0.750051 0.711671 -0.520278
C1    C     C_R   0.492063 0.262212 0.500787 0.582683
C2    C     C_R   0.855161 0.509939 0.489686 0.030784
C3    C     C_R   0.402663 0.108305 0.713005 0.115484
C4    C     C_R   0.367818 0.501258 0.500548 0.576543
C5    C     C_R   0.384181 0.044870 0.836559 -0.059449
C6    C     C_R   0.396438 0.921786 0.851234 0.271280
C7    C     C_R   0.425908 0.861529 0.739743 -0.086776
C8    C     C_R   0.452355 0.927263 0.617860 -0.056554
C9    C     C_R   0.445440 0.056486 0.611494 0.024835
C10   C     C_R   0.478507 0.127112 0.499987 -0.007214
C11   C     C_R   0.500866 0.067660 0.382160 -0.125895
C12   C     C_R   0.292454 0.505150 0.498933 -0.032613
C13   C     C_R   0.498891 0.941118 0.377162 0.133251
C14   C     C_R   0.481960 0.869199 0.499328 0.020373
C15   C     C_R   0.606129 0.637074 0.145010 -0.047621
C16   C     C_R   0.493777 0.736704 0.499761 0.581454
C17   C     C_R   0.669787 0.674324 0.081147 0.205171
C18   C     C_R   0.676910 0.657223 0.939919 -0.117149
C19   C     C_R   0.617681 0.629505 0.860392 0.143555
C20   C     C_R   0.555067 0.566928 0.923952 0.162945
C21   C     C_R   0.553072 0.567317 0.073823 0.113015
C22   C     C_R   0.448783 0.437045 0.076249 0.005740
C23   C     C_R   0.931840 0.517528 0.486794 0.332390
C24   C     C_R   0.448384 0.438318 0.928647 -0.006946
C25   C     C_R   0.632541 0.498396 0.498764 0.569514
C26   C     C_R   0.259457 0.576112 0.595452 -0.130819
C27   C     C_R   0.188849 0.591603 0.583877 0.214785
C28   C     C_R   0.149115 0.525982 0.480894 0.036205
C29   C     C_R   0.182746 0.456989 0.379884 0.224102
C30   C     C_R   0.254415 0.445689 0.392286 -0.126558
C31   C     C_3   0.315311 0.790307 0.970133 0.011948
C32   C     C_3   0.258339 0.862613 0.034330 -0.274388
C33   C     C_3   0.189900 0.781547 0.053050 -0.475447
C34   C     C_R   0.072732 0.526528 0.482144 0.371896
C35   C     C_3   0.715022 0.840141 0.212125 0.022659
C36   C     C_3   0.716975 0.941587 0.099217 -0.256138
C37   C     C_3   0.710743 0.068296 0.163481 -0.460849
C38   C     C_3   0.149501 0.783362 0.606366 0.014318
C39   C     C_3   0.217360 0.868919 0.594766 -0.289728
C40   C     C_3   0.205402 0.990880 0.523204 -0.451129
C41   C     C_3   0.178149 0.399572 0.146298 0.005051
C42   C     C_3   0.124410 0.390145 0.030965 -0.248560
C43   C     C_3   0.159626 0.394687 0.886966 -0.455022
C44   C     C_R   0.818356 0.507777 0.617472 -0.119230
C45   C     C_R   0.745948 0.501448 0.620385 -0.117986
C46   C     C_R   0.708863 0.498453 0.495751 0.023048
C47   C     C_R   0.745493 0.497078 0.368115 -0.108095
C48   C     C_R   0.817954 0.503409 0.364987 -0.102626
Cu1   Cu    Cu3+1 0.500000 0.499990 0.640660 1.009753
Cu2   Cu    Cu3+1 0.500000 0.500010 0.359340 0.969646
H1    H     H_    0.289311 0.624906 0.675583 0.116782
H2    H     H_    0.719169 0.499196 0.720416 0.135997
H3    H     H_    0.718265 0.491373 0.270423 0.155253
H4    H     H_    0.844692 0.503395 0.264779 0.147383
H5    H     H_    0.520860 0.120385 0.291346 0.168658
H6    H     H_    0.318790 0.704529 0.032548 0.162733
H7    H     H_    0.300804 0.760201 0.862948 0.101802
H8    H     H_    0.275115 0.898676 0.137746 0.187337
H9    H     H_    0.249707 0.942313 0.965564 0.150652
H10   H     H_    0.173033 0.740823 0.951979 0.198241
H11   H     H_    0.148985 0.838280 0.093026 0.155601
H12   H     H_    0.354915 0.088090 0.916944 0.136141
H13   H     H_    0.195951 0.706286 0.129598 0.146562
H14   H     H_    0.757741 0.864924 0.285766 0.168313
H15   H     H_    0.666213 0.837322 0.275537 0.160081
H16   H     H_    0.766708 0.943614 0.038672 0.177129
H17   H     H_    0.673301 0.921623 0.026423 0.213539
H18   H     H_    0.661026 0.068571 0.223602 0.179478
H19   H     H_    0.711651 0.139393 0.079491 0.158188
H20   H     H_    0.754906 0.092690 0.233837 0.150654
H21   H     H_    0.111188 0.830710 0.669247 0.166809
H22   H     H_    0.126415 0.768733 0.501393 0.130228
H23   H     H_    0.424700 0.763384 0.753325 0.168318
H24   H     H_    0.238098 0.887979 0.700459 0.169640
H25   H     H_    0.256936 0.824010 0.532672 0.157773
H26   H     H_    0.182804 0.973773 0.418620 0.146495
H27   H     H_    0.255808 0.047728 0.509294 0.200749
H28   H     H_    0.169768 0.042887 0.587466 0.169724
H29   H     H_    0.210446 0.320187 0.137473 0.134534
H30   H     H_    0.211931 0.487681 0.129955 0.110431
H31   H     H_    0.090648 0.302034 0.042968 0.182013
H32   H     H_    0.091193 0.468202 0.039870 0.199217
H33   H     H_    0.193426 0.482450 0.872980 0.176573
H34   H     H_    0.406872 0.384810 0.133209 0.111026
H35   H     H_    0.119483 0.389543 0.805211 0.188864
H36   H     H_    0.191704 0.315543 0.874159 0.164696
H37   H     H_    0.599571 0.664365 0.249975 0.205165
H38   H     H_    0.725926 0.692201 0.890678 0.167693
H39   H     H_    0.405914 0.388077 0.876241 0.159505
H40   H     H_    0.280804 0.388987 0.319947 0.122337
H41   H     H_    0.845371 0.511151 0.715552 0.139323
N1    N     N_R   0.036912 0.522294 0.361561 -0.184788
N2    N     N_R   0.967803 0.517925 0.363835 -0.236667
N3    N     N_R   0.967798 0.522996 0.607275 -0.238701
N4    N     N_R   0.036878 0.527341 0.604997 -0.198500
N5    N     N_R   0.500660 0.501210 0.147910 -0.236352
N6    N     N_R   0.500680 0.501290 0.852040 -0.235013
O1    O     O_R   0.499990 0.319640 0.618810 -0.464220
O2    O     O_3   0.726796 0.723852 0.154919 -0.581723
O3    O     O_3   0.159562 0.670768 0.675690 -0.579075
O4    O     O_3   0.143320 0.394355 0.277796 -0.543616
O5    O     O_R   0.500000 0.319660 0.381240 -0.513357
O6    O     O_R   0.400140 0.499970 0.618820 -0.485794
O7    O     O_R   0.400150 0.500000 0.381250 -0.509467
O8    O     O_R   0.500000 0.680340 0.618760 -0.475880
O9    O     O_R   0.500010 0.680360 0.381190 -0.473298
O10   O     O_R   0.599850 0.500000 0.618750 -0.472918
O11   O     O_R   0.599860 0.500030 0.381180 -0.536948
O12   O     O_3   0.380627 0.860531 0.976422 -0.520362

loop_
_geom_bond_atom_site_label_1
_geom_bond_atom_site_label_2
_ccdc_geom_bond_type
C45   H2    S    
C37   H18   S    
C21   N5    A    
C31   O12   S    
C38   C39   S    
C32   C33   S    
C41   H30   S    
N3    N4    A    
C41   O4    S    
C43   H36   S    
C42   C43   S    
Cu2   N5    S    
C9    C10   A    
C2    C44   A    
C15   C21   A    
C41   H29   S    
C3    C9    A    
C35   C36   S    
C33   H13   S    
C17   O2    S    
C26   H1    S    
C40   H26   S    
C24   N6    A    
C22   H34   S    
C37   H20   S    
C34   N1    A    
C31   C32   S    
C1    C10   S    
C38   H21   S    
C7    H23   S    
C22   N5    A    
C28   C29   A    
C5    C6    A    
C27   O3    S    
C20   C21   A    
C29   O4    S    
C48   H4    S    
C33   H10   S    
Br2   C13   S    
C6    C7    A    
C15   C17   A    
C16   O8    A    
Cu2   O11   S    
C6    O12   S    
C4    C12   S    
C20   N6    A    
Cu1   O6    S    
C5    H12   S    
C10   C11   A    
C31   H7    S    
C34   N4    A    
C12   C26   A    
C43   H35   S    
C16   O9    A    
C25   O11   A    
C23   N2    A    
C11   H5    S    
Cu1   O1    S    
Br1   C3    S    
C15   H37   S    
C36   C37   S    
C13   C14   A    
C3    C5    A    
C25   O10   A    
C40   H27   S    
Cu1   N6    S    
C47   H3    S    
C38   O3    S    
C42   H32   S    
C26   C27   A    
Cu2   O5    S    
C38   H22   S    
C25   C46   S    
Cu2   O7    S    
C44   C45   A    
Cu1   O10   S    
C1    O1    A    
C47   C48   A    
C36   H16   S    
C4    O6    A    
C24   H39   S    
C32   H8    S    
C17   C18   A    
C45   C46   A    
C35   H15   S    
C39   H25   S    
C31   H6    S    
C40   H28   S    
C4    O7    A    
C42   H31   S    
C39   C40   S    
Cu1   Cu2   S    
C18   H38   S    
Cu2   O9    S    
C8    C14   A    
C37   H19   S    
C41   C42   S    
C30   H40   S    
C8    C9    A    
C22   C24   A    
C1    O5    A    
C29   C30   A    
C35   O2    S    
C33   H11   S    
C27   C28   A    
C14   C16   S    
C36   H17   S    
C32   H9    S    
C11   C13   A    
C7    C8    A    
C23   N3    A    
C2    C23   S    
C28   C34   S    
C35   H14   S    
Cu1   O8    S    
C39   H24   S    
C46   C47   A    
N1    N2    A    
C19   C20   A    
C2    C48   A    
Br3   C19   S    
C18   C19   A    
C12   C30   A    
C44   H41   S    
C43   H33   S    
