data_mof_unit_50206.cif
_audit_creation_date              2012-12-10T18:00:16-0500
_audit_creation_method            fapswitch 2.2
_symmetry_space_group_name_H-M    P1
_symmetry_Int_Tables_number       1
_space_group_crystal_system       triclinic
_cell_length_a                    10.89041
_cell_length_b                    9.512047
_cell_length_c                    10.671355
_cell_angle_alpha                 90.042935
_cell_angle_beta                  91.724647
_cell_angle_gamma                 91.47806
_cell_volume                      1104.57695301

loop_
_atom_site_label
_atom_site_type_symbol
_atom_type_description
_atom_site_fract_x
_atom_site_fract_y
_atom_site_fract_z
_atom_type_partial_charge
C1    C     C_R   0.872099 0.507338 0.487681 -0.214745
C2    C     C_R   0.127901 0.492660 0.512324 -0.214738
C3    C     C_R   0.262110 0.497589 0.506031 0.838330
C4    C     C_R   0.737890 0.502410 0.493970 0.838361
C5    C     C_R   0.495569 0.500085 0.259490 0.845250
C6    C     C_R   0.504423 0.499915 0.740510 0.845293
C7    C     C_3   0.467250 0.626408 0.037249 0.449328
C8    C     C_3   0.532727 0.373593 0.962749 0.449329
C9    C     C_3   0.582629 0.595603 0.964642 0.443655
C10   C     C_3   0.417348 0.404395 0.035355 0.443534
C11   C     C_3   0.387152 0.529502 0.948462 -0.481025
C12   C     C_3   0.612827 0.470496 0.051532 -0.481007
C13   C     C_3   0.504420 0.499074 0.876601 -0.234222
C14   C     C_3   0.495559 0.500926 0.123397 -0.234344
C15   C     C_R   0.446580 0.072655 0.402775 0.021978
C16   C     C_R   0.553420 0.927345 0.597225 0.022036
C17   C     C_R   0.554061 0.076106 0.596832 0.048207
C18   C     C_R   0.445942 0.923894 0.403167 0.048148
C19   C     C_R   0.057852 0.375280 0.464808 0.110403
C20   C     C_R   0.942148 0.624716 0.535201 0.110380
C21   C     C_R   0.931372 0.387439 0.443889 0.129585
C22   C     C_R   0.068629 0.612556 0.556119 0.129589
Cu1   Cu    Cu3+1 0.500000 0.640660 0.500000 1.002572
Cu2   Cu    Cu3+1 0.500000 0.359340 0.500000 1.002572
H1    H     H_    0.403419 0.127065 0.324896 0.146222
H2    H     H_    0.596580 0.872935 0.675105 0.146258
H3    H     H_    0.598263 0.133439 0.673841 0.162841
H4    H     H_    0.401746 0.866557 0.326159 0.162834
H5    H     H_    0.296117 0.549310 0.903178 0.180355
H6    H     H_    0.703861 0.450681 0.096813 0.180357
N1    N     N_R   0.500000 0.852070 0.500000 -0.164957
N2    N     N_R   0.500000 0.147930 0.500000 -0.164951
O1    O     O_R   0.319640 0.618740 0.499990 -0.556517
O2    O     O_R   0.680360 0.381260 0.500010 -0.556504
O3    O     O_R   0.680360 0.618740 0.500010 -0.564839
O4    O     O_R   0.319640 0.381260 0.499990 -0.564837
O5    O     O_R   0.499970 0.618770 0.316850 -0.553142
O6    O     O_R   0.500030 0.381230 0.683150 -0.553136
O7    O     O_R   0.500030 0.618770 0.683150 -0.588295
O8    O     O_R   0.499970 0.381230 0.316850 -0.588336
O9    O     O_3   0.439561 0.759888 0.085555 -0.570253
C23   C     C_3   0.353051 0.825182 0.005438 0.027877
H7    H     H_    0.264199 0.764632 0.002631 0.158013
H8    H     H_    0.388404 0.835715 0.908899 0.184437
C24   C     C_3   0.327698 0.970810 0.055279 -0.685723
H9    H     H_    0.414987 0.031740 0.070225 0.274406
H10   H     H_    0.268027 0.027093 0.986805 0.249211
H11   H     H_    0.280192 0.962488 0.145678 0.222402
O10   O     O_3   0.560442 0.240128 0.914433 -0.570243
C25   C     C_3   0.646652 0.174653 0.994778 0.027965
H12   H     H_    0.611029 0.164143 0.091214 0.184328
H13   H     H_    0.735582 0.235051 0.997850 0.158124
C26   C     C_3   0.671948 0.029001 0.944962 -0.685446
H14   H     H_    0.719561 0.037274 0.854632 0.222458
H15   H     H_    0.731494 0.972656 0.013496 0.249292
H16   H     H_    0.584636 0.968165 0.929911 0.274414
O11   O     O_3   0.667577 0.701018 0.928492 -0.577798
C27   C     C_3   0.766502 0.640625 0.866637 0.055039
H17   H     H_    0.750533 0.650509 0.763988 0.174707
H18   H     H_    0.779845 0.527105 0.887536 0.125638
C28   C     C_3   0.885102 0.719169 0.904788 -0.736457
H19   H     H_    0.899326 0.715436 0.008221 0.247564
H20   H     H_    0.963747 0.668922 0.860520 0.221582
H21   H     H_    0.881341 0.830529 0.874206 0.264178
O12   O     O_3   0.332389 0.298985 0.071490 -0.577769
C29   C     C_3   0.233498 0.359388 0.133409 0.055072
H22   H     H_    0.220133 0.472916 0.112505 0.125563
H23   H     H_    0.249524 0.349512 0.236066 0.174666
C30   C     C_3   0.114891 0.280825 0.095333 -0.736391
H24   H     H_    0.118639 0.169503 0.126032 0.264161
H25   H     H_    0.036257 0.331151 0.139563 0.221560
H26   H     H_    0.100662 0.284415 0.991896 0.247631
I1    I     I_    0.131280 0.168783 0.440673 -0.294670
I2    I     I_    0.868720 0.831209 0.559356 -0.294634
I3    I     I_    0.834743 0.234065 0.324718 -0.361392
I4    I     I_    0.165257 0.765922 0.675297 -0.361337

loop_
_geom_bond_atom_site_label_1
_geom_bond_atom_site_label_2
_ccdc_geom_bond_type
C15   C18   A    
C29   H23   S    
C1    C21   A    
C8    C13   S    
C5    O5    A    
C28   H21   S    
O9    C23   S    
C22   I4    S    
C15   N2    A    
C24   H9    S    
C16   N1    A    
C7    C11   S    
Cu2   O4    S    
C19   C21   A    
C15   H1    S    
C29   C30   S    
C3    O1    A    
C27   H18   S    
C28   H20   S    
C30   H25   S    
C9    C13   S    
C7    C14   S    
C16   C17   A    
Cu1   O1    S    
C2    C22   A    
C25   H13   S    
Cu1   Cu2   S    
C6    O6    A    
C27   C28   S    
C26   H15   S    
C29   H22   S    
C4    O3    A    
C30   H24   S    
C23   H8    S    
C10   O12   S    
C24   H10   S    
C16   H2    S    
C4    O2    A    
C25   C26   S    
C17   H3    S    
C19   I1    S    
C18   H4    S    
C10   C14   S    
C24   H11   S    
C27   H17   S    
Cu1   O5    S    
Cu2   O2    S    
C23   C24   S    
Cu1   N1    S    
C30   H26   S    
Cu2   N2    S    
Cu2   O6    S    
C8    C12   S    
C25   H12   S    
C20   I2    S    
C5    C14   S    
C20   C22   A    
O10   C25   S    
Cu1   O3    S    
C23   H7    S    
C26   H16   S    
C7    C9    S    
C1    C20   A    
C12   H6    S    
C2    C19   A    
C12   C14   S    
C26   H14   S    
C21   I3    S    
C1    C4    S    
C2    C3    S    
C6    C13   S    
C11   C13   S    
O11   C27   S    
C3    O4    A    
Cu1   O7    S    
Cu2   O8    S    
C9    O11   S    
C7    O9    S    
C28   H19   S    
C9    C12   S    
C10   C11   S    
C11   H5    S    
C8    C10   S    
O12   C29   S    
C5    O8    A    
C17   N2    A    
C6    O7    A    
C18   N1    A    
C8    O10   S    
