data_mof_unit_52283.cif
_audit_creation_date              2012-12-11T16:35:16-0500
_audit_creation_method            fapswitch 2.2
_symmetry_space_group_name_H-M    P1
_symmetry_Int_Tables_number       1
_space_group_crystal_system       triclinic
_cell_length_a                    6.931437
_cell_length_b                    17.834289
_cell_length_c                    19.358638
_cell_angle_alpha                 108.773302
_cell_angle_beta                  90.831687
_cell_angle_gamma                 90.52976
_cell_volume                      2265.2655922

loop_
_atom_site_label
_atom_site_type_symbol
_atom_type_description
_atom_site_fract_x
_atom_site_fract_y
_atom_site_fract_z
_atom_type_partial_charge
O1    O     O_R   0.505700 0.440210 0.561730 -0.539428
O2    O     O_R   0.169350 0.406300 0.412660 -0.536678
O3    O     O_R   0.005650 0.559790 0.438270 -0.542752
C1    C     C_R   0.337986 0.383481 0.384848 0.692519
O4    O     O_R   0.175560 0.430650 0.559600 -0.543319
O5    O     O_R   0.011900 0.584320 0.586250 -0.539386
C2    C     C_R   0.345291 0.413772 0.579314 0.702604
O6    O     O_R   0.499450 0.415680 0.413750 -0.535020
O7    O     O_3   0.341370 0.550390 0.508570 -0.369972
V1    V     V_3+5 0.063940 0.490650 0.498410 1.421230
O8    O     O_R   0.682570 0.593700 0.587340 -0.539876
C3    C     C_R   0.853658 0.614173 0.616777 0.695231
O9    O     O_R   0.676370 0.569350 0.440400 -0.541623
C4    C     C_R   0.844753 0.584749 0.418988 0.703830
V2    V     V_3+5 0.564750 0.509350 0.501590 1.425951
O10   O     O_3   0.837190 0.449610 0.491430 -0.366766
C5    C     C_R   0.024571 0.680576 0.282178 -0.151865
H1    H     H_    0.152419 0.678411 0.250081 0.136251
C6    C     C_R   0.018226 0.635247 0.329154 -0.127452
H2    H     H_    0.141459 0.599415 0.332114 0.138947
C7    C     C_R   0.853713 0.634767 0.370485 -0.070461
C8    C     C_R   0.697169 0.682209 0.364883 -0.146692
H3    H     H_    0.571022 0.683423 0.397616 0.116173
C9    C     C_R   0.702635 0.729600 0.318885 0.197827
C10   C     C_R   0.867896 0.727486 0.275552 0.080166
C11   C     C_R   0.751424 0.762889 0.165830 -0.105757
H4    H     H_    0.637365 0.718650 0.156295 0.131339
C12   C     C_R   0.765344 0.808631 0.119131 -0.128487
H5    H     H_    0.659317 0.799882 0.075482 0.113387
C13   C     C_R   0.916280 0.864372 0.128071 -0.022841
C14   C     C_R   0.052606 0.873235 0.184552 -0.131260
H6    H     H_    0.168294 0.916244 0.193195 0.164412
C15   C     C_R   0.036243 0.828916 0.232270 -0.168594
H7    H     H_    0.140736 0.838442 0.276481 0.120660
C16   C     C_R   0.883910 0.774032 0.224101 0.085526
H8    H     H_    0.620851 0.659848 0.935281 0.124149
C17   C     C_R   0.993235 0.899814 0.735850 0.220739
C18   C     C_R   0.047463 0.903604 0.667852 -0.082202
C19   C     C_R   0.045072 0.836520 0.607151 -0.179935
C20   C     C_R   0.985748 0.764590 0.613148 -0.139779
C21   C     C_R   0.935082 0.757081 0.681354 0.041229
C22   C     C_R   0.944374 0.825506 0.745329 0.017886
C23   C     C_R   0.875611 0.682299 0.685510 -0.163822
C24   C     C_R   0.834811 0.673997 0.754590 0.061455
C25   C     C_R   0.825065 0.743204 0.816945 0.036542
C26   C     C_R   0.896407 0.817218 0.814251 -0.165868
C27   C     C_R   0.811072 0.598760 0.765631 0.116961
C28   C     C_R   0.719292 0.595043 0.828618 -0.136523
C29   C     C_R   0.683938 0.663587 0.885625 -0.148768
C30   C     C_R   0.746873 0.736255 0.881891 -0.157551
H9    H     H_    0.085700 0.959934 0.661284 0.183949
H10   H     H_    0.084241 0.840655 0.554532 0.136666
H11   H     H_    0.980944 0.715011 0.563148 0.114487
H12   H     H_    0.690798 0.538629 0.836693 0.111024
H13   H     H_    0.730514 0.786613 0.930482 0.106888
C31   C     C_R   0.264127 0.221746 0.378924 -0.146951
C32   C     C_R   0.253312 0.145363 0.382304 -0.141408
C33   C     C_R   0.316582 0.082472 0.324568 -0.108168
C34   C     C_R   0.384618 0.094260 0.261189 0.203604
C35   C     C_R   0.378928 0.171143 0.252763 0.027343
C36   C     C_R   0.328936 0.236508 0.315553 0.047462
C37   C     C_R   0.417648 0.185393 0.185276 -0.141667
C38   C     C_R   0.417605 0.265413 0.184530 0.009350
C39   C     C_R   0.413842 0.329139 0.251198 0.005978
C40   C     C_R   0.353315 0.315488 0.315701 -0.123052
C41   C     C_R   0.413891 0.285146 0.119176 0.137067
C42   C     C_R   0.477935 0.360470 0.119189 0.122513
C43   C     C_R   0.509266 0.420373 0.186401 0.272184
C44   C     C_R   0.463620 0.406085 0.250940 -0.212453
H14   H     H_    0.221499 0.269087 0.426861 0.113376
H15   H     H_    0.202996 0.135270 0.431315 0.154816
H16   H     H_    0.318139 0.023988 0.330153 0.138876
H17   H     H_    0.471086 0.455911 0.300765 0.152142
C45   C     C_R   0.517189 0.328029 0.724194 -0.168304
H18   H     H_    0.633704 0.339608 0.764306 0.118804
C46   C     C_R   0.509433 0.372836 0.676925 -0.156046
H19   H     H_    0.619377 0.417478 0.681497 0.117381
C47   C     C_R   0.357067 0.362621 0.626231 -0.100993
C48   C     C_R   0.215299 0.304538 0.621914 -0.187424
H20   H     H_    0.099030 0.294554 0.581825 0.150875
C49   C     C_R   0.225296 0.257201 0.667416 0.284989
C50   C     C_R   0.375293 0.269973 0.720757 0.040070
C51   C     C_R   0.226611 0.213036 0.811555 -0.091470
H21   H     H_    0.089819 0.239139 0.805246 0.131853
C52   C     C_R   0.239285 0.168363 0.859029 -0.063969
H22   H     H_    0.110629 0.160409 0.887014 0.178186
C53   C     C_R   0.415511 0.135427 0.870950 -0.045776
C54   C     C_R   0.580104 0.151583 0.836358 -0.154905
H23   H     H_    0.719577 0.130894 0.846832 0.178835
C55   C     C_R   0.566471 0.194182 0.787132 -0.120630
H24   H     H_    0.695363 0.203351 0.759803 0.164078
C56   C     C_R   0.388530 0.224072 0.772903 0.102766
O11   O     O_R   0.273230 0.084330 0.086440 -0.513674
O12   O     O_R   0.596660 0.069390 0.940470 -0.537918
O13   O     O_R   0.760270 0.915710 0.913690 -0.539721
C57   C     C_R   0.427154 0.084614 0.918889 0.775920
O14   O     O_R   0.603330 0.093680 0.087390 -0.524457
O15   O     O_R   0.766990 0.940160 0.061660 -0.521220
C58   C     C_R   0.434236 0.117723 0.115091 0.830862
O16   O     O_R   0.266510 0.059870 0.938470 -0.508949
O17   O     O_3   0.431050 0.949630 0.991510 -0.374427
V3    V     V_3+5 0.708490 0.009340 0.001580 1.558964
O18   O     O_R   0.096270 0.930570 0.059390 -0.542756
C59   C     C_R   0.927557 0.914682 0.080225 0.699380
O19   O     O_R   0.089600 0.906290 0.912460 -0.536097
C60   C     C_R   0.918015 0.884157 0.884081 0.757460
V4    V     V_3+5 0.207670 0.990600 0.998190 1.553473
O20   O     O_3   0.935250 0.050360 0.008480 -0.339364
Br1   Br    Br    0.964389 0.002049 0.806430 -0.606452
C61   C     C_3   0.930099 0.527300 0.725919 -0.376261
C62   C     C_3   0.145148 0.547643 0.739970 -0.692273
H25   H     H_    0.194698 0.586491 0.708869 0.225690
H26   H     H_    0.174580 0.577977 0.799056 0.222734
H27   H     H_    0.229942 0.492888 0.723659 0.205312
H28   H     H_    0.900316 0.477380 0.747080 0.167943
H29   H     H_    0.894959 0.503340 0.667005 0.180295
Br2   Br    Br    0.597926 0.524909 0.193198 -0.634739
Br3   Br    Br    0.511257 0.003517 0.197693 -0.615727
Br4   Br    Br    0.228736 0.232369 0.044482 -0.625000
C63   C     C_3   0.507789 0.376665 0.047790 -0.299488
C64   C     C_3   0.340299 0.422314 0.029008 -0.661162
H30   H     H_    0.202923 0.388305 0.023594 0.252278
H31   H     H_    0.324123 0.480745 0.071575 0.255796
H32   H     H_    0.368162 0.432215 0.976242 0.198044
H33   H     H_    0.644942 0.410282 0.050491 0.205931
H34   H     H_    0.524007 0.320195 0.002320 0.195159
Br5   Br    Br    0.039560 0.172124 0.649266 -0.596400
C65   C     C_3   0.533210 0.783108 0.319718 -0.398929
C66   C     C_3   0.586171 0.870202 0.357363 -0.703327
H35   H     H_    0.644268 0.879026 0.413254 0.228219
H36   H     H_    0.694771 0.891032 0.325892 0.250292
H37   H     H_    0.455226 0.906661 0.361579 0.216591
H38   H     H_    0.477458 0.774315 0.263763 0.187873
H39   H     H_    0.410741 0.768143 0.349622 0.175437

loop_
_geom_bond_atom_site_label_1
_geom_bond_atom_site_label_2
_ccdc_geom_bond_type
O17   V4    S    
C53   C54   A    
O17   V3    S    
C31   C36   A    
C21   C22   A    
C62   H25   S    
C1    O6    A    
C65   C66   S    
C49   C50   A    
C55   H24   S    
C52   H22   S    
C63   C64   S    
C28   H12   S    
C51   C56   A    
O19   V4    S    
C11   H4    S    
C17   C18   A    
C45   C46   A    
C4    C7    S    
C12   H5    S    
C6    C7    A    
C46   C47   A    
C3    C23   S    
O5    C3    A    
C1    C40   S    
C63   H34   S    
V2    O10   S    
C26   C60   S    
C50   C56   S    
C31   C32   A    
C35   C37   A    
C22   C26   A    
C17   C22   A    
C61   C62   S    
C64   H32   S    
C5    C6    A    
O8    V2    S    
C27   C28   A    
C43   C44   A    
V4    O20   S    
C14   C15   A    
C44   H17   S    
O1    V2    S    
C42   C63   S    
O11   C58   A    
C17   Br1   S    
O14   V3    S    
C24   C27   A    
O12   C57   A    
C66   H37   S    
C41   C42   A    
C38   C41   A    
C34   C35   A    
O9    C4    A    
C49   Br5   S    
C21   C23   A    
C45   C50   A    
O14   C58   A    
C15   H7    S    
C52   C53   A    
C45   H18   S    
C42   C43   A    
C9    C10   A    
C19   C20   A    
C48   C49   A    
C47   C48   A    
C18   H9    S    
C33   C34   A    
O15   V3    S    
C32   H15   S    
C48   H20   S    
C35   C36   A    
O2    C1    A    
C23   C24   A    
C37   C38   A    
O13   C60   A    
C65   H39   S    
C43   Br2   S    
C55   C56   A    
C51   H21   S    
C13   C14   A    
C53   C57   S    
C5    H1    S    
C62   H26   S    
C39   C44   A    
C46   H19   S    
V3    O20   S    
C64   H30   S    
O3    C4    A    
C10   C16   S    
C2    C47   S    
C28   C29   A    
C51   C52   A    
C54   C55   A    
C29   C30   A    
O6    V2    S    
C31   H14   S    
C41   Br4   S    
O9    V2    S    
C8    C9    A    
O2    V1    S    
C61   H29   S    
C24   C25   A    
O4    C2    A    
C66   H35   S    
O7    V1    S    
C20   C21   A    
O16   V4    S    
O1    C2    A    
C14   H6    S    
O5    V1    S    
C36   C40   A    
O8    C3    A    
O13   V3    S    
C34   Br3   S    
C27   C61   S    
O19   C60   A    
C11   C12   A    
C30   H13   S    
C5    C10   A    
C39   C40   A    
C6    H2    S    
C12   C13   A    
O7    V2    S    
O4    V1    S    
O3    V1    S    
V1    O10   S    
C65   H38   S    
O11   V4    S    
C37   C58   S    
C33   H16   S    
C32   C33   A    
C18   C19   A    
C25   C30   A    
O15   C59   A    
C57   O16   A    
C15   C16   A    
C19   H10   S    
C62   H27   S    
C63   H33   S    
C64   H31   S    
C38   C39   A    
C25   C26   A    
C11   C16   A    
C54   H23   S    
O12   V3    S    
C20   H11   S    
C13   C59   S    
O18   C59   A    
C9    C65   S    
C8    H3    S    
O18   V4    S    
C7    C8    A    
C61   H28   S    
H8    C29   S    
C66   H36   S    
