data_mof_unit_36035.cif
_audit_creation_date              2012-12-10T18:56:31-0500
_audit_creation_method            fapswitch 2.2
_symmetry_space_group_name_H-M    P1
_symmetry_Int_Tables_number       1
_space_group_crystal_system       triclinic
_cell_length_a                    10.718454
_cell_length_b                    9.819346
_cell_length_c                    19.277988
_cell_angle_alpha                 89.943046
_cell_angle_beta                  90.083193
_cell_angle_gamma                 89.980287
_cell_volume                      2028.97043643

loop_
_atom_site_label
_atom_site_type_symbol
_atom_type_description
_atom_site_fract_x
_atom_site_fract_y
_atom_site_fract_z
_atom_type_partial_charge
C1    C     C_R   0.872601 0.499971 0.500044 -0.018454
C2    C     C_R   0.740196 0.499984 0.500039 0.876231
C3    C     C_R   0.499819 0.500058 0.365703 0.927098
C4    C     C_R   0.500075 0.499935 0.634337 0.933054
C5    C     C_R   0.063909 0.378531 0.486748 -0.172640
C6    C     C_R   0.936092 0.621478 0.513205 -0.174313
C7    C     C_R   0.936104 0.378493 0.486830 -0.174982
C8    C     C_R   0.063896 0.621515 0.513125 -0.175118
C9    C     C_R   0.468622 0.380993 0.745576 -0.243928
C10   C     C_R   0.537109 0.616409 0.254434 -0.270450
C11   C     C_R   0.459858 0.384026 0.254719 -0.268838
C12   C     C_R   0.127400 0.500034 0.499920 -0.019076
C13   C     C_R   0.531802 0.618397 0.745619 -0.243661
C14   C     C_R   0.467040 0.379793 0.817598 0.412658
C15   C     C_R   0.537841 0.617483 0.182399 0.370952
C16   C     C_R   0.457743 0.382922 0.182697 0.373956
C17   C     C_R   0.533006 0.619433 0.817647 0.414898
C18   C     C_R   0.499827 0.499606 0.853658 -0.224538
C19   C     C_R   0.497603 0.500129 0.146540 -0.184316
C20   C     C_R   0.574187 0.071905 0.544980 -0.050247
C21   C     C_R   0.425825 0.928096 0.455012 -0.068897
C22   C     C_R   0.425825 0.072148 0.455009 -0.068914
C23   C     C_R   0.395286 0.550532 0.963840 -0.021654
C24   C     C_R   0.574190 0.927853 0.544981 -0.050838
C25   C     C_R   0.500188 0.499770 0.709633 -0.196405
C26   C     C_R   0.498986 0.500161 0.290481 -0.144702
C27   C     C_R   0.601516 0.447933 0.036423 -0.027050
C28   C     C_R   0.394989 0.551368 0.035658 -0.026437
C29   C     C_R   0.602466 0.448715 0.964612 -0.021542
C30   C     C_R   0.497967 0.499707 0.071595 0.138595
C31   C     C_R   0.499201 0.499646 0.928645 0.153606
C32   C     C_R   0.259804 0.500017 0.499949 0.876325
H1    H     H_    0.633444 0.126551 0.580891 0.139906
H2    H     H_    0.567759 0.705565 0.282668 0.188347
H3    H     H_    0.429701 0.294884 0.283177 0.181430
H4    H     H_    0.556972 0.709701 0.717410 0.216788
H5    H     H_    0.315407 0.589536 0.935618 0.161348
H6    H     H_    0.681109 0.408268 0.064656 0.165016
H7    H     H_    0.314971 0.591163 0.063297 0.164906
H8    H     H_    0.682830 0.409701 0.936993 0.161342
H9    H     H_    0.341561 0.034385 0.831830 0.420395
H10   H     H_    0.582199 0.921981 0.218241 0.341754
H11   H     H_    0.410642 0.078960 0.219543 0.339301
H12   H     H_    0.366577 0.873452 0.419096 0.138063
H13   H     H_    0.658160 0.964913 0.832125 0.420057
H14   H     H_    0.366582 0.126985 0.419086 0.132587
H15   H     H_    0.633448 0.873014 0.580895 0.136101
H16   H     H_    0.112594 0.284149 0.476009 0.160474
H17   H     H_    0.887409 0.715861 0.523943 0.159391
H18   H     H_    0.887428 0.284085 0.476159 0.163552
H19   H     H_    0.112571 0.715924 0.523796 0.164251
H20   H     H_    0.443635 0.289735 0.717337 0.222224
N1    N     N_R   0.500000 0.857200 0.500000 -0.086921
N2    N     N_R   0.500000 0.142800 0.500000 -0.086635
O1    O     O_R   0.316770 0.614620 0.500000 -0.625785
O2    O     O_2   0.316322 0.258721 0.909665 -0.240531
O3    O     O_3   0.375523 0.109704 0.803349 -0.540470
O4    O     O_2   0.684900 0.729902 0.085155 -0.200337
O5    O     O_2   0.480038 0.832823 0.103087 -0.214355
O6    O     O_3   0.653494 0.877774 0.194702 -0.502369
O7    O     O_2   0.310817 0.270475 0.085208 -0.201061
O8    O     O_2   0.514771 0.166029 0.104652 -0.213188
O9    O     O_3   0.339948 0.123932 0.195646 -0.509599
O10   O     O_2   0.469103 0.825641 0.901347 -0.237930
O11   O     O_2   0.683199 0.740121 0.910218 -0.240670
O12   O     O_R   0.683230 0.385380 0.500000 -0.627661
O13   O     O_3   0.624976 0.889383 0.803574 -0.547907
O14   O     O_R   0.683230 0.614620 0.500000 -0.628049
O15   O     O_R   0.316770 0.385380 0.500000 -0.626425
O16   O     O_R   0.500030 0.614710 0.398180 -0.622628
O17   O     O_R   0.499970 0.385290 0.601820 -0.619123
O18   O     O_R   0.499970 0.614710 0.601820 -0.620085
O19   O     O_R   0.500030 0.385290 0.398180 -0.623403
O20   O     O_2   0.530590 0.173545 0.901675 -0.239392
S1    S     S_3+6 0.421928 0.228088 0.860891 0.069920
S2    S     S_3+6 0.589098 0.766605 0.138781 0.091484
S3    S     S_3+6 0.405786 0.233707 0.139495 0.090013
S4    S     S_3+6 0.577992 0.770996 0.861018 0.069477
Zn1   Zn    Zn3+2 0.500000 0.653120 0.500000 0.962943
Zn2   Zn    Zn3+2 0.500000 0.346880 0.500000 0.963081

loop_
_geom_bond_atom_site_label_1
_geom_bond_atom_site_label_2
_ccdc_geom_bond_type
C27   C29   A    
C14   C18   A    
O8    S3    D    
C4    C25   S    
O4    S2    D    
C22   N2    A    
C15   C19   A    
O13   S4    S    
N1    Zn1   S    
C16   S3    S    
O18   Zn1   S    
C2    O14   A    
C10   C15   A    
C27   H6    S    
C1    C2    S    
C20   C24   A    
O7    S3    D    
H13   O13   S    
C32   O1    A    
C10   C26   A    
O14   Zn1   S    
C15   S2    S    
O2    S1    D    
C21   C22   A    
C12   C32   S    
C27   C30   A    
C13   C25   A    
C9    H20   S    
O17   Zn2   S    
N2    Zn2   S    
C5    H16   S    
O20   S1    D    
C9    C25   A    
C1    C6    A    
C3    O16   A    
C5    C12   A    
C20   N2    A    
H10   O6    S    
C5    C7    A    
C6    C8    A    
C28   H7    S    
C24   N1    A    
C23   H5    S    
O6    S2    S    
C23   C31   A    
C9    C14   A    
C21   H12   S    
O1    Zn1   S    
C11   C16   A    
C8    C12   A    
C17   C18   A    
C10   H2    S    
C23   C28   A    
C8    H19   S    
C13   H4    S    
C20   H1    S    
C22   H14   S    
C4    O18   A    
O9    S3    S    
O11   S4    D    
O16   Zn1   S    
C1    C7    A    
C24   H15   S    
O10   S4    D    
C3    C26   S    
C7    H18   S    
C2    O12   A    
C32   O15   A    
O12   Zn2   S    
C11   C26   A    
C13   C17   A    
C14   S1    S    
O3    S1    S    
C28   C30   A    
H9    O3    S    
C29   C31   A    
C21   N1    A    
C16   C19   A    
C29   H8    S    
C11   H3    S    
C17   S4    S    
O19   Zn2   S    
C6    H17   S    
C3    O19   A    
H11   O9    S    
O15   Zn2   S    
C18   C31   S    
C19   C30   S    
O5    S2    D    
C4    O17   A    
