data_mof_unit_51696.cif
_audit_creation_date              2012-12-11T17:39:36-0500
_audit_creation_method            fapswitch 2.2
_symmetry_space_group_name_H-M    P1
_symmetry_Int_Tables_number       1
_space_group_crystal_system       triclinic
_cell_length_a                    15.243694
_cell_length_b                    14.955613
_cell_length_c                    14.989203
_cell_angle_alpha                 108.176583
_cell_angle_beta                  110.394599
_cell_angle_gamma                 110.295658
_cell_volume                      2614.83067864

loop_
_atom_site_label
_atom_site_type_symbol
_atom_type_description
_atom_site_fract_x
_atom_site_fract_y
_atom_site_fract_z
_atom_type_partial_charge
C1    C     C_R   0.908487 0.960231 0.722122 -0.136257
C2    C     C_R   0.912632 0.705094 0.513425 -0.143568
C3    C     C_R   0.751681 0.780099 0.187352 -0.135513
C4    C     C_R   0.092192 0.315880 0.557534 -0.128844
C5    C     C_R   0.263647 0.949824 0.540623 -0.143366
C6    C     C_R   0.726228 0.677448 0.176701 0.124989
C7    C     C_R   0.295489 0.975268 0.471275 0.053437
C8    C     C_R   0.005100 0.705158 0.577273 0.056310
C9    C     C_R   0.994684 0.071476 0.199959 0.068127
C10   C     C_R   0.489884 0.601077 0.376823 0.090800
C11   C     C_R   0.476816 0.685300 0.362773 -0.223243
C12   C     C_R   0.000866 0.326716 0.539713 0.050408
C13   C     C_R   0.466824 0.757944 0.438889 0.110707
C14   C     C_R   0.467211 0.744218 0.527556 -0.163619
C15   C     C_R   0.478638 0.660142 0.541001 -0.132399
C16   C     C_R   0.302161 0.208050 0.799010 -0.174549
C17   C     C_R   0.490232 0.589114 0.466300 -0.164387
C18   C     C_R   0.374223 0.862977 0.434638 -0.251780
C19   C     C_R   0.375140 0.960151 0.450246 0.070657
C20   C     C_R   0.457518 0.045417 0.454904 0.015372
C21   C     C_R   0.535217 0.029169 0.439385 -0.252885
C22   C     C_R   0.539563 0.935282 0.430920 0.067382
C23   C     C_R   0.364957 0.301627 0.800722 0.131216
C24   C     C_R   0.459103 0.851079 0.430113 0.034946
C25   C     C_R   0.452037 0.198733 0.423129 -0.203651
C26   C     C_R   0.478719 0.307947 0.462877 -0.100814
C27   C     C_R   0.532882 0.378256 0.575519 -0.120503
C28   C     C_R   0.698722 0.996988 0.405982 -0.162925
C29   C     C_R   0.559606 0.339040 0.648224 -0.114554
C30   C     C_R   0.532092 0.229549 0.608607 -0.117094
C31   C     C_R   0.478408 0.158836 0.495719 0.115392
C32   C     C_R   0.724603 0.257392 0.227452 -0.137684
C33   C     C_R   0.815375 0.335284 0.331129 -0.135654
C34   C     C_R   0.639620 0.941660 0.442253 0.063434
C35   C     C_R   0.808188 0.346626 0.424538 0.106023
C36   C     C_R   0.709641 0.280808 0.413681 -0.192382
C37   C     C_R   0.621429 0.198555 0.310082 -0.134825
C38   C     C_R   0.628192 0.188000 0.217002 -0.129560
C39   C     C_R   0.907614 0.531823 0.567551 -0.222910
C40   C     C_R   0.301513 0.299871 0.707704 -0.114840
C41   C     C_R   0.007395 0.626833 0.617575 0.046513
C42   C     C_R   0.104211 0.627812 0.676563 0.037163
C43   C     C_R   0.097181 0.527731 0.660855 -0.240127
C44   C     C_R   0.999267 0.429161 0.580073 0.066781
C45   C     C_R   0.752994 0.687225 0.278942 -0.125406
C46   C     C_R   0.903152 0.432633 0.532665 0.023254
C47   C     C_R   0.295312 0.731720 0.719217 -0.193596
C48   C     C_R   0.390445 0.831538 0.766988 -0.108534
C49   C     C_R   0.405482 0.927963 0.840444 -0.112357
C50   C     C_R   0.326520 0.924436 0.868270 -0.143064
C51   C     C_R   0.231775 0.824540 0.822132 -0.150598
C52   C     C_R   0.701100 0.910899 0.503247 -0.131822
C53   C     C_R   0.213588 0.727985 0.744046 0.113177
C54   C     C_2   0.535371 0.470672 0.879551 -0.129729
C55   C     C_2   0.481084 0.377785 0.878737 -0.193350
C56   C     C_R   0.254584 0.036524 0.441934 -0.113535
C57   C     C_2   0.633711 0.568755 0.978128 -0.139065
C58   C     C_2   0.672969 0.574753 0.076325 -0.169154
C59   C     C_R   0.230957 0.946631 0.051447 -0.164857
C60   C     C_R   0.147964 0.969818 0.015169 0.039292
C61   C     C_R   0.175701 0.078782 0.038406 0.062488
C62   C     C_R   0.285379 0.160580 0.095800 -0.192632
C63   C     C_R   0.366525 0.135587 0.129623 -0.150626
C64   C     C_R   0.910092 0.222060 0.472295 -0.117330
C65   C     C_R   0.339556 0.028873 0.107999 -0.146874
C66   C     C_R   0.091492 0.153792 0.122506 -0.226113
C67   C     C_R   0.092531 0.792311 0.594067 -0.143737
C68   C     C_R   0.991407 0.103746 0.115525 0.060716
C69   C     C_R   0.894941 0.059824 0.014511 0.030606
C70   C     C_R   0.905391 0.057871 0.925286 -0.237919
C71   C     C_R   0.002035 0.071637 0.927827 0.080865
C72   C     C_R   0.094562 0.113153 0.028131 0.018997
C73   C     C_R   0.725631 0.879523 0.919135 -0.157323
C74   C     C_R   0.626747 0.812386 0.906395 -0.167457
C75   C     C_R   0.584059 0.858635 0.962665 -0.076651
C76   C     C_R   0.091603 0.055671 0.813416 -0.145729
C77   C     C_R   0.637157 0.972308 0.026668 -0.126726
C78   C     C_R   0.907806 0.005737 0.202816 -0.153805
C79   C     C_R   0.735564 0.040296 0.038393 -0.187700
C80   C     C_R   0.783043 0.993396 0.989135 0.116648
C81   C     C_R   0.001092 0.031663 0.825369 0.057294
C82   C     C_R   0.505125 0.526845 0.299766 0.128251
C83   C     C_R   0.582437 0.497100 0.339084 -0.190327
C84   C     C_R   0.596728 0.426911 0.266516 -0.130348
C85   C     C_R   0.533201 0.384361 0.154108 -0.134823
C86   C     C_R   0.455999 0.413231 0.114218 -0.117811
C87   C     C_R   0.442283 0.484590 0.186535 -0.151186
C88   C     C_R   0.034767 0.880023 0.961852 0.101194
C89   C     C_R   0.088036 0.100210 0.292808 -0.157348
C90   C     C_R   0.972217 0.813648 0.847615 -0.153576
C91   C     C_R   0.868884 0.722412 0.798095 -0.103056
C92   C     C_R   0.828160 0.695996 0.862420 -0.121055
C93   C     C_R   0.890380 0.761453 0.976289 -0.112976
C94   C     C_R   0.993588 0.852830 0.025928 -0.128852
H1    H     H_    0.824555 0.921906 0.701026 0.096713
H2    H     H_    0.477962 0.696753 0.295198 0.121913
H3    H     H_    0.176778 0.380175 0.606443 0.091361
H4    H     H_    0.460460 0.800156 0.587307 0.109051
H5    H     H_    0.479279 0.650506 0.609846 0.109591
H6    H     H_    0.310846 0.799161 0.433221 0.134765
H7    H     H_    0.601045 0.097329 0.448471 0.132766
H8    H     H_    0.409283 0.144675 0.335970 0.131764
H9    H     H_    0.457683 0.337765 0.406162 0.115903
H10   H     H_    0.554576 0.463139 0.606784 0.090277
H11   H     H_    0.602814 0.393781 0.735338 0.121292
H12   H     H_    0.261388 0.067807 0.387423 0.110104
H13   H     H_    0.554206 0.200283 0.665727 0.109602
H14   H     H_    0.557904 0.128016 0.136504 0.098795
H15   H     H_    0.331752 0.176353 0.851094 0.094759
H16   H     H_    0.728491 0.251762 0.155397 0.105766
H17   H     H_    0.890465 0.388418 0.338896 0.115849
H18   H     H_    0.702890 0.290487 0.485263 0.133327
H19   H     H_    0.547560 0.144157 0.302228 0.117202
H20   H     H_    0.832069 0.530387 0.529862 0.116401
H21   H     H_    0.170670 0.527242 0.703327 0.123453
H22   H     H_    0.282923 0.658715 0.658508 0.115454
H23   H     H_    0.177668 0.823258 0.641493 0.132356
H24   H     H_    0.452211 0.834501 0.746322 0.119794
H25   H     H_    0.478134 0.005522 0.875429 0.111261
H26   H     H_    0.337026 0.999854 0.922039 0.134836
H27   H     H_    0.670057 0.021781 0.346451 0.109208
H28   H     H_    0.168626 0.823336 0.839747 0.118963
H29   H     H_    0.497878 0.483677 0.812413 0.112158
H30   H     H_    0.517788 0.360682 0.942260 0.121607
H31   H     H_    0.658706 0.642817 0.972106 0.116554
H32   H     H_    0.653112 0.502427 0.084880 0.135547
H33   H     H_    0.402060 0.008653 0.134054 0.116634
H34   H     H_    0.823638 0.976865 0.154762 0.135322
H35   H     H_    0.211390 0.864494 0.036341 0.126336
H36   H     H_    0.307735 0.244747 0.118684 0.143595
H37   H     H_    0.450085 0.200470 0.175589 0.148911
H38   H     H_    0.329143 0.350589 0.674215 0.085869
H39   H     H_    0.167039 0.194743 0.198728 0.125772
H40   H     H_    0.833110 0.027726 0.849467 0.126101
H41   H     H_    0.759260 0.842762 0.877082 0.138399
H42   H     H_    0.584203 0.724555 0.854373 0.104676
H43   H     H_    0.508634 0.806599 0.954973 0.121246
H44   H     H_    0.602672 0.006688 0.068710 0.119316
H45   H     H_    0.171215 0.161587 0.326278 0.098755
H46   H     H_    0.778737 0.127740 0.091659 0.119171
H47   H     H_    0.677897 0.860301 0.538139 0.112300
H48   H     H_    0.827025 0.196437 0.448326 0.122927
H49   H     H_    0.176392 0.110142 0.876062 0.114952
H50   H     H_    0.746092 0.623631 0.300356 0.121842
H51   H     H_    0.632915 0.529378 0.425957 0.100606
H52   H     H_    0.657533 0.406193 0.297859 0.148144
H53   H     H_    0.543453 0.328546 0.098096 0.099420
H54   H     H_    0.405451 0.379275 0.027271 0.123581
H55   H     H_    0.381028 0.504806 0.153898 0.110625
H56   H     H_    0.830631 0.657287 0.494721 0.088692
H57   H     H_    0.003880 0.831536 0.797039 0.120349
H58   H     H_    0.820890 0.671599 0.709963 0.106446
H59   H     H_    0.748312 0.625177 0.824094 0.102513
H60   H     H_    0.859095 0.741022 0.026202 0.119767
H61   H     H_    0.042275 0.901196 0.114241 0.123156
H62   H     H_    0.741544 0.802287 0.124163 0.105179
H63   H     H_    0.285602 0.906346 0.581537 0.105378
H64   H     H_    0.498763 0.524311 0.478008 0.099247
N1    N     N_R   0.941940 0.944580 0.650780 -0.041441
N2    N     N_R   0.204460 0.150250 0.707090 -0.037219
N3    N     N_R   0.794270 0.003240 0.446420 -0.039038
N4    N     N_R   0.204920 0.207570 0.650770 -0.043066
N5    N     N_R   0.793810 0.945920 0.502740 -0.038619
N6    N     N_R   0.943620 0.152590 0.446420 -0.042309
N7    N     N_R   0.055110 0.000900 0.707100 -0.040650
N8    N     N_R   0.795080 0.792430 0.349230 -0.044327
N9    N     N_R   0.206190 0.054080 0.497260 -0.041013
N10   N     N_R   0.056380 0.847410 0.553580 -0.040897
N11   N     N_R   0.944890 0.999100 0.292900 -0.043212
N12   N     N_R   0.058060 0.055420 0.349220 -0.040982
N13   N     N_R   0.943200 0.791100 0.497260 -0.040633
N14   N     N_R   0.795540 0.849750 0.292910 -0.043975
N15   N     N_R   0.205730 0.996760 0.553580 -0.038803
N16   N     N_R   0.056800 0.208900 0.502740 -0.039875
Ni1   Ni    Ni4+2 0.869690 0.869690 0.500000 0.211378
Ni2   Ni    Ni4+2 0.130310 0.130310 0.500000 0.215100
Ni3   Ni    Ni4+2 0.129250 0.998840 0.629170 0.212685
Ni4   Ni    Ni4+2 0.870750 0.001160 0.370830 0.215822

loop_
_geom_bond_atom_site_label_1
_geom_bond_atom_site_label_2
_ccdc_geom_bond_type
C67   N10   A    
C2    H56   S    
C66   C68   A    
C54   H29   S    
C63   C65   A    
C25   C31   A    
C93   C94   A    
C6    C45   A    
C30   H13   S    
C16   N2    A    
N7    Ni3   S    
N11   N12   A    
C6    C58   S    
C35   C36   A    
C64   N6    A    
C3    C6    A    
N5    Ni1   S    
C60   C88   S    
C39   C41   A    
N12   Ni2   S    
C85   C86   A    
N8    N14   A    
N8    Ni1   S    
C37   C38   A    
C32   H16   S    
C83   C84   A    
C50   H26   S    
C65   H33   S    
C21   C22   A    
C93   H60   S    
C89   N12   A    
C82   C87   A    
C42   C53   S    
C57   H31   S    
C30   C31   A    
C12   C64   A    
C3    N14   A    
N4    Ni2   S    
C10   C17   A    
C1    C81   A    
N10   Ni3   S    
C27   H10   S    
C27   C29   A    
C18   C19   A    
C41   C42   A    
C11   H2    S    
C62   H36   S    
C92   C93   A    
C34   C52   A    
C28   N3    A    
C83   H51   S    
C84   C85   A    
N10   N13   A    
C66   C72   A    
C19   C20   A    
C68   C69   A    
C89   H45   S    
C74   H42   S    
C36   H18   S    
C45   H50   S    
N6    N16   A    
C70   C71   A    
C33   H17   S    
C32   C38   A    
C4    C12   A    
C29   C30   A    
C45   N8    A    
C2    N13   A    
C47   C53   A    
C21   H7    S    
C79   H46   S    
C40   H38   S    
C28   C34   A    
C59   C60   A    
C78   H34   S    
C4    N16   A    
C13   C14   A    
C29   H11   S    
C61   C62   A    
C18   H6    S    
C7    C56   A    
N3    N5    A    
C44   C46   A    
C16   H15   S    
C14   H4    S    
C57   C58   D    
C77   C79   A    
C73   C74   A    
C47   H22   S    
C22   C34   S    
C88   C94   A    
C74   C75   A    
C73   H41   S    
C1    N1    A    
C77   H44   S    
C75   H43   S    
C9    C89   A    
C91   C92   A    
C5    C7    A    
C86   C87   A    
C94   H61   S    
C48   H24   S    
C25   C26   A    
N13   Ni1   S    
C10   C82   S    
C78   N11   A    
N1    N7    A    
C13   C24   S    
C43   H21   S    
C60   C61   A    
C51   C53   A    
N2    N4    A    
C43   C44   A    
C40   N4    A    
C62   C63   A    
C26   H9    S    
C66   H39   S    
C67   H23   S    
C47   C48   A    
N15   Ni3   S    
C1    H1    S    
C39   H20   S    
C50   C51   A    
C26   C27   A    
C76   N7    A    
C8    C41   S    
C17   H64   S    
C75   C77   A    
C56   H12   S    
C92   H59   S    
C63   H37   S    
C39   C46   A    
C61   C72   S    
C48   C49   A    
C88   C90   A    
C58   H32   S    
C16   C23   A    
C7    C19   S    
C87   H55   S    
C18   C24   A    
C42   C43   A    
N11   Ni4   S    
N6    Ni4   S    
N14   Ni4   S    
C15   C17   A    
C54   C55   D    
C36   C37   A    
C28   H27   S    
C5    N15   A    
C2    C8    A    
C85   H53   S    
C15   H5    S    
C90   H57   S    
C86   H54   S    
C76   C81   A    
C23   C55   S    
C84   H52   S    
C49   H25   S    
C5    H63   S    
C52   H47   S    
N9    N15   A    
C32   C33   A    
C59   H35   S    
C9    C68   S    
C71   C72   A    
C12   C44   S    
C59   C65   A    
C11   C13   A    
C90   C91   A    
C91   H58   S    
C64   H48   S    
C56   N9    A    
C3    H62   S    
C33   C35   A    
C73   C80   A    
C22   C24   A    
C9    C78   A    
C38   H14   S    
C69   C70   A    
C25   H8    S    
N16   Ni2   S    
N2    Ni3   S    
C10   C11   A    
C52   N5    A    
C79   C80   A    
C76   H49   S    
C37   H19   S    
C20   C21   A    
C8    C67   A    
C49   C50   A    
C55   H30   S    
C70   H40   S    
C51   H28   S    
C14   C15   A    
C69   C80   S    
N1    Ni1   S    
C82   C83   A    
N3    Ni4   S    
C4    H3    S    
C35   C46   S    
C54   C57   S    
C23   C40   A    
N9    Ni2   S    
C71   C81   S    
C20   C31   S    
