data_mof_unit_39716.cif
_audit_creation_date              2012-12-11T15:11:47-0500
_audit_creation_method            fapswitch 2.2
_symmetry_space_group_name_H-M    P1
_symmetry_Int_Tables_number       1
_space_group_crystal_system       monoclinic
_cell_length_a                    20.138855
_cell_length_b                    7.133437
_cell_length_c                    13.645658
_cell_angle_alpha                 90.0
_cell_angle_beta                  103.467599
_cell_angle_gamma                 90.0
_cell_volume                      1906.41958962

loop_
_atom_site_label
_atom_site_type_symbol
_atom_type_description
_atom_site_fract_x
_atom_site_fract_y
_atom_site_fract_z
_atom_type_partial_charge
O1    O     O_R   0.449830 0.506740 0.599960 -0.527947
O2    O     O_R   0.550170 0.006740 0.400040 -0.527946
O3    O     O_R   0.588980 0.179860 0.596720 -0.534960
O4    O     O_R   0.411020 0.679860 0.403280 -0.534959
C1    C     C_R   0.617275 0.343845 0.615471 0.827418
C2    C     C_R   0.382725 0.843845 0.384529 0.827416
O5    O     O_R   0.452740 0.177340 0.612040 -0.549783
O6    O     O_R   0.547260 0.677340 0.387960 -0.549783
O7    O     O_R   0.412960 0.002070 0.415460 -0.546542
O8    O     O_R   0.587040 0.502070 0.584540 -0.546543
C3    C     C_R   0.436532 0.345717 0.637824 0.719274
C4    C     C_R   0.563468 0.845717 0.362176 0.719274
O9    O     O_3   0.487110 0.337570 0.435490 -0.383845
O10   O     O_3   0.512890 0.837570 0.564510 -0.383846
V1    V     V_3+5 0.502390 0.064650 0.511970 1.500079
V2    V     V_3+5 0.497610 0.564650 0.488030 1.500079
C5    C     C_R   0.610039 0.891780 0.114037 -0.129897
C6    C     C_R   0.389961 0.391783 0.885963 -0.129896
C7    C     C_R   0.603504 0.854417 0.286295 -0.067020
C8    C     C_R   0.396496 0.354417 0.713705 -0.067020
C9    C     C_R   0.934478 0.859551 0.316749 -0.242484
C10   C     C_R   0.065522 0.359548 0.683251 -0.242484
C11   C     C_R   0.900849 0.860182 0.394088 -0.183989
C12   C     C_R   0.099151 0.360176 0.605912 -0.183988
C13   C     C_R   0.829175 0.860006 0.374408 0.372628
C14   C     C_R   0.170824 0.360000 0.625592 0.372629
C15   C     C_R   0.789458 0.849680 0.272409 -0.014063
C16   C     C_R   0.210541 0.349678 0.727591 -0.014063
C17   C     C_R   0.825291 0.847156 0.192758 -0.033034
C18   C     C_R   0.174709 0.347156 0.807242 -0.033035
C19   C     C_R   0.715817 0.849757 0.245412 0.074615
C20   C     C_R   0.284183 0.349756 0.754588 0.074615
C21   C     C_R   0.681266 0.869613 0.142463 0.079739
C22   C     C_R   0.318734 0.369613 0.857537 0.079738
C23   C     C_R   0.717126 0.860996 0.067440 -0.224743
C24   C     C_R   0.282874 0.360997 0.932560 -0.224740
C25   C     C_R   0.787895 0.839913 0.090855 0.362749
C26   C     C_R   0.212105 0.339915 0.909146 0.362751
C27   C     C_R   0.674214 0.828684 0.315304 -0.124223
C28   C     C_R   0.325786 0.328682 0.684696 -0.124224
C29   C     C_R   0.571565 0.889339 0.186141 -0.173276
C30   C     C_R   0.428435 0.389342 0.813859 -0.173277
C31   C     C_R   0.897971 0.856345 0.216932 -0.067789
C32   C     C_R   0.102029 0.356345 0.783068 -0.067788
C33   C     C_3   0.243817 0.816570 0.130393 0.539704
C34   C     C_3   0.756183 0.316565 0.869606 0.539704
C35   C     C_3   0.315477 0.790833 0.206288 0.072893
C36   C     C_3   0.684524 0.290826 0.793711 0.072894
C37   C     C_3   0.190359 0.708776 0.272821 -0.478141
C38   C     C_3   0.809642 0.208780 0.727177 -0.478144
C39   C     C_3   0.205973 0.054200 0.245371 0.170948
C40   C     C_3   0.794026 0.554202 0.754631 0.170947
C41   C     C_3   0.187201 0.861370 0.190050 -0.101407
C42   C     C_3   0.812799 0.361370 0.809949 -0.101402
H1    H     H_    0.202959 0.166479 0.188760 0.139763
H2    H     H_    0.797040 0.666478 0.811243 0.139764
C43   C     C_3   0.311528 0.849243 0.315042 -0.073020
C44   C     C_3   0.688472 0.349242 0.684958 -0.073017
C45   C     C_3   0.260610 0.714075 0.352998 0.603434
C46   C     C_3   0.739390 0.214080 0.646999 0.603434
C47   C     C_3   0.280788 0.051243 0.309737 -0.427882
C48   C     C_3   0.719212 0.551244 0.690265 -0.427889
O11   O     O_R   0.912980 0.203550 0.915410 -0.545646
O12   O     O_R   0.087020 0.703550 0.084590 -0.545647
O13   O     O_R   0.047270 0.535570 0.887960 -0.547575
O14   O     O_R   0.952730 0.035570 0.112040 -0.547575
C49   C     C_R   0.062087 0.367480 0.860076 0.791141
C50   C     C_R   0.937913 0.867480 0.139924 0.791143
O15   O     O_R   0.911030 0.532970 0.903270 -0.518812
O16   O     O_R   0.088970 0.032970 0.096730 -0.518812
O17   O     O_R   0.949820 0.708150 0.099970 -0.524441
O18   O     O_R   0.050180 0.208150 0.900030 -0.524441
C51   C     C_R   0.884039 0.365560 0.881133 0.749314
C52   C     C_R   0.115961 0.865560 0.118867 0.749314
O19   O     O_3   0.012900 0.375230 0.064480 -0.376836
O20   O     O_3   0.987100 0.875230 0.935520 -0.376836
V3    V     V_3+5 0.997610 0.648190 0.988040 1.528390
V4    V     V_3+5 0.002390 0.148190 0.011960 1.528391
H3    H     H_    0.516758 0.908752 0.163525 0.130418
H4    H     H_    0.483242 0.408756 0.836475 0.130420
O21   O     O_3   0.245892 0.958789 0.058915 -0.641256
H5    H     H_    0.272779 0.065745 0.093322 0.291712
O22   O     O_3   0.754108 0.458781 0.941085 -0.641259
H6    H     H_    0.727220 0.565736 0.906679 0.291713
O23   O     O_3   0.367343 0.892438 0.176190 -0.666553
H7    H     H_    0.376021 0.828075 0.115842 0.305713
O24   O     O_3   0.632657 0.392425 0.823810 -0.666553
H8    H     H_    0.623980 0.328058 0.884158 0.305713
H9    H     H_    0.330435 0.640365 0.208125 0.102771
H10   H     H_    0.669567 0.140357 0.791872 0.102771
H11   H     H_    0.181795 0.568594 0.236381 0.187484
H12   H     H_    0.818207 0.068596 0.763614 0.187486
O25   O     O_3   0.287619 0.531273 0.371694 -0.630522
H13   H     H_    0.285936 0.467915 0.306661 0.257830
O26   O     O_3   0.712382 0.031278 0.628301 -0.630521
H14   H     H_    0.714066 0.967914 0.693334 0.257832
O27   O     O_3   0.158729 0.105932 0.302311 -0.640283
H15   H     H_    0.168627 0.034352 0.366180 0.328425
O28   O     O_3   0.841270 0.605938 0.697691 -0.640282
H16   H     H_    0.831372 0.534362 0.633820 0.328426
H17   H     H_    0.312453 0.147619 0.275407 0.156972
H18   H     H_    0.687546 0.647617 0.724596 0.156969
H19   H     H_    0.283067 0.106579 0.386700 0.219296
H20   H     H_    0.716931 0.606584 0.613303 0.219296
H21   H     H_    0.147174 0.727690 0.309982 0.149127
H22   H     H_    0.852827 0.227698 0.690016 0.149126
H23   H     H_    0.689428 0.865978 0.989106 0.128743
H24   H     H_    0.310572 0.365982 0.010894 0.128744
O29   O     O_3   0.250795 0.785246 0.444848 -0.647805
H25   H     H_    0.220452 0.697147 0.469862 0.330247
O30   O     O_3   0.749205 0.285256 0.555150 -0.647805
H26   H     H_    0.779548 0.197161 0.530135 0.330246
H27   H     H_    0.584036 0.910832 0.035662 0.118238
H28   H     H_    0.415964 0.410836 0.964337 0.118238
H29   H     H_    0.693697 0.785059 0.391882 0.183116
H30   H     H_    0.306303 0.285056 0.608118 0.183115
H31   H     H_    0.989817 0.864874 0.335031 0.124904
H32   H     H_    0.010183 0.364871 0.664968 0.124902
O31   O     O_3   0.798700 0.880649 0.454391 -0.660538
H33   H     H_    0.833699 0.880635 0.518989 0.298320
O32   O     O_3   0.201299 0.380640 0.545609 -0.660540
H34   H     H_    0.166301 0.380624 0.481011 0.298320
H35   H     H_    0.931304 0.866982 0.470736 0.122477
H36   H     H_    0.068696 0.366974 0.529264 0.122478
O33   O     O_3   0.821150 0.812447 0.014272 -0.633815
H37   H     H_    0.788271 0.820102 0.948372 0.296793
O34   O     O_3   0.178850 0.312450 0.985728 -0.633815
H38   H     H_    0.211728 0.320109 0.051628 0.296792
O35   O     O_3   0.228079 0.647521 0.078095 -0.672503
H39   H     H_    0.194737 0.674713 0.013666 0.325954
O36   O     O_3   0.771923 0.147515 0.921903 -0.672499
H40   H     H_    0.805263 0.174708 0.986333 0.325954

loop_
_geom_bond_atom_site_label_1
_geom_bond_atom_site_label_2
_ccdc_geom_bond_type
C44   C48   S    
O14   C50   A    
O24   H8    S    
C39   O27   S    
O25   H13   S    
C24   H24   S    
O12   V3    S    
O15   V3    S    
O26   H14   S    
C39   C47   S    
O2    C4    A    
C6    H28   S    
C2    O7    A    
O27   H15   S    
C5    H27   S    
O23   H7    S    
C30   H4    S    
C38   C42   S    
C1    C44   S    
C35   O23   S    
C47   H19   S    
C12   C14   A    
C6    C30   A    
C8    C28   A    
C43   C45   S    
O16   V4    S    
C44   C46   S    
C12   H36   S    
C15   C17   A    
C18   C26   A    
C49   O18   A    
O18   V4    S    
C21   C23   A    
C9    C31   A    
C10   C32   A    
O22   H6    S    
C31   C50   S    
O13   C49   A    
O1    C3    A    
O16   C52   A    
C9    H31   S    
C19   C21   A    
O15   C51   A    
C14   O32   S    
C48   H20   S    
O5    V1    S    
C33   C41   S    
O6    V2    S    
C36   H10   S    
C17   C31   A    
C35   H9    S    
C2    C43   S    
C18   C32   A    
C5    C21   A    
C37   H11   S    
C13   O31   S    
C40   C42   S    
C26   O34   S    
C25   O33   S    
C33   C35   S    
O14   V4    S    
C34   C36   S    
C3    C8    S    
O13   V3    S    
C15   C19   A    
C16   C20   A    
O20   V3    S    
O4    C2    A    
C34   O36   S    
C11   H35   S    
O11   C51   A    
O21   H5    S    
C47   H17   S    
C39   C41   S    
C20   C22   A    
O4    V2    S    
O5    C3    A    
C35   C43   S    
C42   C51   S    
O19   V3    S    
C8    C30   A    
O28   H16   S    
O6    C4    A    
C34   C42   S    
C36   O24   S    
C7    C29   A    
O1    V2    S    
C43   C47   S    
O2    V1    S    
C6    C22   A    
O32   H34   S    
C7    C27   A    
C38   H12   S    
C27   H29   S    
C9    C11   A    
O33   H37   S    
C10   C12   A    
O34   H38   S    
O17   V3    S    
O3    V1    S    
O35   H39   S    
C10   H32   S    
O30   H26   S    
C23   C25   A    
C33   O21   S    
O20   V4    S    
O3    C1    A    
C29   H3    S    
C37   H21   S    
O31   H33   S    
C36   C44   S    
C13   C15   A    
C40   O28   S    
C14   C16   A    
C37   C45   S    
C38   C46   S    
C24   C26   A    
O7    V1    S    
C1    O8    A    
C46   O30   S    
O8    V2    S    
O29   H25   S    
C28   H30   S    
C50   O17   A    
C37   C41   S    
C33   O35   S    
C4    C7    S    
C16   C18   A    
C45   O29   S    
C22   C24   A    
C19   C27   A    
C39   H1    S    
C20   C28   A    
O19   V4    S    
C5    C29   A    
C23   H23   S    
C34   O22   S    
C46   O26   S    
C40   H2    S    
C11   C13   A    
O9    V2    S    
C17   C25   A    
C38   H22   S    
O12   C52   A    
O10   V1    S    
C32   C49   S    
C40   C48   S    
C45   O25   S    
O11   V4    S    
O36   H40   S    
C48   H18   S    
C41   C52   S    
