data_mof_unit_56597.cif
_audit_creation_date              2012-12-10T16:52:02-0500
_audit_creation_method            fapswitch 2.2
_symmetry_space_group_name_H-M    P1
_symmetry_Int_Tables_number       1
_space_group_crystal_system       triclinic
_cell_length_a                    7.839361
_cell_length_b                    8.640251
_cell_length_c                    14.939244
_cell_angle_alpha                 92.359774
_cell_angle_beta                  85.95374
_cell_angle_gamma                 93.300239
_cell_volume                      1006.99924738

loop_
_atom_site_label
_atom_site_type_symbol
_atom_type_description
_atom_site_fract_x
_atom_site_fract_y
_atom_site_fract_z
_atom_type_partial_charge
Br1   Br    Br    0.415119 0.184749 0.250198 -0.301543
Br2   Br    Br    0.223862 0.971300 0.437017 -0.247629
Br3   Br    Br    0.039108 0.325137 0.384038 -0.185767
Br4   Br    Br    0.960892 0.674865 0.615961 -0.185767
Br5   Br    Br    0.584877 0.815252 0.749801 -0.301544
Br6   Br    Br    0.686767 0.796705 0.260536 -0.319217
Br7   Br    Br    0.313236 0.203293 0.739463 -0.319217
Br8   Br    Br    0.678730 0.976105 0.084173 -0.259769
Br9   Br    Br    0.321266 0.023897 0.915827 -0.259768
Br10  Br    Br    0.869187 0.856758 0.893194 -0.226119
Br11  Br    Br    0.130808 0.143247 0.106806 -0.226120
Br12  Br    Br    0.776137 0.028700 0.562983 -0.247629
C1    C     C_R   0.544495 0.794051 0.497886 0.933697
C2    C     C_R   0.571604 0.621555 0.812138 0.259559
C3    C     C_R   0.494907 0.509845 0.232551 -0.200149
C4    C     C_R   0.505093 0.490155 0.767449 -0.200149
C5    C     C_R   0.565566 0.640331 0.187893 0.236344
C6    C     C_R   0.434434 0.359669 0.812107 0.236345
C7    C     C_R   0.566952 0.639810 0.093224 -0.046357
C8    C     C_R   0.433047 0.360191 0.906776 -0.046357
C9    C     C_R   0.495876 0.505004 0.047266 -0.051878
C10   C     C_R   0.504123 0.494997 0.952734 -0.051878
C11   C     C_R   0.413062 0.381147 0.095704 -0.051131
C12   C     C_R   0.455505 0.205949 0.502114 0.933698
C13   C     C_R   0.586937 0.618854 0.904296 -0.051131
C14   C     C_R   0.644016 0.763073 0.041868 0.286745
C15   C     C_R   0.355982 0.236929 0.958132 0.286745
C16   C     C_R   0.674485 0.740978 0.949757 0.268183
C17   C     C_R   0.325513 0.259023 0.050243 0.268184
C18   C     C_2   0.565940 0.956386 0.508258 0.057759
C19   C     C_2   0.434060 0.043613 0.491742 0.057759
C20   C     C_R   0.501051 0.494705 0.672253 0.952022
C21   C     C_R   0.498949 0.505295 0.327747 0.952021
C22   C     C_R   0.428394 0.378446 0.187862 0.259560
N1    N     N_2   0.950330 0.457950 0.475660 0.079356
N2    N     N_2   0.049670 0.542050 0.524340 0.079356
O1    O     O_R   0.389250 0.738570 0.505970 -0.596173
O2    O     O_R   0.610750 0.261430 0.494030 -0.596173
O3    O     O_R   0.678390 0.711620 0.490370 -0.569210
O4    O     O_R   0.321610 0.288380 0.509630 -0.569211
O5    O     O_R   0.355420 0.513510 0.639950 -0.579614
O6    O     O_R   0.644580 0.486490 0.360050 -0.579613
O7    O     O_R   0.644560 0.486560 0.624350 -0.592587
O8    O     O_R   0.355440 0.513440 0.375650 -0.592587
Zn1   Zn    Zn3+2 0.306940 0.517990 0.510420 1.153477
Zn2   Zn    Zn3+2 0.693060 0.482010 0.489580 1.153477

loop_
_geom_bond_atom_site_label_1
_geom_bond_atom_site_label_2
_ccdc_geom_bond_type
C12   O2    A    
C20   O5    A    
Br4   N2    S    
C8    C15   A    
C15   C17   A    
Br8   C14   S    
C3    C22   A    
C14   C16   A    
N1    N2    D    
Br3   N1    S    
Br7   C6    S    
Br12  C18   S    
C11   C22   A    
C12   C19   S    
N2    Zn1   S    
C9    C10   A    
C13   C16   A    
N1    Zn2   S    
Br11  C17   S    
Br5   C2    S    
C18   C19   D    
O3    Zn2   S    
C21   O6    A    
C11   C17   A    
C7    C9    A    
C20   O7    A    
C8    C10   A    
Br1   C22   S    
C6    C8    A    
C9    C11   A    
C2    C13   A    
O4    Zn1   S    
O7    Zn2   S    
C2    C4    A    
O2    Zn2   S    
C1    O3    A    
O1    Zn1   S    
C1    C18   S    
O8    Zn1   S    
Br9   C15   S    
C4    C6    A    
O6    Zn2   S    
Br10  C16   S    
C3    C5    A    
Br6   C5    S    
O5    Zn1   S    
C4    C20   S    
C12   O4    A    
C5    C7    A    
C21   O8    A    
C1    O1    A    
C3    C21   S    
Br2   C19   S    
C10   C13   A    
C7    C14   A    
