data_mof_unit_50533.cif
_audit_creation_date              2012-12-10T20:00:00-0500
_audit_creation_method            fapswitch 2.2
_symmetry_space_group_name_H-M    P1
_symmetry_Int_Tables_number       1
_space_group_crystal_system       triclinic
_cell_length_a                    14.79729
_cell_length_b                    14.148488
_cell_length_c                    8.919313
_cell_angle_alpha                 89.99868
_cell_angle_beta                  90.021073
_cell_angle_gamma                 90.07462
_cell_volume                      1867.33923733

loop_
_atom_site_label
_atom_site_type_symbol
_atom_type_description
_atom_site_fract_x
_atom_site_fract_y
_atom_site_fract_z
_atom_type_partial_charge
C1    C     C_R   0.327112 0.499884 0.515136 0.992172
C2    C     C_R   0.432389 0.894653 0.424793 -0.218284
C3    C     C_R   0.499890 0.499997 0.218453 0.933094
C4    C     C_R   0.500109 0.499996 0.781546 0.933170
C5    C     C_R   0.499997 0.053330 0.500010 0.135266
C6    C     C_R   0.499995 0.946598 0.500017 0.106022
C7    C     C_1   0.499964 0.499987 0.065321 -0.143703
C8    C     C_1   0.500035 0.499986 0.934678 -0.143748
C9    C     C_R   0.088648 0.583130 0.580869 0.391479
C10   C     C_R   0.911073 0.415726 0.419767 0.388764
C11   C     C_R   0.911548 0.583866 0.420633 0.391568
C12   C     C_R   0.672876 0.500028 0.484772 0.992227
C13   C     C_R   0.088634 0.414996 0.577879 0.388734
C14   C     C_R   0.182893 0.585063 0.578151 0.301647
C15   C     C_R   0.816871 0.413950 0.423377 0.304639
C16   C     C_R   0.817314 0.585823 0.423521 0.302023
C17   C     C_R   0.182825 0.413199 0.574206 0.304836
C18   C     C_R   0.230169 0.499437 0.551065 -0.393749
C19   C     C_R   0.769796 0.499960 0.448659 -0.393705
C20   C     C_R   0.044508 0.499277 0.538909 -0.160497
C21   C     C_R   0.955449 0.499632 0.460660 -0.160538
C22   C     C_R   0.465555 0.204440 0.380505 0.104968
C23   C     C_R   0.566028 0.795531 0.574493 0.101353
C24   C     C_R   0.534443 0.204535 0.619501 0.103910
C25   C     C_R   0.433953 0.795355 0.425553 0.101174
C26   C     C_R   0.465274 0.105136 0.377901 -0.221596
C27   C     C_R   0.567593 0.894833 0.575256 -0.218096
C28   C     C_R   0.534721 0.105233 0.622114 -0.221780
Cl1   Cl    Cl    0.028591 0.675702 0.670072 -0.374636
Cl2   Cl    Cl    0.970600 0.322992 0.329997 -0.372343
Cl3   Cl    Cl    0.971860 0.677191 0.333454 -0.374251
Cl4   Cl    Cl    0.028830 0.321485 0.665531 -0.371985
Cl5   Cl    Cl    0.237584 0.693506 0.619096 -0.463611
Cl6   Cl    Cl    0.762092 0.304908 0.386470 -0.444612
Cl7   Cl    Cl    0.763004 0.694725 0.385353 -0.463956
Cl8   Cl    Cl    0.237172 0.303668 0.608042 -0.444236
H1    H     H_    0.439105 0.069578 0.279649 0.151702
H2    H     H_    0.622259 0.930419 0.632839 0.172043
H3    H     H_    0.560888 0.069747 0.720372 0.151763
H4    H     H_    0.377717 0.930093 0.367231 0.172002
H5    H     H_    0.438364 0.243136 0.286211 0.142658
H6    H     H_    0.618104 0.756712 0.633144 0.166138
H7    H     H_    0.561631 0.243306 0.713796 0.142671
H8    H     H_    0.381856 0.756399 0.366947 0.165680
N1    N     N_R   0.500000 0.252470 0.500000 -0.095546
N2    N     N_R   0.500000 0.747530 0.500000 -0.108168
O1    O     O_R   0.369060 0.579480 0.500010 -0.588783
O2    O     O_R   0.630940 0.420520 0.499990 -0.574946
O3    O     O_R   0.630940 0.579480 0.499990 -0.588732
O4    O     O_R   0.369060 0.420520 0.500010 -0.574952
O5    O     O_R   0.500000 0.579460 0.285340 -0.612166
O6    O     O_R   0.500000 0.420540 0.714660 -0.627824
O7    O     O_R   0.500000 0.579460 0.714660 -0.611779
O8    O     O_R   0.500000 0.420540 0.285340 -0.627436
Zn1   Zn    Zn3+2 0.500000 0.606140 0.500000 1.024859
Zn2   Zn    Zn3+2 0.500000 0.393860 0.500000 1.029097

loop_
_geom_bond_atom_site_label_1
_geom_bond_atom_site_label_2
_ccdc_geom_bond_type
N2    Zn1   S    
C9    C14   A    
C26   H1    S    
C17   Cl8   S    
C9    Cl1   S    
C4    O7    A    
C5    C28   A    
C1    O4    A    
C14   C18   A    
C13   Cl4   S    
O5    Zn1   S    
C12   O2    A    
C13   C20   A    
C13   C17   A    
C4    C8    S    
C14   Cl5   S    
C17   C18   A    
C11   Cl3   S    
C7    C8    T    
C10   C21   A    
C23   N2    A    
C15   C19   A    
C1    C18   S    
C2    C6    A    
C23   H6    S    
O6    Zn2   S    
C4    O6    A    
C16   C19   A    
C24   N1    A    
C12   C19   S    
C2    H4    S    
C12   O3    A    
C2    C25   A    
C3    C7    S    
C23   C27   A    
O7    Zn1   S    
C16   Cl7   S    
C5    C6    S    
C3    O8    A    
O8    Zn2   S    
C22   H5    S    
C27   H2    S    
C9    C20   A    
C5    C26   A    
C24   C28   A    
C22   N1    A    
C20   C21   S    
C25   H8    S    
O1    Zn1   S    
C22   C26   A    
O2    Zn2   S    
C24   H7    S    
C10   Cl2   S    
C1    O1    A    
C3    O5    A    
C15   Cl6   S    
C28   H3    S    
C10   C15   A    
O3    Zn1   S    
C25   N2    A    
C11   C21   A    
C11   C16   A    
O4    Zn2   S    
C6    C27   A    
N1    Zn2   S    
