data_mof_unit_47600.cif
_audit_creation_date              2012-12-11T17:37:53-0500
_audit_creation_method            fapswitch 2.2
_symmetry_space_group_name_H-M    P1
_symmetry_Int_Tables_number       1
_space_group_crystal_system       triclinic
_cell_length_a                    13.118526
_cell_length_b                    13.050617
_cell_length_c                    15.430367
_cell_angle_alpha                 116.975374
_cell_angle_beta                  63.554171
_cell_angle_gamma                 97.673097
_cell_volume                      2100.18736136

loop_
_atom_site_label
_atom_site_type_symbol
_atom_type_description
_atom_site_fract_x
_atom_site_fract_y
_atom_site_fract_z
_atom_type_partial_charge
C1    C     C_R   0.027856 0.834105 0.026603 -0.123315
C2    C     C_R   0.319615 0.523039 0.781130 -0.128044
C3    C     C_R   0.242306 0.484826 0.109617 -0.148281
C4    C     C_R   0.695648 0.417624 0.214987 0.688710
C5    C     C_R   0.975286 0.305480 0.703036 -0.148970
C6    C     C_R   0.331635 0.550636 0.081048 0.051546
C7    C     C_R   0.911887 0.212331 0.704397 0.073521
C8    C     C_R   0.325664 0.445371 0.680863 0.048308
C9    C     C_R   0.094501 0.148377 0.956735 0.043423
C10   C     C_R   0.299296 0.046849 0.252962 -0.060975
C11   C     C_R   0.198785 0.025480 0.326342 -0.195511
C12   C     C_R   0.694126 0.459604 0.315750 -0.115021
C13   C     C_R   0.091976 0.059390 0.342650 0.123320
C14   C     C_R   0.087115 0.113859 0.284382 -0.198413
C15   C     C_R   0.187557 0.134877 0.210975 -0.181899
C16   C     C_R   0.741029 0.571682 0.941702 -0.113965
C17   C     C_R   0.293565 0.102255 0.195896 -0.016290
C18   C     C_R   0.935249 0.143742 0.521632 -0.228294
C19   C     C_R   0.878331 0.134332 0.618599 0.122712
C20   C     C_R   0.828801 0.030838 0.616589 0.136661
C21   C     C_R   0.861048 0.934160 0.517007 -0.249697
C22   C     C_R   0.947767 0.937747 0.423018 0.052415
C23   C     C_R   0.639048 0.550065 0.011220 0.129017
C24   C     C_R   0.985812 0.045212 0.426194 0.018301
C25   C     C_R   0.783108 0.932735 0.734147 -0.372233
C26   C     C_R   0.715900 0.922995 0.829670 -0.270659
C27   C     C_R   0.616720 0.996552 0.906752 0.798272
C28   C     C_R   0.968080 0.720135 0.315726 -0.128359
C29   C     C_R   0.584717 0.080398 0.888570 -0.449133
C30   C     C_R   0.652252 0.091176 0.793251 0.719316
C31   C     C_R   0.752326 0.017219 0.715262 -0.086162
C32   C     C_R   0.935641 0.392010 0.389242 -0.198335
C33   C     C_R   0.822336 0.363518 0.417852 0.082391
C34   C     C_R   0.990301 0.830232 0.323456 0.064117
C35   C     C_R   0.733155 0.451352 0.492031 0.000683
C36   C     C_R   0.756841 0.562264 0.554407 0.047528
C37   C     C_R   0.870600 0.588533 0.528093 -0.221244
C38   C     C_R   0.959088 0.505561 0.441004 -0.147538
C39   C     C_R   0.529672 0.421869 0.569651 -0.227839
C40   C     C_R   0.662015 0.474357 0.040664 -0.096177
C41   C     C_R   0.419958 0.433877 0.581160 0.071006
C42   C     C_R   0.402269 0.457244 0.507476 -0.020997
C43   C     C_R   0.494595 0.455577 0.417932 -0.164651
C44   C     C_R   0.604327 0.446898 0.407224 0.114934
C45   C     C_R   0.316576 0.587705 0.017295 0.033468
C46   C     C_R   0.622142 0.435617 0.486817 0.046628
C47   C     C_R   0.222102 0.427497 0.486209 -0.169934
C48   C     C_R   0.106090 0.460395 0.532144 -0.148630
C49   C     C_R   0.060748 0.570796 0.616407 -0.097712
C50   C     C_R   0.132269 0.649663 0.653133 -0.112725
C51   C     C_R   0.247461 0.615406 0.610964 -0.111232
C52   C     C_R   0.047776 0.819247 0.219121 -0.121865
C53   C     C_R   0.291334 0.502438 0.530577 0.122560
C54   C     C_2   0.430310 0.570184 0.103144 0.023735
C55   C     C_2   0.529134 0.574155 0.023855 -0.216209
C56   C     C_R   0.898330 0.203769 0.795056 -0.128353
C57   C     C_2   0.904648 0.965830 0.019874 -0.219772
C58   C     C_2   0.906046 0.062892 0.102138 -0.051582
C59   C     C_R   0.792831 0.512608 0.311177 -0.243935
C60   C     C_R   0.928006 0.748514 0.930906 -0.136380
C61   C     C_R   0.954642 0.854497 0.991753 0.126772
C62   C     C_1   0.796037 0.245395 0.373202 0.043255
C63   C     C_1   0.666335 0.653032 0.635304 0.040160
C64   C     C_1   0.420170 0.575558 0.202487 0.057579
C65   C     C_1   0.354756 0.693013 0.008294 0.012107
C66   C     C_R   0.216265 0.425207 0.691122 -0.091514
C67   C     C_R   0.103319 0.252620 0.036034 -0.120158
C68   C     C_R   0.004925 0.169154 0.939846 -0.086758
F1    F     F_    0.629565 0.336963 0.177851 -0.726805
F2    F     F_    0.552112 0.986712 0.999349 -0.716148
F3    F     F_    0.620870 0.173967 0.777501 -0.695473
H1    H     H_    0.074489 0.897668 0.065235 0.099421
H2    H     H_    0.381530 0.021425 0.241050 0.156165
H3    H     H_    0.203969 0.984209 0.371510 0.126260
H4    H     H_    0.005469 0.138470 0.295339 0.121805
H5    H     H_    0.183223 0.176998 0.166283 0.114607
H6    H     H_    0.963816 0.224813 0.520690 0.120718
H7    H     H_    0.822972 0.854769 0.515084 0.140168
H8    H     H_    0.861260 0.877096 0.676421 0.173582
H9    H     H_    0.741049 0.858561 0.843992 0.153232
H10   H     H_    0.507961 0.137590 0.948686 0.182273
H11   H     H_    0.046415 0.528549 0.415607 0.145405
H12   H     H_    0.844820 0.149820 0.829913 0.111454
H13   H     H_    0.750777 0.615581 0.894131 0.096315
H14   H     H_    0.005763 0.327950 0.325776 0.121143
H15   H     H_    0.890729 0.674857 0.570069 0.123499
H16   H     H_    0.542403 0.411864 0.630338 0.143973
H17   H     H_    0.480103 0.473208 0.361933 0.162100
H18   H     H_    0.254866 0.339981 0.424737 0.137739
H19   H     H_    0.050801 0.398329 0.504886 0.130660
H20   H     H_    0.970142 0.594928 0.654114 0.112274
H21   H     H_    0.097507 0.735390 0.717532 0.111099
H22   H     H_    0.932268 0.695001 0.380247 0.099048
H23   H     H_    0.191003 0.364735 0.629850 0.117119
H24   H     H_    0.300631 0.673999 0.645452 0.115992
H25   H     H_    0.531946 0.574984 0.952815 0.138763
H26   H     H_    0.858176 0.968172 0.977506 0.151552
H27   H     H_    0.949043 0.065433 0.148809 0.108129
H28   H     H_    0.602913 0.428926 0.083213 0.172527
H29   H     H_    0.083454 0.884026 0.192865 0.120451
H30   H     H_    0.822270 0.552679 0.371621 0.168755
H31   H     H_    0.882002 0.733349 0.883768 0.086720
H32   H     H_    0.166855 0.268783 0.066112 0.101083
H33   H     H_    0.976676 0.107107 0.881218 0.099375
H34   H     H_    0.389682 0.559414 0.800978 0.115379
H35   H     H_    0.221058 0.453776 0.169337 0.104744
H36   H     H_    0.988700 0.349247 0.654761 0.103489
H37   H     H_    0.371020 0.120431 0.140315 0.176405
N1    N     N_R   0.037320 0.720000 0.995830 -0.045996
N2    N     N_R   0.824900 0.517970 0.936430 -0.046674
N3    N     N_R   0.003190 0.648180 0.211390 -0.037262
N4    N     N_R   0.774330 0.457010 0.995830 -0.050588
N5    N     N_R   0.053760 0.709130 0.151980 -0.045660
N6    N     N_R   0.853840 0.498830 0.211390 -0.070436
N7    N     N_R   0.974250 0.667320 0.936430 -0.042419
N8    N     N_R   0.225670 0.542990 0.004170 -0.057122
N9    N     N_1   0.772185 0.151228 0.340601 -0.067983
N10   N     N_1   0.593150 0.725167 0.699844 -0.074220
N11   N     N_1   0.411366 0.580410 0.282295 -0.095395
N12   N     N_R   0.946240 0.290870 0.848020 -0.045833
N13   N     N_1   0.385089 0.777473 0.001172 -0.033793
N14   N     N_R   0.146160 0.501170 0.788610 -0.043732
N15   N     N_R   0.025750 0.332680 0.063570 -0.043642
N16   N     N_R   0.962680 0.280000 0.004170 -0.043766
N17   N     N_R   0.209230 0.553860 0.848010 -0.046377
N18   N     N_R   0.175100 0.482030 0.063570 -0.048200
N19   N     N_R   0.996810 0.351820 0.788610 -0.045071
N20   N     N_R   0.790770 0.446140 0.151990 -0.106461
Ni1   Ni    Ni4+2 0.130310 0.630310 0.000000 0.227856
Ni2   Ni    Ni4+2 0.869690 0.369690 0.000000 0.264585
Ni3   Ni    Ni4+2 0.985660 0.509480 0.863750 0.218075
Ni4   Ni    Ni4+2 0.014340 0.490520 0.136250 0.211436

loop_
_geom_bond_atom_site_label_1
_geom_bond_atom_site_label_2
_ccdc_geom_bond_type
C25   C31   A    
C8    C66   A    
C6    C45   A    
N15   Ni4   S    
C27   C29   A    
C47   H18   S    
C41   C42   A    
C35   C36   A    
C58   H27   S    
C39   H16   S    
C3    C6    A    
C68   N16   A    
C40   H28   S    
C30   F3    S    
C3    N18   A    
C16   N2    A    
N15   N16   A    
C40   N4    A    
N7    Ni3   S    
C52   N5    A    
C26   C27   A    
C29   C30   A    
C64   N11   T    
N5    Ni1   S    
N12   Ni2   S    
C43   H17   S    
C36   C37   A    
C49   H20   S    
C18   H6    S    
C42   C53   S    
C30   C31   A    
C10   H2    S    
C10   C17   A    
C23   C40   A    
C16   H13   S    
C18   C19   A    
C62   N9    T    
C34   C52   A    
C1    N1    A    
C12   C59   A    
N8    Ni1   S    
C19   C20   A    
C33   C62   S    
C21   H7    S    
C66   N14   A    
C65   N13   T    
C4    C12   A    
C36   C63   S    
C47   C53   A    
C15   H5    S    
C28   C34   A    
C3    H35   S    
C48   H19   S    
C13   C14   A    
C38   H11   S    
C56   N12   A    
C7    C56   A    
C6    C54   S    
C60   H31   S    
C4    F1    S    
C44   C46   A    
N19   Ni3   S    
C28   N3    A    
C22   C34   S    
N12   N19   A    
C1    H1    S    
C4    N20   A    
C67   H32   S    
C59   H30   S    
C37   H15   S    
C8    C41   S    
C39   C41   A    
C17   H37   S    
C5    C7    A    
C63   N10   T    
C25   C26   A    
C52   H29   S    
C26   H9    S    
C13   C24   S    
C1    C61   A    
C28   H22   S    
C51   C53   A    
C43   C44   A    
C9    C67   A    
C29   H10   S    
C37   C38   A    
N6    N20   A    
C47   C48   A    
N18   Ni4   S    
C57   H26   S    
C5    N19   A    
C50   C51   A    
N16   Ni2   S    
N2    Ni3   S    
N3    N5    A    
C57   C61   S    
C27   F2    S    
C39   C46   A    
C50   H21   S    
C48   C49   A    
C16   C23   A    
C32   C38   A    
N1    Ni1   S    
C18   C24   A    
C42   C43   A    
N14   Ni3   S    
C56   H12   S    
C5    H36   S    
C15   C17   A    
C54   C55   D    
C25   H8    S    
N6    Ni4   S    
C2    C8    A    
C68   H33   S    
C55   H25   S    
C11   H3    S    
N20   Ni2   S    
C23   C55   S    
C2    H34   S    
C7    C19   S    
C66   H23   S    
C14   H4    S    
N14   N17   A    
C9    C68   A    
C67   N15   A    
C12   C44   S    
C32   C33   A    
C45   C65   S    
C11   C13   A    
C45   N8    A    
C57   C58   D    
C54   C64   S    
C59   N6    A    
C32   H14   S    
C33   C35   A    
C22   C24   A    
N2    N4    A    
C10   C11   A    
N1    N7    A    
C2    N17   A    
N17   Ni1   S    
N3    Ni4   S    
C20   C21   A    
C49   C50   A    
C14   C15   A    
C60   C61   A    
C60   N7    A    
N8    N18   A    
N4    Ni2   S    
C21   C22   A    
C35   C46   S    
C51   H24   S    
C20   C31   S    
