data_mof_unit_10840.cif
_audit_creation_date              2012-12-10T18:12:43-0500
_audit_creation_method            fapswitch 2.2
_symmetry_space_group_name_H-M    P1
_symmetry_Int_Tables_number       1
_space_group_crystal_system       triclinic
_cell_length_a                    12.64801
_cell_length_b                    13.152529
_cell_length_c                    15.693108
_cell_angle_alpha                 91.112287
_cell_angle_beta                  102.571399
_cell_angle_gamma                 81.703721
_cell_volume                      2521.15385736

loop_
_atom_site_label
_atom_site_type_symbol
_atom_type_description
_atom_site_fract_x
_atom_site_fract_y
_atom_site_fract_z
_atom_type_partial_charge
Br1   Br    Br    0.541415 0.753163 0.329043 -0.416163
Br2   Br    Br    0.190198 0.616839 0.561717 -0.509795
Br3   Br    Br    0.431560 0.285901 0.910907 -0.545739
Br4   Br    Br    0.771172 0.847309 0.386355 -0.375427
Br5   Br    Br    0.887860 0.001976 0.523696 -0.484890
C1    C     C_R   0.438695 0.691396 0.486314 0.924405
C2    C     C_R   0.599461 0.198799 0.517875 -0.130008
C3    C     C_R   0.301953 0.840575 0.501228 -0.232392
C4    C     C_R   0.500915 0.500553 0.661699 0.904969
C5    C     C_R   0.288675 0.936764 0.538073 -0.185472
C6    C     C_R   0.374613 0.994816 0.553592 0.491937
C7    C     C_R   0.466453 0.965817 0.513935 -0.072413
C8    C     C_R   0.476825 0.869764 0.473314 -0.082520
C9    C     C_R   0.547374 0.028945 0.512607 -0.014860
C10   C     C_R   0.649174 0.988600 0.491494 -0.054458
C11   C     C_R   0.654397 0.895126 0.445298 0.229963
C12   C     C_3   0.501073 0.501675 0.917061 0.063334
C13   C     C_R   0.562570 0.843079 0.428471 0.245511
C14   C     C_R   0.522781 0.134314 0.520324 -0.184911
C15   C     C_R   0.707448 0.157070 0.518226 -0.236532
C16   C     C_R   0.561445 0.308738 0.511076 0.866643
C17   C     C_R   0.401277 0.802304 0.479073 -0.089217
C18   C     C_R   0.092207 0.340496 0.383934 -0.274851
C19   C     C_R   0.801163 0.617859 0.612618 -0.138123
C20   C     C_R   0.911025 0.621069 0.654679 0.479407
C21   C     C_R   0.991519 0.562600 0.619013 -0.169652
C22   C     C_R   0.965898 0.511608 0.538880 -0.048241
C23   C     C_3   0.571418 0.420932 0.039617 -0.251320
C24   C     C_R   0.855537 0.499126 0.508092 0.234003
C25   C     C_R   0.045283 0.465675 0.492204 -0.027354
C26   C     C_R   0.015484 0.390935 0.428242 0.151533
C27   C     C_R   0.908383 0.369109 0.407442 -0.237063
C28   C     C_R   0.499276 0.498845 0.338274 0.908608
C29   C     C_R   0.828869 0.424767 0.444941 -0.162049
C30   C     C_R   0.150373 0.495249 0.500899 0.350106
C31   C     C_R   0.196561 0.367599 0.399869 -0.022402
C32   C     C_3   0.397477 0.490516 0.008656 -0.231181
C33   C     C_3   0.426669 0.580425 0.959692 -0.300311
C34   C     C_3   0.497634 0.499695 0.082413 0.068773
C35   C     C_1   0.502697 0.501616 0.751014 -0.147505
C36   C     C_1   0.497128 0.498659 0.248794 -0.117944
C37   C     C_3   0.471601 0.412795 0.964417 0.367659
C38   C     C_3   0.438953 0.054238 0.690893 0.084207
C39   C     C_3   0.385854 0.996445 0.750534 -0.339310
C40   C     C_3   0.462281 0.973094 0.839686 -0.921379
C41   C     C_3   0.865752 0.741746 0.760719 0.066371
C42   C     C_3   0.833245 0.840842 0.705175 -0.309140
C43   C     C_3   0.744228 0.913034 0.736307 -0.979766
C44   C     C_3   0.580280 0.746574 0.017587 0.085625
C45   C     C_3   0.601685 0.510436 0.990849 -0.306482
C46   C     C_3   0.702874 0.753662 0.041179 -0.295471
C47   C     C_3   0.734402 0.824755 0.978057 -0.976882
C48   C     C_3   0.526812 0.587567 0.034207 0.579627
C49   C     C_1   0.502591 0.502013 0.826390 0.018275
C50   C     C_1   0.496738 0.499154 0.173289 0.036713
C51   C     C_R   0.733996 0.051574 0.506742 0.333813
H1    H     H_    0.368965 0.646127 0.925514 0.169270
H2    H     H_    0.073777 0.553184 0.657994 0.208746
H3    H     H_    0.747938 0.405694 0.425206 0.199423
H4    H     H_    0.684299 0.518808 0.981083 0.158359
H5    H     H_    0.629175 0.355363 0.073942 0.177905
H6    H     H_    0.770129 0.206470 0.524076 0.188962
H7    H     H_    0.457164 0.128138 0.722074 0.205601
H8    H     H_    0.519069 0.010492 0.685052 0.133511
H9    H     H_    0.308787 0.043713 0.759258 0.257121
H10   H     H_    0.365701 0.922621 0.720312 0.215146
H11   H     H_    0.538062 0.922717 0.832401 0.253621
H12   H     H_    0.439560 0.167989 0.519015 0.224232
H13   H     H_    0.420934 0.932776 0.881683 0.262834
H14   H     H_    0.484231 0.045275 0.872076 0.304248
H15   H     H_    0.902087 0.763601 0.828358 0.181973
H16   H     H_    0.794677 0.704190 0.767355 0.117183
H17   H     H_    0.906313 0.880257 0.709931 0.265037
H18   H     H_    0.802653 0.823430 0.635428 0.235472
H19   H     H_    0.669961 0.875192 0.730201 0.252308
H20   H     H_    0.722939 0.984234 0.695624 0.282356
H21   H     H_    0.773095 0.934154 0.805471 0.278639
H22   H     H_    0.534429 0.823836 0.024552 0.181757
H23   H     H_    0.238991 0.792881 0.498595 0.237272
H24   H     H_    0.555940 0.725878 0.947381 0.112816
H25   H     H_    0.724805 0.783219 0.108631 0.264957
H26   H     H_    0.750298 0.676057 0.039176 0.214944
H27   H     H_    0.715137 0.795322 0.910428 0.254396
H28   H     H_    0.823632 0.828296 0.996902 0.277800
H29   H     H_    0.689569 0.903566 0.980053 0.282068
H30   H     H_    0.215800 0.961756 0.562895 0.200494
H31   H     H_    0.257169 0.328394 0.366859 0.150893
H32   H     H_    0.884941 0.311525 0.359382 0.163853
H33   H     H_    0.071240 0.281427 0.336709 0.164825
H34   H     H_    0.733472 0.657691 0.637112 0.143230
H35   H     H_    0.314846 0.481162 0.017911 0.181702
N1    N     N_R   0.222180 0.444680 0.455580 -0.119652
N2    N     N_R   0.776980 0.554790 0.543960 -0.134910
O1    O     O_R   0.366730 0.627160 0.478790 -0.569760
O2    O     O_3   0.947207 0.673415 0.731545 -0.628875
O3    O     O_3   0.554578 0.678752 0.076574 -0.605320
O4    O     O_R   0.544830 0.662520 0.507160 -0.604909
O5    O     O_R   0.410960 0.482330 0.609040 -0.562999
O6    O     O_R   0.589060 0.517690 0.637410 -0.631010
O7    O     O_R   0.455170 0.337480 0.492840 -0.622232
O8    O     O_R   0.633270 0.372840 0.521210 -0.639241
O9    O     O_R   0.410940 0.482310 0.362590 -0.616023
O10   O     O_R   0.589040 0.517670 0.390960 -0.596452
O11   O     O_3   0.366677 0.077634 0.608956 -0.659600
Zn1   Zn    Zn3+2 0.381080 0.476390 0.481050 1.004885
Zn2   Zn    Zn3+2 0.618920 0.523610 0.518950 0.962881

loop_
_geom_bond_atom_site_label_1
_geom_bond_atom_site_label_2
_ccdc_geom_bond_type
Br2   C30   S    
Br3   C37   S    
C4    O5    A    
C22   C24   A    
C43   H20   S    
Br5   C51   S    
C39   H10   S    
C15   C51   A    
C38   H7    S    
O1    Zn1   S    
O7    Zn1   S    
O5    Zn1   S    
C25   C30   A    
C47   H29   S    
C25   C26   A    
C10   C11   A    
C27   H32   S    
C44   H22   S    
O9    Zn1   S    
C32   C37   S    
C47   H28   S    
C38   O11   S    
C36   C50   T    
C12   C37   S    
C23   C45   S    
C34   C50   S    
C41   O2    S    
C42   C43   S    
C44   C46   S    
C40   H11   S    
C3    H23   S    
C3    C17   A    
C18   H33   S    
C6    O11   S    
C46   H25   S    
C41   H16   S    
C16   O8    A    
C23   H5    S    
C31   N1    A    
C4    O6    A    
C48   O3    S    
C43   H19   S    
C39   H9    S    
C38   H8    S    
C31   H31   S    
C45   C48   S    
C32   H35   S    
C40   H13   S    
C28   O9    A    
C1    O4    A    
C19   C20   A    
C42   H17   S    
C16   O7    A    
C23   C34   S    
C1    O1    A    
C20   C21   A    
C2    C16   S    
C24   C29   A    
C4    C35   S    
C46   C47   S    
C27   C29   A    
C43   H21   S    
Br4   C11   S    
C47   H27   S    
C38   C39   S    
C32   C33   S    
N2    Zn2   S    
C33   H1    S    
C26   C27   A    
Br1   C13   S    
C14   H12   S    
C21   H2    S    
C46   H26   S    
C41   H15   S    
O4    Zn2   S    
C8    C13   A    
C11   C13   A    
C7    C9    A    
C20   O2    S    
C2    C14   A    
C21   C22   A    
C29   H3    S    
C39   C40   S    
O8    Zn2   S    
O6    Zn2   S    
C41   C42   S    
C5    H30   S    
C40   H14   S    
C28   O10   A    
C9    C14   A    
C42   H18   S    
C19   H34   S    
C12   C45   S    
C6    C7    A    
C18   C31   A    
C35   C49   T    
C44   H24   S    
C45   H4    S    
C10   C51   A    
C28   C36   S    
C32   C34   S    
C19   N2    A    
C30   N1    A    
C24   N2    A    
C34   C48   S    
C33   C48   S    
C23   C37   S    
C8    C17   A    
O10   Zn2   S    
C12   C33   S    
C44   O3    S    
C15   H6    S    
C5    C6    A    
N1    Zn1   S    
C7    C8    A    
C3    C5    A    
C2    C15   A    
C9    C10   A    
C12   C49   S    
C18   C26   A    
C22   C25   A    
C1    C17   S    
