data_mof_unit_25363.cif
_audit_creation_date              2012-12-11T14:23:17-0500
_audit_creation_method            fapswitch 2.2
_symmetry_space_group_name_H-M    P1
_symmetry_Int_Tables_number       1
_space_group_crystal_system       triclinic
_cell_length_a                    10.951208
_cell_length_b                    11.029528
_cell_length_c                    18.942563
_cell_angle_alpha                 90.695699
_cell_angle_beta                  89.931329
_cell_angle_gamma                 59.678495
_cell_volume                      1974.80645762

loop_
_atom_site_label
_atom_site_type_symbol
_atom_type_description
_atom_site_fract_x
_atom_site_fract_y
_atom_site_fract_z
_atom_type_partial_charge
C1    C     C_R   0.234246 0.646513 0.609232 0.592305
C2    C     C_R   0.570250 0.158386 0.711919 -0.146066
C3    C     C_R   0.577713 0.152727 0.783821 -0.166270
C4    C     C_R   0.650118 0.617322 0.603559 0.622538
C5    C     C_R   0.919426 0.144333 0.813715 -0.109511
C6    C     C_R   0.032007 0.130563 0.773192 -0.153173
C7    C     C_R   0.031288 0.117602 0.700131 -0.136875
C8    C     C_R   0.915932 0.123782 0.666741 -0.071749
C9    C     C_R   0.673941 0.163945 0.672193 0.028065
C10   C     C_R   0.176522 0.669342 0.832542 -0.008856
C11   C     C_R   0.192180 0.549762 0.795908 -0.015804
C12   C     C_3   0.802544 0.516836 0.789167 -0.245223
C13   C     C_R   0.179735 0.550978 0.720672 0.050144
C14   C     C_R   0.181758 0.771190 0.721775 -0.154386
C15   C     C_R   0.178530 0.775291 0.794389 -0.154324
C16   C     C_R   0.630431 0.225442 0.601802 0.539163
C17   C     C_R   0.222238 0.428202 0.833065 -0.104316
C18   C     C_R   0.225582 0.315326 0.798883 -0.193676
C19   C     C_R   0.198117 0.321270 0.727345 -0.129965
C20   C     C_R   0.169166 0.438750 0.688161 0.261530
C21   C     C_R   0.183651 0.661272 0.683161 0.054866
C22   C     C_R   0.707155 0.678378 0.178060 0.013375
C23   C     C_3   0.697571 0.668650 0.814261 0.016532
C24   C     C_R   0.823139 0.569039 0.217052 0.028516
C25   C     C_R   0.796064 0.529623 0.282937 0.037815
C26   C     C_R   0.543522 0.705197 0.270726 -0.164074
C27   C     C_R   0.569305 0.737622 0.203970 -0.138158
C28   C     C_R   0.222820 0.647204 0.401492 0.543094
C29   C     C_R   0.964996 0.488916 0.190484 -0.095516
C30   C     C_R   0.073480 0.379706 0.226159 -0.155317
C31   C     C_R   0.049121 0.344769 0.290828 -0.136953
C32   C     C_R   0.912454 0.408739 0.315520 -0.077631
C33   C     C_R   0.654734 0.609735 0.312428 0.001401
C34   C     C_3   0.665507 0.641798 0.679413 0.052794
C35   C     C_R   0.635259 0.160636 0.176400 0.005234
C36   C     C_R   0.552943 0.123168 0.220331 0.029580
C37   C     C_R   0.579153 0.111343 0.293193 0.023407
C38   C     C_R   0.701668 0.241799 0.278227 -0.147577
C39   C     C_R   0.705507 0.223473 0.206107 -0.150728
C40   C     C_R   0.622470 0.590249 0.385280 0.549181
C41   C     C_R   0.442970 0.101349 0.195713 -0.103849
C42   C     C_R   0.374933 0.054927 0.240852 -0.159611
C43   C     C_R   0.418350 0.022686 0.310244 -0.114668
C44   C     C_R   0.523355 0.046127 0.335855 -0.070361
C45   C     C_3   0.693132 0.765094 0.691705 0.099483
C46   C     C_R   0.647123 0.179113 0.322460 0.004376
C47   C     C_R   0.141648 0.691865 0.186418 0.004436
C48   C     C_R   0.102067 0.810916 0.232289 0.038682
C49   C     C_R   0.087507 0.796077 0.304487 0.020219
C50   C     C_R   0.222816 0.542832 0.287024 -0.133285
C51   C     C_R   0.209476 0.558420 0.214404 -0.169737
C52   C     C_R   0.617892 0.228910 0.395014 0.521324
C53   C     C_R   0.084364 0.941686 0.210716 -0.083277
C54   C     C_R   0.031656 0.055697 0.256952 -0.153431
C55   C     C_R   0.997682 0.043158 0.326052 -0.117991
C56   C     C_3   0.786421 0.502663 0.710681 -0.215059
C57   C     C_R   0.019934 0.915471 0.349134 -0.076197
C58   C     C_R   0.161823 0.661867 0.332198 0.010224
C59   C     C_R   0.703770 0.099039 0.894931 0.538222
C60   C     C_R   0.721986 0.685995 0.889230 0.553553
C61   C     C_R   0.118053 0.705751 0.905158 0.541430
C62   C     C_R   0.672526 0.106103 0.104477 0.543740
C63   C     C_R   0.730131 0.712334 0.106285 0.557114
C64   C     C_3   0.545186 0.699673 0.800637 -0.263779
C65   C     C_R   0.092428 0.712657 0.113320 0.537900
C66   C     C_3   0.528078 0.677917 0.721165 -0.273401
C67   C     C_R   0.692802 0.144292 0.820654 -0.005953
C68   C     C_3   0.725531 0.771180 0.770486 -0.186201
C69   C     C_R   0.803311 0.144736 0.781355 0.020332
C70   C     C_R   0.797414 0.144989 0.706044 0.032071
Cl1   Cl    Cl    0.829818 0.757522 0.636778 -0.594313
Cl2   Cl    Cl    0.098239 0.442389 0.603670 -0.555288
Cr1   Cr    Cr6+3 0.392940 0.397950 0.502230 1.085393
Cr2   Cr    Cr6+3 0.398400 0.708500 0.501260 1.016047
Cr3   Cr    Cr6+3 0.708640 0.393530 0.496460 1.021006
Cr4   Cr    Cr6+3 0.937880 0.938320 0.007620 0.999481
Cr5   Cr    Cr6+3 0.625560 0.937220 0.994510 0.995219
Cr6   Cr    Cr6+3 0.938080 0.625010 0.001190 0.986348
H1    H     H_    0.467284 0.809741 0.816704 0.123199
H2    H     H_    0.522725 0.628882 0.832461 0.127368
H3    H     H_    0.249240 0.416928 0.888445 0.140033
H4    H     H_    0.175007 0.864308 0.820928 0.148337
H5    H     H_    0.251296 0.222193 0.828320 0.103506
H6    H     H_    0.200980 0.232702 0.701635 0.129594
H7    H     H_    0.435412 0.755079 0.290025 0.133221
H8    H     H_    0.001115 0.497680 0.140733 0.189192
H9    H     H_    0.480534 0.808516 0.171925 0.137888
H10   H     H_    0.176692 0.319638 0.202188 0.107508
H11   H     H_    0.133036 0.256745 0.318350 0.127852
H12   H     H_    0.888086 0.471317 0.684199 0.224628
H13   H     H_    0.503481 0.592084 0.714288 0.125152
H14   H     H_    0.906365 0.347441 0.357044 0.148294
H15   H     H_    0.742806 0.304523 0.299567 0.125622
H16   H     H_    0.398439 0.130098 0.143736 0.141191
H17   H     H_    0.762136 0.259340 0.173516 0.130005
H18   H     H_    0.289812 0.041476 0.221296 0.103543
H19   H     H_    0.368352 0.982595 0.344687 0.131362
H20   H     H_    0.554662 0.020638 0.390342 0.145154
H21   H     H_    0.286390 0.437804 0.307510 0.157841
H22   H     H_    0.120247 0.957642 0.160547 0.142179
H23   H     H_    0.837383 0.744401 0.777407 0.171609
H24   H     H_    0.255007 0.467232 0.179691 0.111885
H25   H     H_    0.437143 0.775724 0.700528 0.125256
H26   H     H_    0.014434 0.154147 0.237597 0.119376
H27   H     H_    0.956082 0.130636 0.362592 0.114756
H28   H     H_    0.995452 0.907462 0.403732 0.135932
H29   H     H_    0.657541 0.880275 0.790417 0.121042
H30   H     H_    0.595627 0.864990 0.678132 0.126171
H31   H     H_    0.913865 0.488778 0.799181 0.168945
H32   H     H_    0.782415 0.441635 0.818386 0.132450
H33   H     H_    0.763301 0.416463 0.701792 0.136903
H34   H     H_    0.478012 0.164342 0.687675 0.151474
H35   H     H_    0.122844 0.095745 0.668836 0.113280
H36   H     H_    0.924650 0.157247 0.869897 0.141706
H37   H     H_    0.494248 0.146092 0.810224 0.149517
H38   H     H_    0.123178 0.122731 0.799061 0.099773
H39   H     H_    0.923566 0.105717 0.610289 0.148020
H40   H     H_    0.191533 0.851950 0.695692 0.144459
O1    O     O_R   0.507340 0.255690 0.581430 -0.503422
O2    O     O_R   0.837290 0.593240 0.915240 -0.521259
O3    O     O_R   0.065320 0.635310 0.931580 -0.506755
O4    O     O_R   0.280360 0.527380 0.578910 -0.437186
O5    O     O_R   0.068470 0.828620 0.091850 -0.533859
O6    O     O_R   0.799150 0.057200 0.079350 -0.496724
O7    O     O_R   0.585220 0.080180 0.076770 -0.546099
O8    O     O_R   0.627170 0.809480 0.067050 -0.500517
O9    O     O_R   0.816200 0.596410 0.076500 -0.543595
O10   O     O_R   0.045770 0.638240 0.081070 -0.545156
O11   O     O_3   0.833840 0.833520 0.001110 -0.257199
O12   O     O_R   0.524510 0.695820 0.424050 -0.489737
O13   O     O_R   0.260600 0.739610 0.584580 -0.545752
O14   O     O_R   0.532370 0.695050 0.573830 -0.511176
O15   O     O_R   0.744850 0.503430 0.576380 -0.470405
O16   O     O_R   0.699080 0.276500 0.571950 -0.529308
O17   O     O_R   0.498860 0.256520 0.419860 -0.520178
O18   O     O_R   0.272490 0.528150 0.429140 -0.483340
O19   O     O_R   0.252110 0.740440 0.423010 -0.533964
O20   O     O_R   0.736370 0.504260 0.414810 -0.521080
O21   O     O_R   0.691220 0.277270 0.422180 -0.540204
O22   O     O_3   0.499990 0.499990 0.499980 -0.288083
O23   O     O_R   0.089570 0.825450 0.930590 -0.523407
O24   O     O_R   0.818700 0.054260 0.929860 -0.508099
O25   O     O_R   0.606310 0.077010 0.915520 -0.535689
O26   O     O_R   0.646730 0.806540 0.917560 -0.506622

loop_
_geom_bond_atom_site_label_1
_geom_bond_atom_site_label_2
_ccdc_geom_bond_type
C34   C56   S    
C18   H5    S    
Cr1   O1    S    
Cr2   O14   S    
C5    H36   S    
C45   Cl1   S    
C41   C42   A    
C6    C7    A    
Cr6   O2    S    
C19   C20   A    
C16   O16   A    
C34   C66   S    
C12   H32   S    
Cr3   O16   S    
C7    C8    A    
C4    O14   A    
C41   H16   S    
C32   H14   S    
C53   C54   A    
C51   H24   S    
C1    C21   S    
C12   C23   S    
C2    H34   S    
C26   C27   A    
C55   H27   S    
C42   H18   S    
C5    C6    A    
C14   C21   A    
C54   H26   S    
C36   C37   A    
C9    C16   S    
C10   C15   A    
C30   C31   A    
C46   C52   S    
C52   O21   A    
C49   C57   A    
C61   O3    A    
C18   C19   A    
Cr6   O3    S    
C1    O4    A    
C5    C69   A    
C59   C67   S    
C22   C63   S    
C24   C29   A    
C44   H20   S    
C11   C17   A    
Cr1   O17   S    
C59   O24   A    
C14   H40   S    
C40   O20   A    
C68   H29   S    
C56   H33   S    
C45   H30   S    
Cr4   O23   S    
C25   C32   A    
C56   H12   S    
C57   H28   S    
C59   O25   A    
Cr6   O10   S    
Cr2   O13   S    
C64   H2    S    
C36   C41   A    
C48   C53   A    
Cr6   O9    S    
C62   O6    A    
C12   H31   S    
C8    H39   S    
C50   C51   A    
C15   H4    S    
C53   H22   S    
C23   C60   S    
Cr2   O19   S    
C4    C34   S    
C33   C40   S    
Cr4   O6    S    
C65   O10   A    
C9    C70   A    
C16   O1    A    
C47   C51   A    
C31   H11   S    
Cr2   O22   S    
C49   C58   A    
C67   C69   A    
C35   C36   A    
C50   C58   A    
C23   C68   S    
C35   C39   A    
C43   C44   A    
Cr5   O25   S    
C29   C30   A    
Cr4   O11   S    
C26   C33   A    
C47   C48   A    
Cr1   O18   S    
C39   H17   S    
C45   C68   S    
C17   C18   A    
C50   H21   S    
C13   C21   A    
C34   C45   S    
Cr5   O11   S    
C24   C25   A    
C27   H9    S    
C6    H38   S    
C29   H8    S    
C12   C56   S    
C61   O23   A    
C23   C64   S    
C22   C27   A    
Cr2   O12   S    
C64   H1    S    
C22   C24   A    
C10   C61   S    
C42   C43   A    
C30   H10   S    
C19   H6    S    
Cr5   O7    S    
C40   O12   A    
C54   C55   A    
C48   C49   A    
C13   C20   A    
C28   O18   A    
Cr4   O5    S    
C66   H25   S    
Cr6   O11   S    
C31   C32   A    
C3    C67   A    
C28   O19   A    
C43   H19   S    
C1    O13   A    
Cr3   O20   S    
C62   O7    A    
Cr3   O15   S    
C66   H13   S    
Cr1   O22   S    
C28   C58   S    
C8    C70   A    
C68   H23   S    
Cr3   O22   S    
C7    H35   S    
C37   C44   A    
C55   C57   A    
C2    C3    A    
Cr5   O26   S    
C3    H37   S    
C60   O26   A    
C11   C13   A    
C38   C39   A    
C26   H7    S    
C38   H15   S    
C60   O2    A    
C35   C62   S    
C17   H3    S    
C65   O5    A    
C69   C70   A    
C38   C46   A    
C63   O8    A    
C10   C11   A    
Cr1   O4    S    
C25   C33   A    
C52   O17   A    
C14   C15   A    
C20   Cl2   S    
Cr3   O21   S    
C37   C46   A    
C2    C9    A    
C47   C65   S    
C63   O9    A    
Cr5   O8    S    
C64   C66   S    
C4    O15   A    
Cr4   O24   S    
