data_mof_unit_46834.cif
_audit_creation_date              2012-12-10T16:53:58-0500
_audit_creation_method            fapswitch 2.2
_symmetry_space_group_name_H-M    P1
_symmetry_Int_Tables_number       1
_space_group_crystal_system       triclinic
_cell_length_a                    7.769017
_cell_length_b                    8.564618
_cell_length_c                    10.630608
_cell_angle_alpha                 91.287831
_cell_angle_beta                  85.067192
_cell_angle_gamma                 93.865096
_cell_volume                      703.02472319

loop_
_atom_site_label
_atom_site_type_symbol
_atom_type_description
_atom_site_fract_x
_atom_site_fract_y
_atom_site_fract_z
_atom_type_partial_charge
C1    C     C_R   0.545943 0.794813 0.496666 0.971926
C2    C     C_3   0.315616 0.542234 0.941647 -0.031375
C3    C     C_3   0.313406 0.530889 0.084787 -0.449328
C4    C     C_3   0.545356 0.335728 0.920943 -0.097331
C5    C     C_3   0.637819 0.624513 0.922403 -0.458466
C6    C     C_3   0.498388 0.501153 0.878787 0.096545
C7    C     C_3   0.497152 0.499256 0.121971 0.097282
C8    C     C_3   0.556816 0.338836 0.065935 -0.048858
C9    C     C_3   0.626200 0.632541 0.067257 -0.457966
C10   C     C_2   0.570069 0.958410 0.494570 -0.387336
C11   C     C_2   0.429889 0.041602 0.504915 -0.391655
C12   C     C_R   0.500830 0.503013 0.742187 0.855534
C13   C     C_R   0.454044 0.205195 0.503066 0.941490
C14   C     C_R   0.499109 0.501277 0.258001 0.848037
H1    H     H_    0.214108 0.456087 0.909750 0.144196
H2    H     H_    0.702325 0.009827 0.484575 0.178914
H3    H     H_    0.985867 0.617454 0.595682 0.190624
H4    H     H_    0.138553 0.709342 0.933066 0.172185
H5    H     H_    0.339572 0.786227 0.951847 0.205185
H6    H     H_    0.215584 0.437304 0.118744 0.153035
H7    H     H_    0.300113 0.220268 0.915065 0.186414
H8    H     H_    0.432259 0.201546 0.781356 0.178385
H9    H     H_    0.331621 0.213711 0.139100 0.182104
H10   H     H_    0.507510 0.189496 0.216894 0.176169
H11   H     H_    0.622002 0.742024 0.884136 0.187504
H12   H     H_    0.696450 0.333247 0.081737 0.136627
H13   H     H_    0.297629 0.990199 0.514908 0.182394
H14   H     H_    0.014152 0.382546 0.404328 0.184732
H15   H     H_    0.270288 0.641145 0.131327 0.185334
H16   H     H_    0.769541 0.591513 0.886351 0.175479
H17   H     H_    0.582580 0.748589 0.101034 0.185173
H18   H     H_    0.757848 0.622466 0.098995 0.183944
H19   H     H_    0.676897 0.313457 0.876367 0.146434
N1    N     N_2   0.950330 0.457950 0.465890 -0.178295
N2    N     N_2   0.049670 0.542050 0.534110 -0.175573
N3    N     N_3   0.269535 0.697867 0.904806 -0.439866
N4    N     N_3   0.427703 0.206105 0.879850 -0.440828
N5    N     N_3   0.464642 0.201087 0.127211 -0.445364
O1    O     O_R   0.389250 0.738570 0.508370 -0.606745
O2    O     O_R   0.678390 0.711620 0.486510 -0.630529
O3    O     O_R   0.355430 0.513500 0.696140 -0.607844
O4    O     O_R   0.644580 0.486550 0.674270 -0.640788
O5    O     O_R   0.321610 0.288380 0.513490 -0.631907
O6    O     O_R   0.610750 0.261430 0.491630 -0.611071
O7    O     O_R   0.355420 0.513450 0.325730 -0.634113
O8    O     O_R   0.644570 0.486500 0.303860 -0.634687
Zn1   Zn    Zn3+2 0.306940 0.517990 0.514600 0.932265
Zn2   Zn    Zn3+2 0.693060 0.482010 0.485400 0.922018

loop_
_geom_bond_atom_site_label_1
_geom_bond_atom_site_label_2
_ccdc_geom_bond_type
H10   N5    S    
C5    C9    S    
C12   O3    A    
C7    C14   S    
H9    N5    S    
C8    H12   S    
C1    O1    A    
C1    O2    A    
C11   H13   S    
C4    C8    S    
N2    Zn1   S    
C3    H6    S    
C2    C3    S    
O3    Zn1   S    
H14   N1    S    
C7    C8    S    
C14   O8    A    
O4    Zn2   S    
C2    H1    S    
C11   C13   S    
H4    N3    S    
C2    C6    S    
C8    N5    S    
C5    H11   S    
O1    Zn1   S    
N1    N2    D    
C14   O7    A    
C3    C7    S    
H5    N3    S    
O7    Zn1   S    
C6    C12   S    
C5    C6    S    
O8    Zn2   S    
N1    Zn2   S    
C10   C11   D    
C9    H17   S    
C12   O4    A    
C7    C9    S    
C13   O5    A    
H7    N4    S    
C4    N4    S    
C4    C6    S    
C5    H16   S    
C2    N3    S    
C3    H15   S    
O2    Zn2   S    
C4    H19   S    
C10   H2    S    
H3    N2    S    
C9    H18   S    
H8    N4    S    
O5    Zn1   S    
C13   O6    A    
C1    C10   S    
O6    Zn2   S    
