data_mof_unit_29488.cif
_audit_creation_date              2012-10-26T18:59:55-0400
_audit_creation_method            fapswitch 2.2
_symmetry_space_group_name_H-M    P1
_symmetry_Int_Tables_number       1
_space_group_crystal_system       triclinic
_cell_length_a                    9.54113
_cell_length_b                    10.816952
_cell_length_c                    17.09232
_cell_angle_alpha                 89.101629
_cell_angle_beta                  94.090586
_cell_angle_gamma                 90.12803
_cell_volume                      1759.31782156

loop_
_atom_site_label
_atom_site_type_symbol
_atom_type_description
_atom_site_fract_x
_atom_site_fract_y
_atom_site_fract_z
_atom_type_partial_charge
C1    C     C_R   0.500147 0.262348 0.501863 0.548890
C2    C     C_R   0.501629 0.129212 0.510012 0.001759
C3    C     C_R   0.379087 0.063645 0.525799 -0.168913
C4    C     C_R   0.517633 0.500815 0.650780 0.553666
C5    C     C_R   0.378942 0.934646 0.525372 -0.188372
C6    C     C_R   0.501316 0.870466 0.509200 0.009883
C7    C     C_R   0.625673 0.936737 0.503104 0.022912
C8    C     C_3   0.731402 0.934647 0.442190 0.148947
C9    C     C_3   0.733805 0.076009 0.444715 -0.240343
C10   C     C_R   0.068688 0.587910 0.458288 0.153473
C11   C     C_R   0.080202 0.420437 0.546664 0.007492
C12   C     C_R   0.647550 0.458806 0.778945 -0.161488
C13   C     C_R   0.931271 0.420378 0.546639 -0.006858
C14   C     C_R   0.921137 0.588009 0.458290 0.161864
C15   C     C_3   0.905052 0.608994 0.371668 -0.272458
C16   C     C_R   0.500191 0.737619 0.501513 0.555115
C17   C     C_3   0.063668 0.608523 0.371817 -0.291189
C18   C     C_R   0.482461 0.501234 0.349128 0.546061
C19   C     C_R   0.528378 0.507373 0.736547 -0.057863
C20   C     C_R   0.420492 0.561625 0.776973 0.222093
C21   C     C_R   0.428790 0.557107 0.858690 -0.125599
C22   C     C_R   0.546748 0.504510 0.901162 0.192986
C23   C     C_R   0.582387 0.469957 0.141770 -0.084415
C24   C     C_R   0.656702 0.457842 0.860585 0.386023
C25   C     C_3   0.570034 0.936327 0.327120 0.013869
C26   C     C_3   0.483592 0.838874 0.281408 -0.251233
C27   C     C_3   0.360736 0.897106 0.232042 -0.482135
C28   C     C_3   0.332151 0.731559 0.708054 0.035928
C29   C     C_3   0.307369 0.830659 0.768597 -0.282367
C30   C     C_3   0.324135 0.960388 0.734032 -0.471657
C31   C     C_R   0.587670 0.463515 0.223197 -0.164638
C32   C     C_R   0.461602 0.516727 0.098877 0.225364
C33   C     C_R   0.473198 0.503290 0.263230 0.001747
C34   C     C_R   0.352461 0.548147 0.220592 -0.165571
C35   C     C_R   0.347046 0.554806 0.139009 -0.108544
C36   C     C_R   0.626464 0.064146 0.504259 -0.036346
Cu1   Cu    Cu3+1 0.640670 0.499980 0.500000 0.946862
Cu2   Cu    Cu3+1 0.359330 0.500020 0.500000 0.943869
F1    F     F_    0.771636 0.408099 0.900508 -0.609504
H1    H     H_    0.681183 0.426761 0.254771 0.118721
H2    H     H_    0.103286 0.527776 0.340721 0.153250
H3    H     H_    0.672799 0.438492 0.112841 0.161928
H4    H     H_    0.108660 0.699541 0.355682 0.123251
H5    H     H_    0.732295 0.418699 0.748877 0.161321
H6    H     H_    0.263991 0.581499 0.250153 0.116383
H7    H     H_    0.342759 0.595539 0.888429 0.165952
H8    H     H_    0.253755 0.591063 0.106849 0.128591
H9    H     H_    0.282116 0.111505 0.534876 0.130865
H10   H     H_    0.612601 0.003333 0.284878 0.140651
H11   H     H_    0.498401 0.985911 0.364306 0.140447
H12   H     H_    0.281851 0.885998 0.534115 0.125200
H13   H     H_    0.551834 0.788900 0.242370 0.183606
H14   H     H_    0.441813 0.771073 0.323382 0.175323
H15   H     H_    0.289158 0.944619 0.270316 0.149106
H16   H     H_    0.300533 0.824045 0.199384 0.152470
H17   H     H_    0.399790 0.964784 0.189126 0.160298
H18   H     H_    0.259148 0.748633 0.655446 0.164284
H19   H     H_    0.440584 0.740252 0.688010 0.116372
H20   H     H_    0.199592 0.820545 0.788645 0.184803
H21   H     H_    0.384052 0.818593 0.820172 0.161517
H22   H     H_    0.431099 0.972452 0.713240 0.161198
H23   H     H_    0.832159 0.893238 0.466481 0.122935
H24   H     H_    0.308588 0.030037 0.779640 0.166297
H25   H     H_    0.244750 0.976625 0.684199 0.144219
H26   H     H_    0.834802 0.112864 0.471332 0.103985
H27   H     H_    0.694326 0.126580 0.390622 0.127555
H28   H     H_    0.140623 0.354358 0.583221 0.121988
H29   H     H_    0.879859 0.354257 0.583168 0.118091
H30   H     H_    0.856030 0.529451 0.339842 0.147670
H31   H     H_    0.858281 0.700338 0.355293 0.184109
N1    N     N_2   0.558473 0.495668 0.984253 -0.183129
N2    N     N_2   0.450451 0.526758 0.015867 -0.259127
N3    N     N_R   0.147870 0.500930 0.499500 -0.231594
N4    N     N_R   0.851960 0.500890 0.499500 -0.233996
O1    O     O_R   0.618810 0.319640 0.500000 -0.506176
O2    O     O_3   0.301543 0.612304 0.737859 -0.541252
O3    O     O_R   0.381230 0.319680 0.499990 -0.513180
O4    O     O_R   0.631790 0.498830 0.613930 -0.516893
O5    O     O_R   0.394210 0.498870 0.613920 -0.457013
O6    O     O_R   0.618770 0.680320 0.500010 -0.475249
O7    O     O_R   0.381190 0.680360 0.500000 -0.522156
O8    O     O_R   0.605790 0.501130 0.386080 -0.501123
O9    O     O_R   0.368210 0.501170 0.386070 -0.507523
O10   O     O_3   0.683702 0.877039 0.370480 -0.573284

loop_
_geom_bond_atom_site_label_1
_geom_bond_atom_site_label_2
_ccdc_geom_bond_type
Cu1   N4    S    
C30   H25   S    
Cu2   O9    S    
C1    O3    A    
C7    C36   A    
C19   C20   A    
C35   H8    S    
C27   H15   S    
C7    C8    S    
C32   N2    S    
C28   H18   S    
C26   C27   S    
C29   C30   S    
C23   H3    S    
C14   N4    A    
C28   C29   S    
C1    C2    S    
C5    C6    A    
C10   N3    A    
C27   H16   S    
Cu2   O5    S    
C10   C17   S    
C3    H9    S    
C24   F1    S    
C31   H1    S    
C20   O2    S    
C34   C35   A    
C25   H11   S    
C9    H27   S    
C4    C19   S    
C29   H20   S    
C8    C9    S    
C25   O10   S    
C31   C33   A    
Cu1   O1    S    
C30   H24   S    
C11   H28   S    
C33   C34   A    
C17   H2    S    
C15   H30   S    
Cu1   O6    S    
C1    O1    A    
C32   C35   A    
C4    O5    A    
C10   C14   A    
C27   H17   S    
C25   C26   S    
C16   O6    A    
C23   C31   A    
C17   H4    S    
C4    O4    A    
Cu1   Cu2   S    
C26   H13   S    
C9    C36   S    
C29   H21   S    
C9    H26   S    
C18   O9    A    
C34   H6    S    
C13   N4    A    
Cu2   O7    S    
C11   N3    A    
C22   C24   A    
Cu1   O8    S    
C28   O2    S    
C26   H14   S    
C22   N1    S    
C21   H7    S    
C2    C36   A    
C15   C17   S    
C15   H31   S    
C8    O10   S    
C3    C5    A    
C6    C7    A    
Cu2   O3    S    
C28   H19   S    
Cu1   O4    S    
C12   C24   A    
C23   C32   A    
C2    C3    A    
N1    N2    D    
C12   H5    S    
C11   C13   A    
C12   C19   A    
C16   O7    A    
C18   O8    A    
C18   C33   S    
C25   H10   S    
C6    C16   S    
C20   C21   A    
C30   H22   S    
C14   C15   S    
C5    H12   S    
C21   C22   A    
C13   H29   S    
C8    H23   S    
Cu2   N3    S    
