data_mof_unit_47336.cif
_audit_creation_date              2012-12-10T16:47:56-0500
_audit_creation_method            fapswitch 2.2
_symmetry_space_group_name_H-M    P1
_symmetry_Int_Tables_number       1
_space_group_crystal_system       triclinic
_cell_length_a                    7.852033
_cell_length_b                    8.571252
_cell_length_c                    10.495167
_cell_angle_alpha                 91.647128
_cell_angle_beta                  84.257622
_cell_angle_gamma                 93.410034
_cell_volume                      701.369494323

loop_
_atom_site_label
_atom_site_type_symbol
_atom_type_description
_atom_site_fract_x
_atom_site_fract_y
_atom_site_fract_z
_atom_type_partial_charge
C1    C     C_R   0.545354 0.794424 0.497085 0.959699
C2    C     C_2   0.569219 0.957926 0.495455 -0.350232
C3    C     C_2   0.785321 0.340037 0.854893 0.916541
C4    C     C_3   0.296650 0.359234 0.919075 -0.787435
C5    C     C_3   0.020240 0.387083 0.348314 -0.467784
C6    C     C_2   0.430815 0.042153 0.505057 -0.374899
C7    C     C_R   0.494959 0.473391 0.735423 0.931357
C8    C     C_R   0.454655 0.205570 0.502942 0.948172
C9    C     C_R   0.500993 0.499891 0.261260 0.917932
C10   C     C_2   0.604204 0.384931 0.061524 -0.193822
C11   C     C_2   0.505319 0.489199 0.125381 -0.343174
C12   C     C_2   0.615723 0.373136 0.922117 -0.003429
C13   C     C_2   0.477664 0.403122 0.861347 -0.096857
H1    H     H_    0.685373 0.313764 0.111464 0.167938
H2    H     H_    0.917406 0.312206 0.308439 0.173885
H3    H     H_    0.061645 0.478433 0.277166 0.199134
H4    H     H_    0.122618 0.309110 0.363094 0.209456
H5    H     H_    0.427076 0.565629 0.078465 0.161313
H6    H     H_    0.700168 0.008458 0.486206 0.188711
H7    H     H_    0.299863 0.991675 0.514384 0.179237
H8    H     H_    0.986199 0.602256 0.608073 0.190021
H9    H     H_    0.919090 0.226399 0.710289 0.335822
H10   H     H_    0.229164 0.285950 0.848656 0.260849
H11   H     H_    0.293160 0.288803 0.006542 0.241136
H12   H     H_    0.226334 0.466605 0.942011 0.274120
N1    N     N_2   0.950320 0.457950 0.466680 -0.040191
N2    N     N_2   0.049680 0.542050 0.533320 -0.126716
O1    O     O_R   0.389250 0.738570 0.508180 -0.609352
O2    O     O_R   0.796328 0.239737 0.747219 -0.786646
O3    O     O_R   0.678390 0.711630 0.486820 -0.624963
O4    O     O_R   0.355470 0.513470 0.691600 -0.599494
O5    O     O_R   0.644610 0.486520 0.670240 -0.611121
O6    O     O_R   0.321610 0.288370 0.513180 -0.648773
O7    O     O_R   0.610750 0.261430 0.491820 -0.590227
O8    O     O_R   0.355390 0.513480 0.329760 -0.634068
O9    O     O_R   0.644530 0.486530 0.308400 -0.609388
O10   O     O_2   0.915555 0.396932 0.896299 -0.667426
Zn1   Zn    Zn3+2 0.306940 0.517990 0.514260 0.945046
Zn2   Zn    Zn3+2 0.693060 0.482010 0.485740 0.965630

loop_
_geom_bond_atom_site_label_1
_geom_bond_atom_site_label_2
_ccdc_geom_bond_type
C1    O1    A    
C11   H5    S    
C7    O5    A    
H9    O2    S    
C9    O9    A    
C6    H7    S    
O6    Zn1   S    
O4    Zn1   S    
O1    Zn1   S    
C4    H12   S    
H8    N2    S    
C8    O7    A    
C9    C11   S    
N1    N2    D    
C2    C6    D    
C10   C12   S    
C1    O3    A    
O3    Zn2   S    
C8    O6    A    
C4    H11   S    
N1    Zn2   S    
C5    H2    S    
C7    O4    A    
C10   C11   D    
N2    Zn1   S    
C5    N1    S    
C7    C13   S    
O8    Zn1   S    
C5    H4    S    
C12   C13   D    
C3    O10   D    
C3    O2    S    
C1    C2    S    
C10   H1    S    
O5    Zn2   S    
C4    C13   S    
C9    O8    A    
C4    H10   S    
C5    H3    S    
C6    C8    S    
C3    C12   S    
C2    H6    S    
O9    Zn2   S    
O7    Zn2   S    
