data_mof_unit_8567.cif
_audit_creation_date              2012-12-11T17:43:39-0500
_audit_creation_method            fapswitch 2.2
_symmetry_space_group_name_H-M    P1
_symmetry_Int_Tables_number       1
_space_group_crystal_system       triclinic
_cell_length_a                    15.075259
_cell_length_b                    15.184112
_cell_length_c                    17.235291
_cell_angle_alpha                 109.145814
_cell_angle_beta                  106.393298
_cell_angle_gamma                 108.861221
_cell_volume                      3176.89284184

loop_
_atom_site_label
_atom_site_type_symbol
_atom_type_description
_atom_site_fract_x
_atom_site_fract_y
_atom_site_fract_z
_atom_type_partial_charge
C1    C     C_R   0.091533 0.277936 0.036343 -0.013539
C2    C     C_R   0.071702 0.053879 0.940478 -0.246886
C3    C     C_R   0.994637 0.890740 0.943968 0.127133
C4    C     C_R   0.001618 0.081531 0.967810 0.106344
C5    C     C_R   0.069210 0.957672 0.928112 0.114543
C6    C     C_R   0.926998 0.013525 0.982937 0.118961
C7    C     C_R   0.750187 0.993852 0.965170 -0.185866
C8    C     C_R   0.252060 0.999345 0.950108 -0.210833
C9    C     C_R   0.725965 0.101525 0.088324 -0.219548
C10   C     C_R   0.290747 0.876936 0.851697 -0.176912
C11   C     C_R   0.498684 0.704118 0.342483 -0.119406
C12   C     C_R   0.912040 0.709568 0.922730 -0.067855
C13   C     C_R   0.535950 0.425232 0.735773 -0.141012
C14   C     C_R   0.511239 0.685771 0.262867 -0.121352
C15   C     C_R   0.532422 0.442058 0.818808 -0.134236
C16   C     C_R   0.937329 0.460445 0.735404 -0.022136
C17   C     C_R   0.063544 0.489031 0.255539 -0.084244
C18   C     C_R   0.524525 0.598783 0.219204 0.022780
C19   C     C_R   0.557640 0.542207 0.881959 0.037864
C20   C     C_R   0.525817 0.528830 0.256705 -0.119341
C21   C     C_R   0.581181 0.625882 0.859407 -0.121396
C22   C     C_R   0.512014 0.546668 0.337785 -0.180392
C23   C     C_R   0.030568 0.477895 0.728344 -0.027259
C24   C     C_R   0.587579 0.609230 0.775739 -0.333005
C25   C     C_R   0.499425 0.636331 0.381361 -0.140565
C26   C     C_R   0.566984 0.508237 0.714207 -0.090898
C27   C     C_R   0.622011 0.576613 0.125317 -0.216575
C28   C     C_R   0.469279 0.562203 0.978291 -0.222682
C29   C     C_R   0.631285 0.561710 0.044091 0.108994
C30   C     C_R   0.456285 0.570306 0.056488 0.079405
C31   C     C_R   0.555286 0.557602 0.970673 0.073022
C32   C     C_R   0.533816 0.581194 0.132529 0.049186
C33   C     C_R   0.684848 0.024021 0.998743 0.021476
C34   C     C_R   0.971029 0.443143 0.260528 -0.023194
C35   C     C_R   0.324435 0.972786 0.926076 -0.061965
C36   C     C_R   0.960423 0.444056 0.340077 0.096562
C37   C     C_R   0.041857 0.467503 0.646896 0.132269
C38   C     C_R   0.063529 0.372802 0.517461 -0.173155
C39   C     C_R   0.937600 0.535620 0.469457 -0.165735
C40   C     C_R   0.721096 0.215428 0.824153 0.683241
C41   C     C_R   0.228039 0.797242 0.188273 0.703623
C42   C     C_R   0.074438 0.396369 0.605688 -0.138135
C43   C     C_R   0.923747 0.510914 0.381123 -0.128484
C44   C     C_R   0.003910 0.519316 0.604170 -0.263901
C45   C     C_R   0.664070 0.215864 0.746006 -0.098655
C46   C     C_R   0.003014 0.394311 0.382668 -0.207481
C47   C     C_R   0.986872 0.492041 0.515321 0.171495
C48   C     C_R   0.017440 0.418590 0.471281 0.190951
C49   C     C_R   0.556785 0.139897 0.677325 0.142515
C50   C     C_R   0.286314 0.898711 0.360525 0.140067
C51   C     C_R   0.389091 0.087087 0.448297 -0.225583
C52   C     C_R   0.412521 0.964991 0.602508 -0.215663
C53   C     C_R   0.320715 0.998917 0.365197 -0.121394
C54   C     C_R   0.503046 0.045569 0.678317 -0.122167
C55   C     C_R   0.304656 0.890064 0.441622 -0.233291
C56   C     C_R   0.244100 0.804046 0.273999 -0.129984
C57   C     C_R   0.512410 0.155810 0.603045 -0.268825
C58   C     C_R   0.376851 0.977120 0.524420 0.175499
C59   C     C_R   0.423824 0.075008 0.526498 0.175115
C60   C     C_R   0.832531 0.149307 0.144355 -0.274486
C61   C     C_R   0.184568 0.807718 0.800817 -0.287558
C62   C     C_R   0.898667 0.120774 0.110785 0.794603
C63   C     C_R   0.111610 0.833787 0.824320 0.776915
C64   C     C_R   0.299212 0.592019 0.002005 -0.157600
C65   C     C_R   0.739401 0.466113 0.048249 -0.119402
C66   C     C_R   0.857704 0.042813 0.020562 -0.143413
C67   C     C_R   0.355292 0.555920 0.049128 0.038256
C68   C     C_R   0.144995 0.929799 0.899996 -0.123129
C69   C     C_R   0.724313 0.309101 0.749119 -0.246622
C70   C     C_R   0.219116 0.703195 0.264101 -0.206940
C71   C     C_R   0.293431 0.494729 0.075477 -0.071587
C72   C     C_R   0.758279 0.568930 0.979709 -0.094605
C73   C     C_R   0.111296 0.542090 0.814172 -0.136616
C74   C     C_R   0.889908 0.411477 0.180155 -0.125663
C75   C     C_R   0.917711 0.194430 0.953247 -0.142691
C76   C     C_R   0.084391 0.795439 0.999478 -0.062280
C77   C     C_R   0.005341 0.180678 0.979133 0.015718
C78   C     C_R   0.714789 0.541561 0.033295 0.033462
C79   C     C_R   0.998031 0.800519 0.951343 0.049248
C80   C     C_2   0.486702 0.662511 0.467296 1.086267
C81   C     C_2   0.580373 0.487274 0.628755 1.093614
C82   C     C_2   0.532822 0.433028 0.206641 1.000610
C83   C     C_2   0.600771 0.730551 0.924102 0.948776
C84   C     C_2   0.499730 0.466217 0.370565 1.042250
C85   C     C_2   0.615712 0.697805 0.753562 1.176172
C86   C     C_2   0.836629 0.424961 0.660989 0.973608
C87   C     C_2   0.165691 0.500681 0.309120 1.014035
C88   C     C_R   0.922661 0.917470 0.968191 -0.175483
F1    F     F_    0.002184 0.168938 0.165901 -0.709241
F2    F     F_    0.008764 0.766085 0.772809 -0.697156
F3    F     F_    0.681899 0.157701 0.862895 -0.752653
F4    F     F_    0.254811 0.877672 0.167857 -0.752960
H1    H     H_    0.171097 0.294624 0.072451 0.126122
H2    H     H_    0.408603 0.552471 0.919360 0.128820
H3    H     H_    0.030359 0.342290 0.348860 0.165009
H4    H     H_    0.980177 0.575163 0.638238 0.177447
H5    H     H_    0.890887 0.549171 0.346944 0.146717
H6    H     H_    0.103838 0.356567 0.640104 0.130159
H7    H     H_    0.087633 0.316899 0.484540 0.145790
H8    H     H_    0.912424 0.590398 0.502504 0.163387
H9    H     H_    0.602320 0.987393 0.955281 0.157831
H10   H     H_    0.406747 0.026387 0.965383 0.134250
H11   H     H_    0.551629 0.226354 0.599075 0.153716
H12   H     H_    0.833677 0.683525 0.874512 0.151238
H13   H     H_    0.272812 0.814796 0.440759 0.146523
H14   H     H_    0.533279 0.029739 0.733975 0.201418
H15   H     H_    0.301414 0.010327 0.305335 0.209911
H16   H     H_    0.421770 0.162951 0.449867 0.180937
H17   H     H_    0.376090 0.890439 0.602176 0.150442
H18   H     H_    0.675266 0.124569 0.114364 0.152933
H19   H     H_    0.346925 0.856418 0.833316 0.165663
H20   H     H_    0.863675 0.208685 0.213757 0.153232
H21   H     H_    0.158944 0.733902 0.742945 0.155205
H22   H     H_    0.328242 0.650977 0.981052 0.120316
H23   H     H_    0.717558 0.934473 0.895346 0.200016
H24   H     H_    0.713500 0.425138 0.084491 0.117039
H25   H     H_    0.695660 0.345145 0.710911 0.168543
H26   H     H_    0.224409 0.679637 0.316674 0.151302
H27   H     H_    0.315970 0.461363 0.119554 0.139846
H28   H     H_    0.756249 0.627104 0.957731 0.126458
H29   H     H_    0.193595 0.577103 0.832020 0.116749
H30   H     H_    0.808329 0.363306 0.158669 0.119021
H31   H     H_    0.838287 0.134737 0.910394 0.178616
H32   H     H_    0.164262 0.848377 0.020569 0.177473
H33   H     H_    0.867713 0.866587 0.982869 0.144467
H34   H     H_    0.279604 0.073421 0.008689 0.174281
H35   H     H_    0.127603 0.107067 0.928331 0.143732
H36   H     H_    0.432038 0.736182 0.547836 0.348646
H37   H     H_    0.657031 0.542129 0.562533 0.369950
H38   H     H_    0.618089 0.354477 0.202296 0.317822
H39   H     H_    0.677708 0.848219 0.052901 0.330960
H40   H     H_    0.410352 0.368162 0.404081 0.358892
H41   H     H_    0.466130 0.663970 0.687709 0.295785
H42   H     H_    0.730991 0.323292 0.531140 0.342490
H43   H     H_    0.295750 0.492632 0.307890 0.345004
H44   H     H_    0.488903 0.772609 0.374217 0.161232
H45   H     H_    0.516794 0.347019 0.689147 0.140379
H46   H     H_    0.510164 0.739788 0.234686 0.130243
H47   H     H_    0.511331 0.376970 0.834608 0.133115
H48   H     H_    0.682483 0.582843 0.182037 0.139591
N1    N     N_R   0.055660 0.348550 0.045620 -0.040844
N2    N     N_R   0.185200 0.638170 0.176300 -0.064260
N3    N     N_R   0.201680 0.494570 0.045620 -0.047030
N4    N     N_R   0.798320 0.505430 0.954380 -0.052893
N5    N     N_R   0.068420 0.560530 0.871650 -0.047534
N6    N     N_R   0.931580 0.439470 0.128350 -0.046433
N7    N     N_R   0.948070 0.295860 0.997670 -0.046123
N8    N     N_R   0.051930 0.704140 0.002330 -0.056739
N9    N     N_R   0.944340 0.651450 0.954380 -0.062301
N10   N     N_R   0.960830 0.507850 0.823700 -0.058086
N11   N     N_R   0.039170 0.492150 0.176300 -0.058614
N12   N     N_R   0.811290 0.303410 0.871650 -0.104131
N13   N     N_R   0.188710 0.696590 0.128350 -0.109067
N14   N     N_R   0.205200 0.552990 0.997670 -0.049214
N15   N     N_R   0.794800 0.447010 0.002330 -0.043931
N16   N     N_R   0.814800 0.361830 0.823700 -0.082301
Ni1   Ni    Ni4+2 0.119340 0.493420 0.109960 0.261194
Ni2   Ni    Ni4+2 0.880660 0.506580 0.890040 0.244001
Ni3   Ni    Ni4+2 0.872590 0.372590 0.000000 0.263992
Ni4   Ni    Ni4+2 0.127410 0.627410 0.000000 0.235815
O1    O     O_2   0.522276 0.633449 0.521341 -0.591744
O2    O     O_R   0.412095 0.424920 0.385056 -0.786522
O3    O     O_2   0.707186 0.755907 0.779187 -0.592825
O4    O     O_R   0.538985 0.716951 0.705186 -0.742420
O5    O     O_2   0.787239 0.474051 0.671907 -0.634536
O6    O     O_R   0.800386 0.338787 0.577088 -0.789284
O7    O     O_2   0.195020 0.523292 0.389909 -0.631754
O8    O     O_R   0.229569 0.487011 0.266201 -0.802551
O9    O     O_R   0.435746 0.723181 0.487536 -0.810392
O10   O     O_2   0.533154 0.398281 0.565433 -0.678206
O11   O     O_R   0.650856 0.567536 0.621989 -0.706125
O12   O     O_2   0.462281 0.365413 0.132018 -0.666360
O13   O     O_R   0.621551 0.422102 0.243532 -0.769430
O14   O     O_2   0.553342 0.774640 0.897596 -0.674935
O15   O     O_R   0.671934 0.777605 0.015490 -0.807473
O16   O     O_2   0.565088 0.434955 0.383538 -0.600606

loop_
_geom_bond_atom_site_label_1
_geom_bond_atom_site_label_2
_ccdc_geom_bond_type
C16   C86   S    
C12   C79   A    
C83   O15   S    
C27   C29   A    
C25   C80   S    
C1    C77   A    
C14   C18   A    
C86   O6    S    
C76   C79   A    
C35   H10   S    
N7    Ni3   S    
C49   C57   A    
C15   C19   A    
C55   H13   S    
C33   H9    S    
N11   Ni1   S    
C60   C62   A    
C19   C21   A    
C24   C26   A    
C38   C42   A    
C20   C82   S    
C42   H6    S    
C11   C14   A    
C57   C59   A    
C11   C25   A    
C49   C54   A    
C62   F1    S    
C64   N14   A    
C6    C88   A    
C40   N12   A    
C18   C20   A    
C28   H2    S    
N8    Ni4   S    
C7    H23   S    
C37   C42   A    
C61   C63   A    
C72   C78   A    
C87   O7    D    
C29   C78   S    
C14   H46   S    
C51   H16   S    
C22   C25   A    
H43   O8    S    
H42   O6    S    
C36   C46   A    
C10   C35   A    
C65   C78   A    
C24   C85   S    
C41   N13   A    
N5    N10   A    
C44   C47   A    
C2    H35   S    
C3    C88   A    
N12   Ni3   S    
C19   C31   S    
H36   O9    S    
C40   F3    S    
C74   N6    A    
C9    C33   A    
C7    C33   A    
C17   N11   A    
C86   O5    D    
C80   O9    S    
C23   C73   A    
C5    C68   S    
C52   C54   A    
N3    Ni1   S    
C15   H47   S    
H38   O13   S    
C40   C45   A    
C57   H11   S    
C82   O12   D    
C70   N2    A    
C69   N16   A    
C64   H22   S    
C62   C66   A    
N15   Ni3   S    
C50   C53   A    
C64   C67   A    
N12   N16   A    
N8    N9    A    
C4    C6    A    
N5    Ni4   S    
C54   H14   S    
N3    N14   A    
C39   C43   A    
N6    Ni3   S    
C75   N7    A    
C58   C59   A    
C23   C37   S    
C45   C69   A    
C1    H1    S    
C50   C56   S    
C73   N5    A    
C51   C53   A    
C8    C35   A    
C13   H45   S    
C2    C4    A    
C41   C56   A    
N14   Ni4   S    
C88   H33   S    
C60   H20   S    
C41   F4    S    
C53   H15   S    
C47   C48   A    
C82   O13   S    
C45   C49   S    
C72   H28   S    
C10   H19   S    
C81   O10   D    
C75   C77   A    
C3    C79   S    
C52   C58   A    
C34   C74   A    
N1    Ni1   S    
C74   H30   S    
C20   C22   A    
C8    C68   A    
C26   C81   S    
C73   H29   S    
C13   C15   A    
C87   O8    S    
C61   H21   S    
C85   O3    D    
C65   H24   S    
C75   H31   S    
C13   C26   A    
C55   C58   A    
C10   C61   A    
C18   C32   S    
C17   C34   A    
C21   C24   A    
N2    Ni1   S    
N4    Ni2   S    
H41   O4    S    
C84   O2    S    
H39   O15   S    
C39   C47   A    
N9    Ni2   S    
C8    H34   S    
C9    H18   S    
C72   N4    A    
C63   C68   A    
C37   C44   A    
C44   H4    S    
N10   Ni2   S    
C27   C32   A    
C17   C87   S    
C38   C48   A    
C12   N9    A    
H37   O11   S    
C28   C31   A    
C30   C67   S    
C38   H7    S    
C3    C5    A    
C12   H12   S    
C16   C23   A    
N4    N15   A    
C56   C70   A    
C50   C55   A    
C71   H27   S    
C9    C60   A    
N13   Ni4   S    
C28   C30   A    
C4    C77   S    
C65   N15   A    
C11   H44   S    
C7    C66   A    
C30   C32   A    
C69   H25   S    
C39   H8    S    
C71   N3    A    
C52   H17   S    
C70   H26   S    
C63   F2    S    
N16   Ni2   S    
C34   C36   S    
C67   C71   A    
C81   O11   S    
N2    N13   A    
C46   H3    S    
H40   O2    S    
C80   O1    D    
C1    N1    A    
N1    N7    A    
C76   H32   S    
N6    N11   A    
C2    C5    A    
C46   C48   A    
C6    C66   S    
C27   H48   S    
C51   C59   A    
C76   N8    A    
C29   C31   A    
C43   H5    S    
C83   O14   D    
C21   C83   S    
C85   O4    S    
C36   C43   A    
C16   N10   A    
C84   O16   D    
C22   C84   S    
