data_mof_unit_42969.cif
_audit_creation_date              2012-12-11T15:06:58-0500
_audit_creation_method            fapswitch 2.2
_symmetry_space_group_name_H-M    P1
_symmetry_Int_Tables_number       1
_space_group_crystal_system       monoclinic
_cell_length_a                    19.894824
_cell_length_b                    11.34965
_cell_length_c                    18.719217
_cell_angle_alpha                 90.0
_cell_angle_beta                  88.296722
_cell_angle_gamma                 90.0
_cell_volume                      4224.91833528

loop_
_atom_site_label
_atom_site_type_symbol
_atom_type_description
_atom_site_fract_x
_atom_site_fract_y
_atom_site_fract_z
_atom_type_partial_charge
C1    C     C_R   0.762907 0.519988 0.638802 0.571150
C2    C     C_3   0.250312 0.064793 0.566947 0.051068
C3    C     C_R   0.741643 0.038243 0.153425 0.547972
C4    C     C_R   0.774350 0.132773 0.858980 0.550681
C5    C     C_R   0.225649 0.132773 0.141020 0.550681
C6    C     C_R   0.274350 0.632773 0.858980 0.550681
C7    C     C_R   0.725649 0.632773 0.141020 0.550681
C8    C     C_R   0.946329 0.357267 0.861550 0.530447
C9    C     C_R   0.053671 0.357268 0.138450 0.530447
C10   C     C_R   0.446329 0.857268 0.861550 0.530447
C11   C     C_R   0.553671 0.857268 0.138450 0.530447
C12   C     C_3   0.694310 0.147795 0.463848 -0.226113
C13   C     C_3   0.249688 0.564793 0.433053 0.051068
C14   C     C_3   0.305690 0.147795 0.536152 -0.226113
C15   C     C_3   0.194310 0.647795 0.463848 -0.226113
C16   C     C_3   0.805690 0.647795 0.536152 -0.226113
C17   C     C_3   0.706649 0.170205 0.542683 -0.243799
C18   C     C_3   0.293351 0.170205 0.457317 -0.243799
C19   C     C_3   0.206649 0.670205 0.542683 -0.243799
C20   C     C_3   0.793350 0.670205 0.457317 -0.243799
C21   C     C_3   0.758387 0.956078 0.482832 -0.276499
C22   C     C_3   0.241613 0.956078 0.517168 -0.276499
C23   C     C_3   0.258387 0.456078 0.482832 -0.276499
C24   C     C_3   0.750312 0.564793 0.566947 0.051068
C25   C     C_3   0.741613 0.456078 0.517168 -0.276499
C26   C     C_2   0.934420 0.521291 0.407753 0.537198
C27   C     C_2   0.065580 0.521291 0.592246 0.537198
C28   C     C_2   0.434420 0.021291 0.407753 0.537198
C29   C     C_2   0.565580 0.021291 0.592246 0.537198
C30   C     C_1   0.974694 0.572676 0.084118 0.211448
C31   C     C_1   0.025306 0.572676 0.915882 0.211448
C32   C     C_1   0.474694 0.072676 0.084118 0.211448
C33   C     C_1   0.525306 0.072676 0.915882 0.211448
C34   C     C_1   0.587374 0.826682 0.874882 0.211610
C35   C     C_3   0.773872 0.119398 0.565981 0.020114
C36   C     C_1   0.412626 0.826682 0.125118 0.211610
C37   C     C_1   0.087374 0.326682 0.874882 0.211610
C38   C     C_1   0.912626 0.326682 0.125118 0.211610
C39   C     C_2   0.826479 0.217127 0.372294 0.534206
C40   C     C_2   0.173521 0.217127 0.627706 0.534206
C41   C     C_2   0.326479 0.717127 0.372294 0.534206
C42   C     C_2   0.673521 0.717127 0.627706 0.534206
C43   C     C_3   0.226128 0.119398 0.434019 0.020114
C44   C     C_3   0.273872 0.619398 0.565981 0.020114
C45   C     C_3   0.726128 0.619398 0.434019 0.020114
C46   C     C_3   0.764247 0.986717 0.561186 -0.232548
C47   C     C_3   0.235753 0.986717 0.438814 -0.232548
C48   C     C_3   0.264247 0.486717 0.561186 -0.232548
C49   C     C_R   0.237093 0.519988 0.361198 0.571149
C50   C     C_3   0.735753 0.486717 0.438814 -0.232548
C51   C     C_3   0.831722 0.157618 0.512051 -0.271121
C52   C     C_3   0.168278 0.157618 0.487949 -0.271121
C53   C     C_3   0.331722 0.657619 0.512051 -0.271121
C54   C     C_3   0.668278 0.657619 0.487949 -0.271121
C55   C     C_3   0.000685 0.215419 0.459283 -0.277597
C56   C     C_3   0.999315 0.215419 0.540717 -0.277597
C57   C     C_3   0.500685 0.715419 0.459283 -0.277597
C58   C     C_3   0.499315 0.715419 0.540717 -0.277597
C59   C     C_3   0.064166 0.417066 0.470226 -0.248056
C60   C     C_R   0.262907 0.019988 0.638802 0.571150
C61   C     C_3   0.935833 0.417066 0.529774 -0.248056
C62   C     C_3   0.564167 0.917066 0.470226 -0.248056
C63   C     C_3   0.435833 0.917066 0.529774 -0.248056
C64   C     C_3   0.941884 0.406175 0.447888 -0.071998
C65   C     C_3   0.058116 0.406175 0.552111 -0.071998
C66   C     C_3   0.441884 0.906175 0.447888 -0.071998
C67   C     C_3   0.558116 0.906175 0.552111 -0.071998
C68   C     C_3   0.009156 0.342712 0.430620 0.030418
C69   C     C_3   0.990844 0.342712 0.569380 0.030418
C70   C     C_3   0.509156 0.842712 0.430620 0.030418
C71   C     C_R   0.737093 0.019988 0.361198 0.571149
C72   C     C_3   0.490843 0.842712 0.569380 0.030418
C73   C     C_3   0.818915 0.019827 0.045241 -0.223554
C74   C     C_3   0.181085 0.019827 0.954759 -0.223554
C75   C     C_3   0.318915 0.519827 0.045241 -0.223554
C76   C     C_3   0.681085 0.519827 0.954759 -0.223554
C77   C     C_R   0.788379 0.154154 0.641146 0.542923
C78   C     C_R   0.211621 0.154154 0.358854 0.542922
C79   C     C_R   0.288379 0.654154 0.641146 0.542923
C80   C     C_R   0.711621 0.654154 0.358854 0.542922
C81   C     C_3   0.821169 0.027049 0.964897 -0.225222
C82   C     C_3   0.817802 0.127122 0.432718 -0.059082
C83   C     C_3   0.178830 0.027049 0.035102 -0.225222
C84   C     C_3   0.321169 0.527049 0.964897 -0.225222
C85   C     C_3   0.678830 0.527049 0.035102 -0.225222
C86   C     C_3   0.689904 0.036466 0.037565 -0.227862
C87   C     C_3   0.310095 0.036466 0.962435 -0.227862
C88   C     C_3   0.189904 0.536466 0.037565 -0.227862
C89   C     C_3   0.810095 0.536466 0.962435 -0.227862
C90   C     C_3   0.758994 0.207652 0.062122 -0.261384
C91   C     C_3   0.241006 0.207652 0.937878 -0.261384
C92   C     C_3   0.258994 0.707652 0.062122 -0.261384
C93   C     C_3   0.182198 0.127122 0.567281 -0.059082
C94   C     C_3   0.741006 0.707652 0.937878 -0.261384
C95   C     C_3   0.752904 0.075804 0.077095 0.057938
C96   C     C_3   0.247096 0.075804 0.922905 0.057938
C97   C     C_3   0.252904 0.575804 0.077095 0.057938
C98   C     C_3   0.747096 0.575804 0.922905 0.057938
C99   C     C_3   0.762821 0.106100 0.937250 0.052492
C100  C     C_3   0.237179 0.106100 0.062750 0.052492
C101  C     C_3   0.262821 0.606100 0.937250 0.052492
C102  C     C_3   0.737179 0.606100 0.062750 0.052492
C103  C     C_3   0.698981 0.037514 0.955309 -0.258603
C104  C     C_3   0.317802 0.627122 0.432718 -0.059082
C105  C     C_3   0.301019 0.037514 0.044691 -0.258603
C106  C     C_3   0.198981 0.537514 0.955309 -0.258603
C107  C     C_3   0.801019 0.537514 0.044691 -0.258603
C108  C     C_3   0.757813 0.224329 0.979479 -0.229743
C109  C     C_3   0.242187 0.224329 0.020520 -0.229742
C110  C     C_3   0.257813 0.724330 0.979479 -0.229743
C111  C     C_3   0.742187 0.724330 0.020520 -0.229743
C112  C     C_3   0.013295 0.489119 0.037620 -0.107890
C113  C     C_3   0.986705 0.489119 0.962380 -0.107890
C114  C     C_3   0.513295 0.989119 0.037620 -0.107890
C115  C     C_3   0.682198 0.627122 0.567281 -0.059082
C116  C     C_3   0.486705 0.989119 0.962380 -0.107890
C117  C     C_3   0.072288 0.299347 0.008561 -0.301802
C118  C     C_3   0.927712 0.299347 0.991439 -0.301802
C119  C     C_3   0.572288 0.799347 0.008561 -0.301802
C120  C     C_3   0.427712 0.799347 0.991439 -0.301802
C121  C     C_3   0.958516 0.288245 0.065687 -0.112517
C122  C     C_3   0.041484 0.288245 0.934313 -0.112517
C123  C     C_3   0.458516 0.788245 0.065687 -0.112517
C124  C     C_3   0.541484 0.788245 0.934313 -0.112517
C125  C     C_R   0.970184 0.343564 0.645707 0.616967
C126  C     C_3   0.749688 0.064793 0.433053 0.051068
C127  C     C_R   0.029816 0.343564 0.354293 0.616967
C128  C     C_R   0.470184 0.843564 0.645707 0.616967
C129  C     C_R   0.529816 0.843564 0.354293 0.616967
C130  C     C_3   0.024160 0.359095 0.065212 0.022241
C131  C     C_3   0.975839 0.359095 0.934788 0.022241
C132  C     C_3   0.524160 0.859095 0.065212 0.022241
C133  C     C_3   0.475839 0.859095 0.934788 0.022241
C134  C     C_R   0.758357 0.538243 0.846575 0.547972
C135  C     C_R   0.241643 0.538243 0.153425 0.547972
C136  C     C_R   0.258357 0.038243 0.846575 0.547972
Cr1   Cr    Cr6+3 0.885690 0.492860 0.745310 1.058762
Cr2   Cr    Cr6+3 0.111880 0.178590 0.246990 1.029667
Cr3   Cr    Cr6+3 0.388120 0.678590 0.753010 1.029667
Cr4   Cr    Cr6+3 0.611880 0.678590 0.246990 1.029667
Cr5   Cr    Cr6+3 0.114310 0.492860 0.254690 1.058761
Cr6   Cr    Cr6+3 0.385690 0.992860 0.745310 1.058762
Cr7   Cr    Cr6+3 0.614310 0.992860 0.254690 1.058761
Cr8   Cr    Cr6+3 0.729880 0.332270 0.748190 1.048275
Cr9   Cr    Cr6+3 0.270120 0.332270 0.251810 1.048275
Cr10  Cr    Cr6+3 0.229880 0.832270 0.748190 1.048275
Cr11  Cr    Cr6+3 0.770120 0.832270 0.251810 1.048275
Cr12  Cr    Cr6+3 0.888120 0.178590 0.753010 1.029667
H1    H     H_    0.644579 0.108647 0.458469 0.145753
H2    H     H_    0.191441 0.920267 0.530158 0.124781
H3    H     H_    0.883523 0.352114 0.000313 0.099383
H4    H     H_    0.969796 0.193503 0.075182 0.122018
H5    H     H_    0.030203 0.193503 0.924818 0.122018
H6    H     H_    0.469797 0.693503 0.075182 0.122018
H7    H     H_    0.530203 0.693503 0.924818 0.122018
H8    H     H_    0.913056 0.212644 0.972423 0.113538
H9    H     H_    0.086944 0.212644 0.027576 0.113538
H10   H     H_    0.413056 0.712644 0.972423 0.113538
H11   H     H_    0.586944 0.712644 0.027576 0.113538
H12   H     H_    0.666692 0.131101 0.574990 0.189652
H13   H     H_    0.308559 0.420267 0.469842 0.124781
H14   H     H_    0.333308 0.131101 0.425010 0.189652
H15   H     H_    0.166692 0.631101 0.574990 0.189652
H16   H     H_    0.833308 0.631101 0.425010 0.189652
H17   H     H_    0.719338 0.890501 0.475732 0.107045
H18   H     H_    0.280662 0.890501 0.524268 0.107046
H19   H     H_    0.219338 0.390501 0.475732 0.107045
H20   H     H_    0.780662 0.390501 0.524268 0.107046
H21   H     H_    0.717732 0.959712 0.590888 0.189515
H22   H     H_    0.282268 0.959712 0.409112 0.189515
H23   H     H_    0.217732 0.459713 0.590888 0.189515
H24   H     H_    0.691441 0.420267 0.530158 0.124781
H25   H     H_    0.782268 0.459713 0.409112 0.189515
H26   H     H_    0.857555 0.061527 0.417412 0.126329
H27   H     H_    0.142445 0.061527 0.582588 0.126329
H28   H     H_    0.357555 0.561527 0.417412 0.126329
H29   H     H_    0.642445 0.561527 0.582588 0.126329
H30   H     H_    0.845157 0.248136 0.517815 0.091950
H31   H     H_    0.154843 0.248136 0.482185 0.091950
H32   H     H_    0.345157 0.748136 0.517815 0.091950
H33   H     H_    0.654843 0.748136 0.482185 0.091950
H34   H     H_    0.951740 0.696527 0.401849 0.338130
H35   H     H_    0.807132 0.938300 0.584329 0.172695
H36   H     H_    0.048260 0.696527 0.598151 0.338130
H37   H     H_    0.451740 0.196527 0.401849 0.338130
H38   H     H_    0.548260 0.196527 0.598151 0.338130
H39   H     H_    0.783645 0.327710 0.302468 0.368554
H40   H     H_    0.216355 0.327710 0.697532 0.368554
H41   H     H_    0.283645 0.827710 0.302468 0.368554
H42   H     H_    0.716355 0.827710 0.697532 0.368554
H43   H     H_    0.192868 0.938300 0.415671 0.172695
H44   H     H_    0.307132 0.438300 0.584329 0.172695
H45   H     H_    0.692868 0.438300 0.415671 0.172695
H46   H     H_    0.037667 0.154102 0.436500 0.143296
H47   H     H_    0.962333 0.154102 0.563500 0.143296
H48   H     H_    0.537667 0.654102 0.436500 0.143296
H49   H     H_    0.355421 0.108647 0.541530 0.145753
H50   H     H_    0.462333 0.654102 0.563500 0.143296
H51   H     H_    0.953372 0.177367 0.440896 0.150054
H52   H     H_    0.046628 0.177367 0.559104 0.150054
H53   H     H_    0.453372 0.677367 0.440896 0.150054
H54   H     H_    0.546628 0.677367 0.559104 0.150054
H55   H     H_    0.615051 0.901439 0.448248 0.064790
H56   H     H_    0.384949 0.901439 0.551752 0.064790
H57   H     H_    0.115051 0.401439 0.448248 0.064790
H58   H     H_    0.884949 0.401439 0.551752 0.064790
H59   H     H_    0.600600 0.852939 0.567209 0.134974
H60   H     H_    0.144579 0.608647 0.458469 0.145753
H61   H     H_    0.399400 0.852939 0.432791 0.134974
H62   H     H_    0.100600 0.352939 0.567209 0.134974
H63   H     H_    0.899400 0.352939 0.432791 0.134974
H64   H     H_    0.943695 0.510072 0.543552 0.223122
H65   H     H_    0.056305 0.510072 0.456448 0.223122
H66   H     H_    0.443695 0.010072 0.543552 0.223122
H67   H     H_    0.556305 0.010072 0.456448 0.223121
H68   H     H_    0.826298 0.927409 0.060356 0.146207
H69   H     H_    0.173702 0.927409 0.939644 0.146207
H70   H     H_    0.326298 0.427409 0.060356 0.146207
H71   H     H_    0.855421 0.608647 0.541530 0.145753
H72   H     H_    0.673702 0.427409 0.939644 0.146207
H73   H     H_    0.692218 0.232827 0.435620 0.185448
H74   H     H_    0.307782 0.232827 0.564380 0.185448
H75   H     H_    0.192218 0.732828 0.435620 0.185448
H76   H     H_    0.807782 0.732828 0.564380 0.185448
H77   H     H_    0.863269 0.066345 0.066690 0.122022
H78   H     H_    0.136731 0.066345 0.933309 0.122022
H79   H     H_    0.363269 0.566345 0.066690 0.122022
H80   H     H_    0.636730 0.566345 0.933309 0.122022
H81   H     H_    0.872171 0.053804 0.947159 0.139943
H82   H     H_    0.874233 0.102094 0.526611 0.108094
H83   H     H_    0.127829 0.053804 0.052841 0.139943
H84   H     H_    0.372171 0.553804 0.947159 0.139943
H85   H     H_    0.627829 0.553804 0.052841 0.139943
H86   H     H_    0.816725 0.937100 0.942407 0.119438
H87   H     H_    0.183274 0.937100 0.057593 0.119438
H88   H     H_    0.316725 0.437100 0.942407 0.119438
H89   H     H_    0.683274 0.437100 0.057593 0.119438
H90   H     H_    0.672585 0.953377 0.060088 0.097565
H91   H     H_    0.327415 0.953377 0.939911 0.097566
H92   H     H_    0.172585 0.453377 0.060088 0.097565
H93   H     H_    0.125767 0.102094 0.473389 0.108094
H94   H     H_    0.827415 0.453377 0.939911 0.097566
H95   H     H_    0.702006 0.946953 0.933668 0.128194
H96   H     H_    0.297994 0.946953 0.066332 0.128194
H97   H     H_    0.202006 0.446953 0.933668 0.128194
H98   H     H_    0.797994 0.446953 0.066332 0.128194
H99   H     H_    0.717268 0.256469 0.089438 0.118724
H100  H     H_    0.282732 0.256469 0.910562 0.118724
H101  H     H_    0.217268 0.756469 0.089438 0.118724
H102  H     H_    0.782732 0.756469 0.910562 0.118724
H103  H     H_    0.805932 0.241626 0.082921 0.135972
H104  H     H_    0.374233 0.602094 0.526611 0.108094
H105  H     H_    0.194068 0.241626 0.917079 0.135972
H106  H     H_    0.305932 0.741627 0.082921 0.135972
H107  H     H_    0.694068 0.741627 0.917079 0.135972
H108  H     H_    0.796900 0.282722 0.959604 0.101016
H109  H     H_    0.203100 0.282722 0.040396 0.101016
H110  H     H_    0.296900 0.782722 0.959604 0.101016
H111  H     H_    0.703100 0.782722 0.040396 0.101016
H112  H     H_    0.709131 0.264197 0.967313 0.128376
H113  H     H_    0.290869 0.264197 0.032687 0.128376
H114  H     H_    0.209131 0.764197 0.967313 0.128376
H115  H     H_    0.625767 0.602094 0.473389 0.108094
H116  H     H_    0.790869 0.764197 0.032687 0.128376
H117  H     H_    0.651182 0.103124 0.052117 0.132075
H118  H     H_    0.348818 0.103124 0.947883 0.132075
H119  H     H_    0.151182 0.603124 0.052117 0.132075
H120  H     H_    0.848818 0.603124 0.947883 0.132075
H121  H     H_    0.701415 0.259068 0.559033 0.129805
H122  H     H_    0.298585 0.259068 0.440966 0.129805
H123  H     H_    0.201415 0.759068 0.559033 0.129805
H124  H     H_    0.798585 0.759068 0.440966 0.129805
H125  H     H_    0.656139 0.081445 0.931314 0.163665
H126  H     H_    0.808559 0.920267 0.469842 0.124781
H127  H     H_    0.343861 0.081445 0.068686 0.163665
H128  H     H_    0.156139 0.581445 0.931314 0.163665
H129  H     H_    0.843861 0.581445 0.068686 0.163665
H130  H     H_    0.062602 0.527959 0.034733 0.090290
H131  H     H_    0.937398 0.527959 0.965267 0.090290
H132  H     H_    0.562602 0.027959 0.034733 0.090290
H133  H     H_    0.437398 0.027959 0.965267 0.090290
H134  H     H_    0.616477 0.852114 0.999687 0.099383
H135  H     H_    0.383523 0.852114 0.000313 0.099383
H136  H     H_    0.116477 0.352114 0.999687 0.099383
N1    N     N_1   0.947224 0.639651 0.121387 -0.277010
N2    N     N_1   0.052776 0.639651 0.878613 -0.277010
N3    N     N_1   0.447224 0.139651 0.121387 -0.277010
N4    N     N_1   0.552776 0.139651 0.878613 -0.277010
N5    N     N_1   0.622235 0.856988 0.827770 -0.238312
N6    N     N_1   0.377765 0.856988 0.172229 -0.238312
N7    N     N_1   0.122235 0.356988 0.827770 -0.238312
N8    N     N_1   0.877765 0.356988 0.172229 -0.238312
O1    O     O_R   0.957210 0.449410 0.665480 -0.485917
O2    O     O_R   0.167480 0.095300 0.164000 -0.532751
O3    O     O_R   0.332520 0.595300 0.836000 -0.532751
O4    O     O_R   0.667480 0.595300 0.164000 -0.532751
O5    O     O_R   0.946380 0.253940 0.826940 -0.497686
O6    O     O_R   0.053620 0.253940 0.173060 -0.497685
O7    O     O_R   0.446380 0.753940 0.826940 -0.497686
O8    O     O_R   0.553620 0.753940 0.173060 -0.497685
O9    O     O_3   0.834560 0.334570 0.748840 -0.335368
O10   O     O_3   0.165440 0.334570 0.251160 -0.335368
O11   O     O_3   0.334560 0.834570 0.748840 -0.335368
O12   O     O_R   0.042790 0.449410 0.334520 -0.485917
O13   O     O_3   0.665440 0.834570 0.251160 -0.335368
O14   O     O_R   0.820730 0.541240 0.668250 -0.502258
O15   O     O_R   0.179270 0.541240 0.331750 -0.502258
O16   O     O_R   0.320730 0.041240 0.668250 -0.502258
O17   O     O_R   0.679270 0.041240 0.331750 -0.502258
O18   O     O_R   0.714240 0.455060 0.663710 -0.533123
O19   O     O_R   0.285760 0.455060 0.336290 -0.533123
O20   O     O_R   0.214240 0.955060 0.663710 -0.533123
O21   O     O_R   0.785760 0.955060 0.336290 -0.533123
O22   O     O_R   0.736780 0.204870 0.675910 -0.488919
O23   O     O_R   0.457210 0.949410 0.665480 -0.485917
O24   O     O_R   0.263220 0.204870 0.324090 -0.488918
O25   O     O_R   0.236780 0.704870 0.675910 -0.488919
O26   O     O_R   0.763220 0.704870 0.324090 -0.488918
O27   O     O_R   0.833070 0.087590 0.673490 -0.514742
O28   O     O_R   0.166930 0.087590 0.326510 -0.514742
O29   O     O_R   0.333070 0.587590 0.673490 -0.514742
O30   O     O_R   0.666930 0.587590 0.326510 -0.514742
O31   O     O_R   0.946890 0.246800 0.676300 -0.503334
O32   O     O_R   0.053110 0.246800 0.323700 -0.503334
O33   O     O_R   0.446890 0.746800 0.676300 -0.503334
O34   O     O_R   0.542790 0.949410 0.334520 -0.485917
O35   O     O_R   0.553110 0.746800 0.323700 -0.503334
O36   O     O_R   0.956650 0.457120 0.827980 -0.478847
O37   O     O_R   0.043350 0.457120 0.172020 -0.478846
O38   O     O_R   0.456650 0.957120 0.827980 -0.478847
O39   O     O_R   0.543350 0.957120 0.172020 -0.478846
O40   O     O_R   0.820220 0.548390 0.818890 -0.517733
O41   O     O_R   0.179780 0.548390 0.181110 -0.517733
O42   O     O_R   0.320220 0.048390 0.818890 -0.517733
O43   O     O_R   0.679780 0.048390 0.181110 -0.517733
O44   O     O_R   0.713680 0.462770 0.826210 -0.515981
O45   O     O_R   0.736260 0.212010 0.826560 -0.484457
O46   O     O_R   0.286320 0.462770 0.173790 -0.515981
O47   O     O_R   0.213680 0.962770 0.826210 -0.515981
O48   O     O_R   0.786320 0.962770 0.173790 -0.515981
O49   O     O_2   0.909481 0.519848 0.348710 -0.473803
O50   O     O_R   0.958140 0.627610 0.435425 -0.707045
O51   O     O_2   0.090518 0.519848 0.651289 -0.473803
O52   O     O_R   0.041860 0.627610 0.564575 -0.707045
O53   O     O_2   0.409481 0.019848 0.348710 -0.473803
O54   O     O_R   0.458140 0.127610 0.435425 -0.707045
O55   O     O_2   0.590518 0.019848 0.651289 -0.473803
O56   O     O_R   0.263740 0.212010 0.173440 -0.484457
O57   O     O_R   0.541860 0.127610 0.564575 -0.707045
O58   O     O_2   0.879967 0.221171 0.338309 -0.507041
O59   O     O_R   0.771560 0.278348 0.346149 -0.728277
O60   O     O_2   0.120033 0.221171 0.661690 -0.507041
O61   O     O_R   0.228439 0.278348 0.653851 -0.728277
O62   O     O_2   0.379967 0.721171 0.338309 -0.507041
O63   O     O_R   0.271560 0.778348 0.346149 -0.728277
O64   O     O_2   0.620033 0.721171 0.661690 -0.507041
O65   O     O_R   0.728440 0.778348 0.653851 -0.728277
O66   O     O_R   0.236260 0.712010 0.826560 -0.484457
O67   O     O_R   0.763740 0.712010 0.173440 -0.484457
O68   O     O_R   0.832520 0.095300 0.836000 -0.532751

loop_
_geom_bond_atom_site_label_1
_geom_bond_atom_site_label_2
_ccdc_geom_bond_type
C99   C103  S    
C22   H2    S    
Cr10  O25   S    
Cr6   O11   S    
Cr2   O32   S    
C76   H80   S    
C40   C93   S    
Cr2   O2    S    
C32   N3    T    
C21   H126  S    
C90   C95   S    
Cr4   O8    S    
C39   O59   S    
C124  C133  S    
C85   H85   S    
Cr6   O42   S    
C12   C126  S    
C76   C98   S    
Cr6   O38   S    
C94   C111  S    
C135  O46   A    
C62   C70   S    
C16   H71   S    
C120  C133  S    
C79   O25   A    
C17   H12   S    
C118  C131  S    
C91   C96   S    
C44   C53   S    
C55   H51   S    
C82   H26   S    
C7    C102  S    
C2    C22   S    
Cr7   O39   S    
C51   H30   S    
C71   O17   A    
C88   C97   S    
C61   H58   S    
Cr10  O11   S    
C22   C47   S    
C100  C109  S    
C81   H81   S    
C51   H82   S    
C120  H10   S    
Cr6   O23   S    
C102  C111  S    
C73   C81   S    
C78   O24   A    
C74   C83   S    
C17   H121  S    
C3    O48   A    
C19   H123  S    
C116  C133  S    
C81   C99   S    
C101  C110  S    
C70   C129  S    
Cr6   O16   S    
C28   C66   S    
C56   H47   S    
C5    C100  S    
C16   C20   S    
C90   H99   S    
C59   H65   S    
C9    O6    A    
C115  H29   S    
C71   O21   A    
C23   H19   S    
C83   H87   S    
C83   C100  S    
C35   C51   S    
C16   H76   S    
C31   N2    T    
H37   O54   S    
C73   C95   S    
C19   C44   S    
H34   O50   S    
C91   H100  S    
C33   C116  S    
C34   C124  S    
C44   C79   S    
C4    O45   A    
Cr8   O44   S    
C60   O20   A    
C41   O63   S    
C134  O44   A    
C89   H120  S    
C75   H79   S    
Cr8   O22   S    
C52   H93   S    
C66   C70   S    
C9    O37   A    
C45   C50   S    
C40   O60   D    
C86   H90   S    
C45   C80   S    
C2    C14   S    
C112  H130  S    
C38   C121  S    
C86   C95   S    
C87   H118  S    
C22   H18   S    
C58   H54   S    
C119  H11   S    
C40   O61   S    
C128  O33   A    
C3    C95   S    
C21   C126  S    
C5    O2    A    
C43   C47   S    
C76   C85   S    
Cr2   O28   S    
C44   C48   S    
C56   H52   S    
C123  H6    S    
C20   H16   S    
Cr8   O9    S    
C1    O18   A    
C123  C132  S    
C129  O34   A    
C79   O29   A    
C121  C130  S    
C26   O50   S    
Cr12  O27   S    
C104  H28   S    
C99   C108  S    
C54   H115  S    
C64   C68   S    
C110  H110  S    
Cr7   O13   S    
C50   H45   S    
Cr8   O18   S    
C43   C52   S    
C53   C104  S    
C13   C23   S    
C67   C72   S    
C25   C50   S    
C10   O7    A    
C120  H135  S    
C30   N1    T    
C73   H68   S    
C118  H8    S    
Cr2   O6    S    
C136  O47   A    
Cr3   O11   S    
Cr1   O36   S    
C15   H60   S    
Cr11  O21   S    
C29   O57   S    
C10   O38   A    
C84   H84   S    
C94   H102  S    
C92   C97   S    
C25   H20   S    
C27   O52   S    
C14   H49   S    
H36   O52   S    
C87   H91   S    
C74   C96   S    
C52   C93   S    
Cr9   O46   S    
Cr10  O66   S    
C127  O12   A    
C6    O3    A    
C91   H105  S    
C93   H27   S    
Cr7   O43   S    
C37   C122  S    
C30   C112  S    
C61   H64   S    
C117  C122  S    
C48   H23   S    
C87   C105  S    
C135  O41   A    
C3    O43   A    
C8    C131  S    
C54   H33   S    
C102  C107  S    
C19   H15   S    
C8    O5    A    
C65   H62   S    
C122  H5    S    
C97   C135  S    
C122  C131  S    
C18   H122  S    
H40   O61   S    
C101  C106  S    
C20   C45   S    
C39   C82   S    
C114  C116  S    
C7    O4    A    
C128  O23   A    
C90   H103  S    
C41   C104  S    
C89   C98   S    
C117  H136  S    
C52   H31   S    
C90   C108  S    
C74   H78   S    
C94   H107  S    
C59   C65   S    
C92   C110  S    
C57   C58   S    
C83   H83   S    
C63   H66   S    
C111  H116  S    
C108  H112  S    
C55   H46   S    
C1    C24   S    
C56   C69   S    
C124  H7    S    
C57   H53   S    
Cr7   O34   S    
C89   H94   S    
C112  C130  S    
C31   C113  S    
C85   C102  S    
C92   H106  S    
C55   C56   S    
Cr3   O33   S    
C134  O40   A    
C62   H67   S    
C107  H98   S    
C10   C133  S    
C11   C132  S    
C55   C68   S    
C116  H133  S    
C96   C136  S    
C9    C130  S    
C43   C78   S    
C15   C19   S    
C77   O22   A    
C50   H25   S    
Cr8   O45   S    
C84   H88   S    
C2    C60   S    
C94   C98   S    
Cr9   O24   S    
C88   H92   S    
C75   C97   S    
C21   H17   S    
C82   C126  S    
C29   C67   S    
C12   C17   S    
Cr1   O9    S    
C57   C70   S    
Cr12  O31   S    
C120  C123  S    
C34   N5    T    
C59   H57   S    
Cr12  O5    S    
C63   C66   S    
C69   C125  S    
C108  H108  S    
C114  C132  S    
Cr7   O17   S    
C111  H111  S    
H38   O57   S    
C15   H75   S    
Cr5   O10   S    
C5    O56   A    
C57   H48   S    
C105  H127  S    
C36   C123  S    
C106  H128  S    
C103  H125  S    
C41   O62   D    
Cr11  O26   S    
C119  C124  S    
Cr11  O67   S    
C35   C77   S    
C53   H104  S    
Cr2   O10   S    
C61   C64   S    
C27   O51   D    
Cr3   O7    S    
C27   C65   S    
Cr1   O40   S    
C37   N7    T    
C54   C115  S    
C89   C107  S    
C38   N8    T    
C13   C104  S    
C68   C127  S    
H41   O63   S    
C25   H24   S    
Cr5   O41   S    
C109  H113  S    
Cr11  O13   S    
C12   H1    S    
C49   O15   A    
C28   O54   S    
C121  H4    S    
C88   H119  S    
C28   O53   D    
Cr10  O47   S    
C18   C43   S    
Cr3   O3    S    
C18   H14   S    
C76   H72   S    
C65   C69   S    
C85   H89   S    
C47   H43   S    
C75   C84   S    
C48   H44   S    
Cr11  O48   S    
C42   C115  S    
C63   C72   S    
C81   H86   S    
C17   C35   S    
C86   H117  S    
C35   C46   S    
C80   O26   A    
Cr5   O12   S    
C39   O58   D    
Cr12  O68   S    
C42   O64   D    
C80   O30   A    
C14   C18   S    
C11   O8    A    
C92   H101  S    
C36   N6    T    
C100  C105  S    
C62   C67   S    
C72   C128  S    
C77   O27   A    
C42   O65   S    
C29   O55   D    
C78   O28   A    
C6    C101  S    
C26   C64   S    
Cr3   O29   S    
C103  H95   S    
C64   H63   S    
C20   H124  S    
C105  H96   S    
C114  H132  S    
Cr4   O13   S    
C16   C24   S    
C11   O39   A    
C84   C101  S    
C129  O35   A    
C26   O49   D    
C86   C103  S    
C4    O68   A    
C112  C113  S    
C119  H134  S    
C6    O66   A    
C62   H55   S    
C8    O36   A    
C63   H56   S    
C125  O31   A    
C117  H9    S    
C106  H97   S    
C24   C25   S    
C75   H70   S    
Cr5   O15   S    
C118  C121  S    
C46   H35   S    
C59   C68   S    
C60   O16   A    
C88   C106  S    
Cr9   O19   S    
Cr12  O9    S    
C33   N4    T    
Cr10  O20   S    
H42   O65   S    
C87   C96   S    
C119  C132  S    
C71   C126  S    
C127  O32   A    
C66   H61   S    
C136  O42   A    
C117  C130  S    
C51   C82   S    
Cr9   O56   S    
H39   O59   S    
C13   C49   S    
C45   C54   S    
C13   C15   S    
C4    C99   S    
C107  H129  S    
C53   H32   S    
C47   H22   S    
C67   H59   S    
Cr9   O10   S    
C21   C46   S    
C61   C69   S    
C113  H131  S    
C58   H50   S    
C23   C48   S    
C113  C131  S    
Cr4   O30   S    
C14   H74   S    
C2    C93   S    
Cr4   O4    S    
C125  O1    A    
C1    O14   A    
C98   C134  S    
C46   H21   S    
C91   C109  S    
Cr1   O1    S    
C7    O67   A    
C73   H77   S    
C58   C72   S    
C74   H69   S    
Cr4   O35   S    
Cr5   O37   S    
C109  H109  S    
C118  H3    S    
C12   H73   S    
C110  H114  S    
C24   C115  S    
C32   C114  S    
C49   O19   A    
Cr1   O14   S    
C23   H13   S    
