data_mof_unit_33965.cif
_audit_creation_date              2012-12-11T14:30:44-0500
_audit_creation_method            fapswitch 2.2
_symmetry_space_group_name_H-M    P1
_symmetry_Int_Tables_number       1
_space_group_crystal_system       triclinic
_cell_length_a                    17.484386
_cell_length_b                    24.277494
_cell_length_c                    14.976948
_cell_angle_alpha                 90.019624
_cell_angle_beta                  124.986731
_cell_angle_gamma                 90.078671
_cell_volume                      5208.48799935

loop_
_atom_site_label
_atom_site_type_symbol
_atom_type_description
_atom_site_fract_x
_atom_site_fract_y
_atom_site_fract_z
_atom_type_partial_charge
C1    C     C_R   0.835991 0.647099 0.906501 -0.142093
C2    C     C_R   0.932137 0.501911 0.633613 0.137454
C3    C     C_R   0.598824 0.553393 0.768708 -0.139286
C4    C     C_R   0.967308 0.115571 0.404236 0.105267
C5    C     C_R   0.002732 0.162220 0.472174 -0.170682
C6    C     C_R   0.990252 0.214813 0.427631 -0.113204
C7    C     C_R   0.945060 0.221216 0.315396 -0.097624
C8    C     C_R   0.913706 0.174931 0.247800 -0.122667
C9    C     C_R   0.925586 0.122383 0.291996 -0.156020
C10   C     C_R   0.029961 0.066871 0.659398 0.102329
C11   C     C_R   0.960248 0.104826 0.636569 -0.169157
C12   C     C_R   0.964248 0.132339 0.721177 -0.113636
C13   C     C_R   0.490285 0.002436 0.314599 0.140474
C14   C     C_R   0.036131 0.120891 0.829458 -0.094372
C15   C     C_R   0.102814 0.081023 0.853188 -0.106507
C16   C     C_R   0.098822 0.053388 0.768688 -0.139279
C17   C     C_R   0.750786 0.408235 0.634167 0.110486
C18   C     C_R   0.711232 0.413130 0.521529 -0.134900
C19   C     C_R   0.714815 0.369863 0.462507 -0.138504
C20   C     C_R   0.760584 0.321175 0.514968 -0.105097
C21   C     C_R   0.804373 0.316244 0.626876 -0.129162
C22   C     C_R   0.800693 0.359477 0.686050 -0.185093
C23   C     C_R   0.287815 0.405825 0.350370 0.115024
C24   C     C_R   0.432139 0.001911 0.633614 0.137455
C25   C     C_R   0.358619 0.369192 0.371474 -0.172220
C26   C     C_R   0.379084 0.322807 0.436809 -0.114033
C27   C     C_R   0.329642 0.312755 0.482428 -0.084645
C28   C     C_R   0.259888 0.349200 0.462976 -0.120851
C29   C     C_R   0.239420 0.395620 0.397710 -0.157284
C30   C     C_R   0.250791 0.908233 0.634168 0.110486
C31   C     C_R   0.211239 0.913125 0.521529 -0.134898
C32   C     C_R   0.214821 0.869856 0.462511 -0.138508
C33   C     C_R   0.260590 0.821169 0.514977 -0.105095
C34   C     C_R   0.304379 0.816241 0.626885 -0.129164
C35   C     C_R   0.693901 0.502572 0.645490 -0.014452
C36   C     C_R   0.300699 0.859476 0.686055 -0.185094
C37   C     C_R   0.787819 0.905827 0.350371 0.115027
C38   C     C_R   0.858621 0.869192 0.371474 -0.172215
C39   C     C_R   0.879088 0.822810 0.436816 -0.114035
C40   C     C_R   0.829651 0.812763 0.482444 -0.084646
C41   C     C_R   0.759900 0.849209 0.462994 -0.120849
C42   C     C_R   0.739429 0.895627 0.397720 -0.157285
C43   C     C_R   0.321727 0.503818 0.322505 -0.000198
C44   C     C_R   0.193906 0.002573 0.645481 -0.014458
C45   C     C_R   0.821730 0.003817 0.322493 -0.000201
C46   C     C_3   0.532322 0.453103 0.517221 -0.135098
C47   C     C_3   0.492123 0.474192 0.401014 -0.161219
C48   C     C_3   0.032325 0.953103 0.517215 -0.135095
C49   C     C_R   0.161197 0.648554 0.092765 -0.150795
C50   C     C_3   0.992126 0.974187 0.401004 -0.161214
C51   C     C_3   0.458741 0.486278 0.520287 -0.182894
C52   C     C_3   0.557421 0.524690 0.447919 -0.210283
C53   C     C_3   0.958746 0.986283 0.520276 -0.182891
C54   C     C_3   0.057426 0.024685 0.447901 -0.210278
C55   C     C_3   0.419863 0.507153 0.405317 0.128991
C56   C     C_3   0.595995 0.503651 0.562479 0.120095
C57   C     C_3   0.919868 0.007152 0.405302 0.128992
C58   C     C_3   0.096000 0.003651 0.562465 0.120086
C59   C     C_3   0.483761 0.558050 0.450659 0.008643
C60   C     C_R   0.335990 0.147099 0.906501 -0.142082
C61   C     C_3   0.523675 0.537017 0.566799 0.003572
C62   C     C_3   0.983767 0.058049 0.450635 0.008642
C63   C     C_3   0.023681 0.037022 0.566779 0.003569
C64   C     C_2   0.122848 0.768477 0.923308 -0.114114
C65   C     C_2   0.874033 0.767977 0.071437 -0.115195
C66   C     C_2   0.622849 0.268476 0.923309 -0.114114
C67   C     C_2   0.374031 0.267977 0.071437 -0.115195
C68   C     C_2   0.172618 0.732024 0.004054 -0.201294
C69   C     C_2   0.822285 0.729772 0.994956 -0.198311
C70   C     C_2   0.672621 0.232022 0.004052 -0.201299
C71   C     C_R   0.661198 0.148553 0.092765 -0.150792
C72   C     C_2   0.322283 0.229772 0.994956 -0.198315
C73   C     C_2   0.666969 0.318590 0.918251 -0.108070
C74   C     C_2   0.330532 0.318240 0.076321 -0.117020
C75   C     C_2   0.166969 0.818590 0.918251 -0.108071
C76   C     C_2   0.830533 0.818240 0.076321 -0.117021
C77   C     C_R   0.906358 0.374785 0.093335 -0.133027
C78   C     C_R   0.092749 0.377257 0.903833 -0.151382
C79   C     C_R   0.406358 0.874785 0.093335 -0.133025
C80   C     C_R   0.592749 0.877257 0.903833 -0.151382
C81   C     C_2   0.743197 0.339764 0.008240 -0.201719
C82   C     C_R   0.816193 0.365699 0.004254 0.140751
C83   C     C_2   0.252349 0.337757 0.986802 -0.193427
C84   C     C_2   0.243196 0.839765 0.008239 -0.201718
C85   C     C_2   0.752349 0.837757 0.986802 -0.193428
C86   C     C_2   0.905981 0.462176 0.381599 -0.123390
C87   C     C_2   0.888577 0.458162 0.465582 -0.119985
C88   C     C_2   0.405984 0.962176 0.381601 -0.123390
C89   C     C_2   0.388579 0.958161 0.465584 -0.119988
C90   C     C_2   0.959350 0.503048 0.385068 -0.194486
C91   C     C_2   0.890979 0.503444 0.517831 -0.202434
C92   C     C_2   0.459354 0.003047 0.385072 -0.194484
C93   C     C_R   0.180762 0.364037 0.992685 0.128695
C94   C     C_2   0.390980 0.003444 0.517831 -0.202435
C95   C     C_R   0.004692 0.548107 0.271848 -0.147449
C96   C     C_R   0.950035 0.547341 0.697551 -0.146108
C97   C     C_R   0.504694 0.048107 0.271850 -0.147446
C98   C     C_R   0.450036 0.047341 0.697552 -0.146110
C99   C     C_R   0.746575 0.455996 0.695917 0.003806
C100  C     C_R   0.267078 0.456440 0.284668 0.009574
C101  C     C_R   0.246579 0.955996 0.695914 0.003802
C102  C     C_R   0.767080 0.956440 0.284662 0.009573
C103  C     C_R   0.010489 0.456260 0.278218 -0.157946
C104  C     C_R   0.316192 0.865700 0.004254 0.140750
C105  C     C_R   0.949515 0.455992 0.696430 -0.128238
C106  C     C_R   0.510491 0.956259 0.278220 -0.157950
C107  C     C_R   0.449516 0.955992 0.696431 -0.128240
C108  C     C_R   0.741664 0.548009 0.703740 -0.161312
C109  C     C_R   0.266181 0.548851 0.276979 -0.172978
C110  C     C_R   0.241667 0.048009 0.703735 -0.161286
C111  C     C_R   0.766183 0.048851 0.276971 -0.172975
C112  C     C_R   0.811658 0.380922 0.912707 -0.156575
C113  C     C_R   0.184517 0.375931 0.085518 -0.119014
C114  C     C_R   0.311658 0.880923 0.912707 -0.156578
C115  C     C_R   0.680762 0.864036 0.992685 0.128696
C116  C     C_R   0.684517 0.875930 0.085518 -0.119014
C117  C     C_R   0.929969 0.648489 0.089159 -0.127223
C118  C     C_R   0.068955 0.648626 0.910111 -0.116766
C119  C     C_R   0.429968 0.148489 0.089160 -0.127223
C120  C     C_R   0.568956 0.148625 0.910111 -0.116769
C121  C     C_R   0.858527 0.675936 0.997893 0.132514
C122  C     C_R   0.138193 0.677408 0.001197 0.129079
C123  C     C_R   0.358526 0.175936 0.997893 0.132513
C124  C     C_R   0.638195 0.177408 0.001197 0.129080
C125  C     C_R   0.467297 0.615574 0.404269 0.105269
C126  C     C_R   0.990282 0.502436 0.314595 0.140476
C127  C     C_R   0.502699 0.662220 0.472210 -0.170689
C128  C     C_R   0.490212 0.714816 0.427675 -0.113205
C129  C     C_R   0.445036 0.721224 0.315445 -0.097632
C130  C     C_R   0.413702 0.674942 0.247846 -0.122674
C131  C     C_R   0.425589 0.622391 0.292034 -0.156019
C132  C     C_R   0.529949 0.566862 0.659417 0.102322
C133  C     C_R   0.460217 0.604798 0.636588 -0.169160
C134  C     C_R   0.464210 0.632308 0.721193 -0.113634
C135  C     C_R   0.536104 0.620874 0.829473 -0.094382
C136  C     C_R   0.602807 0.581025 0.853205 -0.106513
H1    H     H_    0.791971 0.660950 0.822883 0.094054
H2    H     H_    0.945516 0.759380 0.138817 0.119343
H3    H     H_    0.687920 0.924480 0.386850 0.118962
H4    H     H_    0.553601 0.258115 0.852713 0.117822
H5    H     H_    0.445514 0.259379 0.138818 0.119343
H6    H     H_    0.242679 0.741033 0.073999 0.130466
H7    H     H_    0.749954 0.736913 0.928581 0.134883
H8    H     H_    0.742684 0.241030 0.073995 0.130470
H9    H     H_    0.249953 0.236913 0.928581 0.134885
H10   H     H_    0.645607 0.331362 0.837685 0.118625
H11   H     H_    0.354748 0.332864 0.156877 0.113705
H12   H     H_    0.145608 0.831362 0.837685 0.118624
H13   H     H_    0.203048 0.663464 0.175824 0.103628
H14   H     H_    0.854748 0.832864 0.156876 0.113704
H15   H     H_    0.760569 0.329625 0.088487 0.125962
H16   H     H_    0.233031 0.326268 0.906234 0.130245
H17   H     H_    0.260568 0.829627 0.088487 0.125960
H18   H     H_    0.733031 0.826268 0.906234 0.130245
H19   H     H_    0.885939 0.427585 0.326246 0.121327
H20   H     H_    0.893267 0.417303 0.497533 0.128523
H21   H     H_    0.385942 0.927585 0.326247 0.121326
H22   H     H_    0.393269 0.917303 0.497534 0.128523
H23   H     H_    0.982692 0.537393 0.441382 0.131826
H24   H     H_    0.291970 0.160950 0.822883 0.094053
H25   H     H_    0.879906 0.543859 0.481160 0.131180
H26   H     H_    0.482697 0.037392 0.441386 0.131826
H27   H     H_    0.379908 0.043858 0.481160 0.131181
H28   H     H_    0.933718 0.362843 0.175523 0.083129
H29   H     H_    0.066230 0.372322 0.819071 0.100105
H30   H     H_    0.433717 0.862845 0.175523 0.083132
H31   H     H_    0.566231 0.872322 0.819071 0.100105
H32   H     H_    0.000239 0.590817 0.288543 0.094366
H33   H     H_    0.931492 0.589445 0.669620 0.088662
H34   H     H_    0.500241 0.090817 0.288545 0.094366
H35   H     H_    0.703049 0.163464 0.175823 0.103624
H36   H     H_    0.431493 0.089445 0.669620 0.088662
H37   H     H_    0.018745 0.414983 0.309026 0.089410
H38   H     H_    0.931351 0.414007 0.668129 0.110043
H39   H     H_    0.518749 0.914982 0.309029 0.089413
H40   H     H_    0.431352 0.914007 0.668130 0.110043
H41   H     H_    0.723416 0.590807 0.681983 0.109011
H42   H     H_    0.283224 0.591583 0.299170 0.117542
H43   H     H_    0.223420 0.090807 0.681978 0.109003
H44   H     H_    0.783228 0.091583 0.299161 0.117537
H45   H     H_    0.750315 0.380592 0.829918 0.101033
H46   H     H_    0.553178 0.410120 0.546463 0.126847
H47   H     H_    0.241605 0.367982 0.167044 0.106397
H48   H     H_    0.250315 0.880593 0.829917 0.101033
H49   H     H_    0.741604 0.867980 0.167045 0.106395
H50   H     H_    0.971072 0.663488 0.172111 0.085346
H51   H     H_    0.028280 0.662406 0.826351 0.085024
H52   H     H_    0.471071 0.163488 0.172111 0.085346
H53   H     H_    0.528282 0.162405 0.826351 0.085026
H54   H     H_    0.416212 0.470490 0.548335 0.135838
H55   H     H_    0.600649 0.540252 0.420634 0.124931
H56   H     H_    0.916217 0.970499 0.548327 0.135836
H57   H     H_    0.478348 0.449856 0.330452 0.112204
H58   H     H_    0.100655 0.040243 0.420613 0.124931
H59   H     H_    0.542209 0.658279 0.559656 0.118822
H60   H     H_    0.516882 0.750571 0.480461 0.101430
H61   H     H_    0.435830 0.761924 0.281142 0.091470
H62   H     H_    0.380826 0.679671 0.161262 0.113812
H63   H     H_    0.402166 0.586899 0.238634 0.123858
H64   H     H_    0.403097 0.613452 0.553158 0.114316
H65   H     H_    0.411300 0.662306 0.702774 0.103787
H66   H     H_    0.539165 0.642167 0.894960 0.105871
H67   H     H_    0.657049 0.571070 0.937140 0.118181
H68   H     H_    0.053181 0.910121 0.546464 0.126845
H69   H     H_    0.648532 0.520939 0.789323 0.127498
H70   H     H_    0.042254 0.158282 0.559623 0.118810
H71   H     H_    0.016939 0.250571 0.480415 0.101423
H72   H     H_    0.935859 0.261915 0.281087 0.091472
H73   H     H_    0.880818 0.179656 0.161211 0.113814
H74   H     H_    0.902148 0.086887 0.238598 0.123858
H75   H     H_    0.903135 0.113490 0.553139 0.114314
H76   H     H_    0.911353 0.162352 0.702759 0.103776
H77   H     H_    0.039198 0.142187 0.894947 0.105869
H78   H     H_    0.157046 0.071058 0.937122 0.118178
H79   H     H_    0.978350 0.949847 0.330445 0.112202
H80   H     H_    0.148514 0.020921 0.789300 0.127488
H81   H     H_    0.680235 0.451038 0.478663 0.124207
H82   H     H_    0.683481 0.374581 0.376219 0.112968
H83   H     H_    0.764058 0.287815 0.469449 0.102246
H84   H     H_    0.842697 0.279125 0.668438 0.107592
H85   H     H_    0.840137 0.354219 0.772143 0.129223
H86   H     H_    0.396684 0.375722 0.335628 0.099180
H87   H     H_    0.433247 0.294639 0.451956 0.105724
H88   H     H_    0.345642 0.276892 0.533189 0.094428
H89   H     H_    0.222259 0.341788 0.499308 0.105875
H90   H     H_    0.053601 0.758115 0.852710 0.117820
H91   H     H_    0.187908 0.424471 0.386839 0.118960
H92   H     H_    0.180242 0.951032 0.478660 0.124207
H93   H     H_    0.183487 0.874572 0.376223 0.112967
H94   H     H_    0.264064 0.787808 0.469461 0.102248
H95   H     H_    0.342703 0.779123 0.668451 0.107598
H96   H     H_    0.340143 0.854220 0.772149 0.129226
H97   H     H_    0.896682 0.875719 0.335623 0.099175
H98   H     H_    0.933248 0.794639 0.451961 0.105724
H99   H     H_    0.845653 0.776901 0.533210 0.094428
H100  H     H_    0.722276 0.841801 0.499333 0.105878
N1    N     N_R   0.892320 0.603520 0.941090 -0.041669
N2    N     N_R   0.973240 0.529450 0.794410 -0.038434
N3    N     N_R   0.526760 0.029450 0.205590 -0.040529
N4    N     N_R   0.473240 0.029450 0.794410 -0.038434
N5    N     N_R   0.819350 0.473090 0.793940 -0.057041
N6    N     N_R   0.180650 0.473090 0.206060 -0.057271
N7    N     N_R   0.319350 0.973090 0.793940 -0.057042
N8    N     N_R   0.680650 0.973090 0.206060 -0.057271
N9    N     N_R   0.027860 0.473090 0.206590 -0.042769
N10   N     N_R   0.972140 0.473090 0.793410 -0.042909
N11   N     N_R   0.527860 0.973090 0.206590 -0.042768
N12   N     N_R   0.107680 0.603520 0.058910 -0.039690
N13   N     N_R   0.472140 0.973090 0.793410 -0.042909
N14   N     N_R   0.818250 0.529450 0.792940 -0.043343
N15   N     N_R   0.181750 0.529450 0.207060 -0.042870
N16   N     N_R   0.318250 0.029450 0.792940 -0.043344
N17   N     N_R   0.681750 0.029450 0.207060 -0.042870
N18   N     N_R   0.896320 0.399020 0.944720 -0.053129
N19   N     N_R   0.103680 0.399020 0.055280 -0.045230
N20   N     N_R   0.396320 0.899020 0.944720 -0.053129
N21   N     N_R   0.603680 0.899020 0.055280 -0.045230
N22   N     N_R   0.949790 0.603520 0.054810 -0.042815
N23   N     N_R   0.392320 0.103520 0.941090 -0.041669
N24   N     N_R   0.050210 0.603520 0.945190 -0.043036
N25   N     N_R   0.449790 0.103520 0.054810 -0.042816
N26   N     N_R   0.550210 0.103520 0.945190 -0.043037
N27   N     N_R   0.607680 0.103520 0.058910 -0.039691
N28   N     N_R   0.953790 0.399020 0.058440 -0.038102
N29   N     N_R   0.046210 0.399020 0.941560 -0.044658
N30   N     N_R   0.453790 0.899020 0.058440 -0.038103
N31   N     N_R   0.546210 0.899020 0.941560 -0.044659
N32   N     N_R   0.026760 0.529450 0.205590 -0.040529
Ni1   Ni    Ni4+2 0.934100 0.565890 0.869590 0.205464
Ni2   Ni    Ni4+2 0.065900 0.565890 0.130410 0.205784
Ni3   Ni    Ni4+2 0.434100 0.065890 0.869590 0.205464
Ni4   Ni    Ni4+2 0.565900 0.065890 0.130410 0.205785
Ni5   Ni    Ni4+2 0.068420 0.436630 0.132700 0.216255
Ni6   Ni    Ni4+2 0.931580 0.436630 0.867300 0.207793
Ni7   Ni    Ni4+2 0.568420 0.936630 0.132700 0.216255
Ni8   Ni    Ni4+2 0.431580 0.936630 0.867300 0.207793

loop_
_geom_bond_atom_site_label_1
_geom_bond_atom_site_label_2
_ccdc_geom_bond_type
C111  N17   A    
C54   H58   S    
C77   N28   A    
C87   C91   D    
C60   C123  A    
C80   N31   A    
C41   C42   A    
C6    C7    A    
C34   H95   S    
N21   N31   A    
C74   C83   D    
C95   H32   S    
C38   H97   S    
C64   H90   S    
C81   C82   S    
N18   Ni6   S    
C100  N6    A    
C57   C62   S    
C66   C70   D    
N8    N17   A    
C71   H35   S    
C45   C57   S    
C27   H88   S    
C50   C54   S    
C65   C76   S    
N26   N27   A    
N3    Ni4   S    
N19   Ni5   S    
C113  N19   A    
N6    N15   A    
C64   C68   D    
C60   N23   A    
N9    Ni5   S    
C28   C29   A    
C3    C136  A    
N22   Ni2   S    
C55   C59   S    
C117  H50   S    
C15   H78   S    
C5    C6    A    
C114  H48   S    
C75   C84   D    
C98   N4    A    
C107  H40   S    
C78   C93   A    
C89   C94   D    
C15   C16   A    
C83   C93   S    
C4    C62   S    
C127  H59   S    
C103  H37   S    
C79   N30   A    
C8    C9    A    
N3    N11   A    
C18   C19   A    
C118  C122  A    
C50   H79   S    
N24   Ni1   S    
C16   H80   S    
C103  C126  A    
C117  C121  A    
C119  H52   S    
N25   Ni4   S    
C77   C82   A    
C35   C108  A    
C61   C132  S    
C11   H75   S    
C5    H70   S    
N12   N24   A    
C120  C124  A    
C109  H42   S    
C10   C63   S    
C109  N15   A    
C88   C92   D    
C44   C58   S    
C132  C133  A    
C21   H84   S    
C51   C61   S    
C114  N20   A    
N8    Ni7   S    
C130  H62   S    
C106  H39   S    
C68   H6    S    
C49   N12   A    
C69   C121  S    
C106  N11   A    
C135  C136  A    
N30   Ni7   S    
C80   H31   S    
C51   C55   S    
N29   Ni6   S    
C119  N25   A    
C98   H36   S    
C77   H28   S    
C48   C50   S    
C23   C100  S    
N26   Ni3   S    
C10   C11   A    
N18   N28   A    
N4    N13   A    
C31   H92   S    
C128  C129  A    
C13   C97   A    
C40   H99   S    
C35   C99   A    
N15   Ni2   S    
C73   C81   D    
C37   C42   A    
C135  H66   S    
C71   N27   A    
C48   C53   S    
C97   N3    A    
C22   H85   S    
N31   Ni8   S    
N21   Ni7   S    
C59   C61   S    
C87   H20   S    
C107  N13   A    
C3    C132  A    
C3    H69   S    
C78   N29   A    
C60   H24   S    
C74   H11   S    
C85   C115  S    
C118  N24   A    
C38   C39   A    
C43   C100  A    
C12   H76   S    
C86   C90   D    
C68   C122  S    
C39   C40   A    
C19   H82   S    
C53   C57   S    
C86   C87   S    
C7    H72   S    
C93   C113  A    
N10   Ni6   S    
C54   C62   S    
C1    N1    A    
C25   C26   A    
C81   H15   S    
C66   C73   S    
C46   C51   S    
C37   C102  S    
C14   H77   S    
C108  N14   A    
C52   H55   S    
C82   C112  A    
N5    Ni6   S    
C99   N5    A    
N2    Ni1   S    
C131  H63   S    
C86   H19   S    
C37   C38   A    
C52   C59   S    
C24   C94   S    
C133  C134  A    
C84   H17   S    
C125  C131  A    
C112  N18   A    
C31   C32   A    
C80   C115  A    
C76   H14   S    
C9    H74   S    
C36   H96   S    
N2    N10   A    
C62   C63   S    
C17   C18   A    
C90   C126  S    
N13   Ni8   S    
C66   H4    S    
C25   H86   S    
C24   C107  A    
C103  N9    A    
C88   H21   S    
C20   C21   A    
C125  C127  A    
C17   C99   S    
C6    H71   S    
C134  C135  A    
C51   H54   S    
N28   Ni5   S    
C49   H13   S    
C104  C114  A    
C65   H2    S    
N23   Ni3   S    
C43   C55   S    
C40   C41   A    
N32   Ni2   S    
C43   C109  A    
C133  H64   S    
C120  N26   A    
C96   H33   S    
C72   C123  S    
C26   C27   A    
C111  H44   S    
C84   C104  S    
C20   H83   S    
C24   C98   A    
C71   C124  A    
N9    N32   A    
C102  N8    A    
C90   H23   S    
N11   Ni7   S    
C127  C128  A    
C67   H5    S    
C23   C29   A    
N1    N22   A    
C67   C72   D    
C1    H1    S    
N4    Ni3   S    
C134  H65   S    
C47   C55   S    
C83   H16   S    
C54   C58   S    
C92   H26   S    
C58   C63   S    
N20   N30   A    
C32   H93   S    
N27   Ni4   S    
C78   H29   S    
N7    N16   A    
C42   H3    S    
C56   C61   S    
C50   C57   S    
C96   N2    A    
C47   H57   S    
C91   H25   S    
N5    N14   A    
C128  H60   S    
N6    Ni5   S    
C12   C14   A    
C13   C106  A    
N23   N25   A    
C118  H51   S    
C46   C56   S    
C28   H89   S    
C35   C56   S    
C39   H98   S    
C44   C101  A    
C45   C111  A    
N16   Ni3   S    
C48   C58   S    
C112  H45   S    
C41   H100  S    
C119  C123  A    
C75   H12   S    
C69   H7    S    
N19   N29   A    
C116  H49   S    
C48   H68   S    
C2    C105  A    
C70   H8    S    
C17   C22   A    
C30   C36   A    
C73   H10   S    
C105  H38   S    
C79   C104  A    
C110  N16   A    
C32   C33   A    
C46   H46   S    
C19   C20   A    
C2    C96   A    
C130  C131  A    
C129  C130  A    
C13   C92   S    
C10   C16   A    
C59   C125  S    
C67   C74   S    
C117  N22   A    
C53   C63   S    
C30   C31   A    
C89   H22   S    
C95   N32   A    
C113  H47   S    
C52   C56   S    
C110  H43   S    
C65   C69   D    
C49   C122  A    
C94   H27   S    
C30   C101  S    
C64   C75   S    
C33   C34   A    
C108  H41   S    
C34   C36   A    
C85   H18   S    
C23   C25   A    
C79   H30   S    
C95   C126  A    
C2    C91   S    
C101  N7    A    
C53   H56   S    
C1    C121  A    
C105  N10   A    
C46   C47   S    
C7    C8    A    
C45   C102  A    
C97   H34   S    
C70   C124  S    
C8    H73   S    
C4    C5    A    
C120  H53   S    
N12   Ni2   S    
C88   C89   S    
N7    Ni8   S    
C47   C52   S    
C26   H87   S    
C72   H9    S    
C29   H91   S    
C14   C15   A    
N20   Ni8   S    
N1    Ni1   S    
N17   Ni4   S    
N14   Ni1   S    
C115  C116  A    
C4    C9    A    
C21   C22   A    
C18   H81   S    
C76   C85   D    
C136  H67   S    
C129  H61   S    
C116  N21   A    
C33   H94   S    
C11   C12   A    
C27   C28   A    
C44   C110  A    
