data_mof_unit_12864.cif
_audit_creation_date              2012-12-10T20:48:18-0500
_audit_creation_method            fapswitch 2.2
_symmetry_space_group_name_H-M    P1
_symmetry_Int_Tables_number       1
_space_group_crystal_system       triclinic
_cell_length_a                    10.654385
_cell_length_b                    8.919056
_cell_length_c                    8.113889
_cell_angle_alpha                 90.0
_cell_angle_beta                  90.177247
_cell_angle_gamma                 90.000323
_cell_volume                      771.035298682

loop_
_atom_site_label
_atom_site_type_symbol
_atom_type_description
_atom_site_fract_x
_atom_site_fract_y
_atom_site_fract_z
_atom_type_partial_charge
C1    C     C_R   0.500004 0.218038 0.500000 1.031141
C2    C     C_1   0.500003 0.934783 0.500000 -0.175382
C3    C     C_3   0.071621 0.635948 0.504943 -0.409906
C4    C     C_3   0.928378 0.635942 0.494905 -0.409916
C5    C     C_3   0.122034 0.472538 0.498941 -0.038505
C6    C     C_3   0.877965 0.472537 0.501069 -0.038502
C7    C     C_2   0.131574 0.234416 0.684198 1.014639
C8    C     C_2   0.137178 0.257166 0.272894 1.004191
C9    C     C_2   0.862830 0.257339 0.727322 1.004090
C10   C     C_2   0.868424 0.234259 0.316063 1.014565
C11   C     C_R   0.258024 0.486681 0.499720 0.887358
C12   C     C_R   0.741975 0.486678 0.500282 0.887376
C13   C     C_R   0.500001 0.781940 0.500000 0.935232
C14   C     C_1   0.500004 0.065233 0.500000 -0.106948
C15   C     C_3   0.073933 0.388859 0.657657 -0.254885
C16   C     C_3   0.071895 0.398566 0.334629 -0.259401
C17   C     C_3   0.928105 0.398698 0.665454 -0.259434
C18   C     C_3   0.926065 0.388725 0.342439 -0.254827
H1    H     H_    0.107801 0.454910 0.765778 0.160750
H2    H     H_    0.150495 0.103768 0.091139 0.355975
H3    H     H_    0.849521 0.104086 0.909223 0.356103
H4    H     H_    0.733164 0.112807 0.203722 0.334673
H5    H     H_    0.093235 0.480740 0.234858 0.136145
H6    H     H_    0.906760 0.480950 0.765146 0.136122
H7    H     H_    0.892192 0.454681 0.234250 0.160803
H8    H     H_    0.101810 0.692211 0.621107 0.199474
H9    H     H_    0.109883 0.703720 0.401203 0.199171
H10   H     H_    0.890115 0.703799 0.598577 0.199204
H11   H     H_    0.898189 0.692108 0.378684 0.199442
H12   H     H_    0.266796 0.113054 0.796733 0.334716
N1    N     N_1   0.500000 0.500030 0.073640 -0.013103
N2    N     N_1   0.500000 0.500030 0.926360 -0.013088
O1    O     O_R   0.500000 0.285340 0.636850 -0.590937
O2    O     O_R   0.235327 0.220112 0.788937 -0.777388
O3    O     O_2   0.222379 0.198373 0.350453 -0.638755
O4    O     O_R   0.102084 0.197954 0.120125 -0.752663
O5    O     O_2   0.777643 0.198465 0.649810 -0.638657
O6    O     O_R   0.897915 0.198264 0.880158 -0.752720
O7    O     O_2   0.911868 0.123051 0.383022 -0.567336
O8    O     O_R   0.764626 0.219875 0.211416 -0.777491
O9    O     O_R   0.500000 0.285340 0.363150 -0.590906
O10   O     O_R   0.314790 0.499970 0.636880 -0.612626
O11   O     O_R   0.314790 0.499970 0.363120 -0.629974
O12   O     O_R   0.685210 0.499970 0.636880 -0.629975
O13   O     O_R   0.685210 0.499970 0.363120 -0.612636
O14   O     O_R   0.500000 0.714650 0.636900 -0.621221
O15   O     O_R   0.500000 0.714650 0.363100 -0.621243
O16   O     O_2   0.088163 0.123160 0.617301 -0.567329
Zn1   Zn    Zn3+2 0.500000 0.499990 0.682780 1.032298
Zn2   Zn    Zn3+2 0.500000 0.499990 0.317220 1.032284

loop_
_geom_bond_atom_site_label_1
_geom_bond_atom_site_label_2
_ccdc_geom_bond_type
O12   Zn1   S    
O11   Zn2   S    
C8    O4    S    
C16   H5    S    
C4    H11   S    
H4    O8    S    
C7    O16   D    
C7    C15   S    
C1    O1    A    
C12   O12   A    
C16   C18   S    
C15   H1    S    
C2    C13   S    
O14   Zn1   S    
C18   H7    S    
O13   Zn2   S    
C10   C18   S    
C6    C18   S    
C9    C17   S    
C9    O6    S    
C4    H10   S    
C5    C11   S    
O15   Zn2   S    
C3    H9    S    
C6    C12   S    
C13   O14   A    
C2    C14   T    
C7    O2    S    
N2    Zn1   S    
C5    C15   S    
C17   H6    S    
H12   O2    S    
N1    Zn2   S    
O1    Zn1   S    
C3    C4    S    
H2    O4    S    
O9    Zn2   S    
C11   O10   A    
C4    C6    S    
C9    O5    D    
C8    C16   S    
C1    O9    A    
C15   C17   S    
C6    C17   S    
C12   O13   A    
C10   O8    S    
C1    C14   S    
O10   Zn1   S    
C3    C5    S    
C13   O15   A    
C11   O11   A    
C3    H8    S    
H3    O6    S    
N1    N2    T    
C10   O7    D    
C5    C16   S    
C8    O3    D    
