data_mof_unit_13072.cif
_audit_creation_date              2012-12-10T18:09:56-0500
_audit_creation_method            fapswitch 2.2
_symmetry_space_group_name_H-M    P1
_symmetry_Int_Tables_number       1
_space_group_crystal_system       triclinic
_cell_length_a                    10.622457
_cell_length_b                    12.594606
_cell_length_c                    13.10823
_cell_angle_alpha                 82.228814
_cell_angle_beta                  90.516818
_cell_angle_gamma                 102.451378
_cell_volume                      1696.35057547

loop_
_atom_site_label
_atom_site_type_symbol
_atom_type_description
_atom_site_fract_x
_atom_site_fract_y
_atom_site_fract_z
_atom_type_partial_charge
C1    C     C_R   0.479884 0.438736 0.691225 0.850840
C2    C     C_R   0.461343 0.447110 0.973613 0.083906
C3    C     C_R   0.431662 0.467764 0.869226 0.047735
C4    C     C_R   0.742087 0.501500 0.496467 0.858027
C5    C     C_R   0.462248 0.530568 0.035694 0.042427
C6    C     C_R   0.412807 0.624818 0.998619 0.116688
C7    C     C_R   0.365129 0.635329 0.898381 0.119970
C8    C     C_R   0.374148 0.557050 0.835222 -0.229710
C9    C     C_R   0.514810 0.523594 0.133222 -0.220884
C10   C     C_R   0.452717 0.689820 0.164653 -0.219967
C11   C     C_R   0.462529 0.399312 0.800983 -0.103514
C12   C     C_3   0.121631 0.500195 0.494955 0.145354
C13   C     C_R   0.322894 0.088748 0.345326 -0.302033
C14   C     C_R   0.650059 0.798293 0.631803 0.018558
C15   C     C_R   0.679777 0.902362 0.662564 0.165431
C16   C     C_R   0.512913 0.561164 0.308643 0.872250
C17   C     C_R   0.622213 0.984255 0.612433 -0.199063
C18   C     C_R   0.535080 0.962182 0.531847 -0.018273
C19   C     C_R   0.508173 0.854816 0.504399 0.236190
C20   C     C_R   0.473230 0.041729 0.477959 0.007872
C21   C     C_R   0.385203 0.011865 0.398983 0.201830
C22   C     C_R   0.360470 0.905716 0.373980 -0.297019
C23   C     C_3   0.098904 0.604833 0.426336 -0.408136
C24   C     C_R   0.421591 0.828654 0.425779 -0.204070
C25   C     C_R   0.495162 0.150553 0.498590 -0.029545
C26   C     C_R   0.348590 0.194710 0.369792 0.017229
C27   C     C_R   0.258292 0.500235 0.497508 0.820757
C28   C     C_3   0.902898 0.399510 0.446054 0.022938
C29   C     C_3   0.045898 0.397679 0.450292 -0.408277
C30   C     C_3   0.955319 0.608042 0.429343 -0.369715
C31   C     C_3   0.927388 0.495771 0.605484 -0.448353
C32   C     C_3   0.878878 0.501505 0.493418 0.110311
C33   C     C_3   0.771298 0.926624 0.748494 -0.896795
C34   C     C_3   0.072385 0.498330 0.606043 -0.397089
C35   C     C_R   0.411133 0.704911 0.063633 -0.153473
C36   C     C_R   0.501282 0.597045 0.199787 -0.050000
C37   C     C_R   0.493667 0.298897 0.839347 -0.188994
C38   C     C_R   0.502393 0.269865 0.944673 -0.130373
C39   C     C_R   0.489484 0.343919 0.011530 -0.166010
H1    H     H_    0.124396 0.572419 0.638676 0.202844
H2    H     H_    0.849260 0.322660 0.492544 0.143556
H3    H     H_    0.334366 0.566453 0.759113 0.184398
H4    H     H_    0.301864 0.255687 0.328991 0.136647
H5    H     H_    0.293740 0.882052 0.313793 0.152611
H6    H     H_    0.255526 0.067176 0.285021 0.151037
H7    H     H_    0.560902 0.181479 0.555991 0.118397
H8    H     H_    0.692931 0.733245 0.669604 0.143874
H9    H     H_    0.646988 0.063575 0.638511 0.139002
H10   H     H_    0.399000 0.748878 0.402680 0.204057
H11   H     H_    0.057938 0.321295 0.499515 0.171751
H12   H     H_    0.943829 0.681086 0.464641 0.188291
H13   H     H_    0.084763 0.395652 0.372221 0.199478
H14   H     H_    0.918638 0.617919 0.349700 0.190716
H15   H     H_    0.130868 0.605398 0.345569 0.172558
H16   H     H_    0.909033 0.566083 0.641897 0.196221
H17   H     H_    0.874682 0.419009 0.652554 0.163499
H18   H     H_    0.090760 0.425019 0.656628 0.162685
H19   H     H_    0.808739 0.853425 0.780446 0.244552
H20   H     H_    0.854303 0.993677 0.719531 0.245071
H21   H     H_    0.720931 0.952745 0.811465 0.253467
H22   H     H_    0.155504 0.680288 0.453909 0.193790
H23   H     H_    0.441460 0.747652 0.216086 0.150855
H24   H     H_    0.373533 0.777151 0.038766 0.173772
H25   H     H_    0.563280 0.458684 0.161133 0.172255
H26   H     H_    0.515016 0.244369 0.787854 0.154880
H27   H     H_    0.498794 0.317239 0.092466 0.142982
H28   H     H_    0.524764 0.191717 0.974360 0.151285
I1    I     I_    0.835616 0.391753 0.289747 -0.433914
I2    I     I_    0.283651 0.768588 0.832881 -0.434439
N1    N     N_R   0.433240 0.222190 0.444680 -0.099528
N2    N     N_R   0.566070 0.776970 0.554790 -0.148955
O1    O     O_R   0.468120 0.366740 0.627160 -0.615079
O2    O     O_R   0.510770 0.544830 0.662520 -0.611397
O3    O     O_R   0.663880 0.410950 0.482330 -0.607739
O4    O     O_R   0.706530 0.589040 0.517700 -0.625752
O5    O     O_R   0.489230 0.455170 0.337480 -0.603127
O6    O     O_R   0.531880 0.633260 0.372840 -0.635484
O7    O     O_R   0.293470 0.410960 0.482300 -0.624407
O8    O     O_R   0.336120 0.589050 0.517670 -0.641215
Zn1   Zn    Zn3+2 0.471520 0.381090 0.476390 0.950248
Zn2   Zn    Zn3+2 0.528480 0.618910 0.523610 0.929235

loop_
_geom_bond_atom_site_label_1
_geom_bond_atom_site_label_2
_ccdc_geom_bond_type
C30   C32   S    
C30   H12   S    
C33   H19   S    
C12   C29   S    
C9    H25   S    
C14   N2    A    
C19   N2    A    
C1    C11   S    
C17   H9    S    
C27   O7    A    
C7    C8    A    
C12   C23   S    
C34   H1    S    
C28   C29   S    
C28   I1    S    
C8    H3    S    
C18   C19   A    
C27   O8    A    
C5    C6    A    
O7    Zn1   S    
C20   C25   A    
C28   H2    S    
C6    C35   A    
C16   O6    A    
C11   C37   A    
C4    O4    A    
C2    C39   A    
C22   H5    S    
C37   H26   S    
C9    C36   A    
C10   C35   A    
C31   H17   S    
C4    O3    A    
C33   H20   S    
O3    Zn1   S    
C21   C22   A    
C10   H23   S    
O2    Zn2   S    
C26   H4    S    
C29   H11   S    
C30   H14   S    
C1    O1    A    
C12   C27   S    
N1    Zn1   S    
C23   C30   S    
C28   C32   S    
C3    C8    A    
O8    Zn2   S    
O4    Zn2   S    
C5    C9    A    
C37   C38   A    
C34   H18   S    
C31   C32   S    
O6    Zn2   S    
C17   C18   A    
C31   C34   S    
C13   C21   A    
C4    C32   S    
C38   H28   S    
C14   H8    S    
C33   H21   S    
C26   N1    A    
C39   H27   S    
C22   C24   A    
C13   C26   A    
C2    C5    A    
C12   C34   S    
C23   H15   S    
C24   H10   S    
C15   C17   A    
C16   O5    A    
O5    Zn1   S    
C7    I2    S    
C35   H24   S    
C6    C7    A    
C1    O2    A    
C2    C3    A    
O1    Zn1   S    
C16   C36   S    
C13   H6    S    
C38   C39   A    
C19   C24   A    
C18   C20   A    
C3    C11   A    
C23   H22   S    
C20   C21   A    
C14   C15   A    
C10   C36   A    
C25   N1    A    
C31   H16   S    
C25   H7    S    
C15   C33   S    
N2    Zn2   S    
C29   H13   S    
