data_mof_unit_66216.cif
_audit_creation_date              2012-12-10T20:36:16-0500
_audit_creation_method            fapswitch 2.2
_symmetry_space_group_name_H-M    P1
_symmetry_Int_Tables_number       1
_space_group_crystal_system       triclinic
_cell_length_a                    25.633357
_cell_length_b                    39.728739
_cell_length_c                    23.646174
_cell_angle_alpha                 90.037498
_cell_angle_beta                  122.856214
_cell_angle_gamma                 89.93447
_cell_volume                      20228.7058432

loop_
_atom_site_label
_atom_site_type_symbol
_atom_type_description
_atom_site_fract_x
_atom_site_fract_y
_atom_site_fract_z
_atom_type_partial_charge
C1    C     C_R   0.358273 0.749977 0.999939 0.802459
C2    C     C_3   0.244526 0.227237 0.954647 -0.184567
C3    C     C_1   0.234856 0.250006 0.469738 -0.063440
C4    C     C_1   0.734856 0.249994 0.469739 -0.063454
C5    C     C_1   0.265130 0.749996 0.530260 -0.064948
C6    C     C_1   0.265144 0.249994 0.530262 -0.063440
C7    C     C_1   0.734855 0.750007 0.469738 -0.064207
C8    C     C_R   0.487720 0.431265 0.042800 -0.168913
C9    C     C_R   0.512521 0.568745 0.957346 -0.168173
C10   C     C_R   0.512331 0.431204 0.957279 -0.168691
C11   C     C_R   0.487601 0.568790 0.042624 -0.168939
C12   C     C_R   0.987479 0.931254 0.042654 -0.168173
C13   C     C_3   0.244388 0.772768 0.954622 -0.184732
C14   C     C_R   0.012280 0.068735 0.957200 -0.168914
C15   C     C_R   0.012399 0.931210 0.957376 -0.168939
C16   C     C_R   0.987669 0.068796 0.042721 -0.168690
C17   C     C_R   0.487691 0.396126 0.042854 -0.197403
C18   C     C_R   0.512520 0.603884 0.957285 -0.194010
C19   C     C_R   0.512330 0.396069 0.957223 -0.197254
C20   C     C_R   0.487573 0.603925 0.042673 -0.197506
C21   C     C_R   0.987480 0.896116 0.042715 -0.194009
C22   C     C_R   0.012309 0.103874 0.957145 -0.197403
C23   C     C_R   0.012427 0.896075 0.957327 -0.197505
C24   C     C_3   0.755611 0.227231 0.045377 -0.184709
C25   C     C_R   0.987670 0.103931 0.042777 -0.197254
C26   C     C_R   0.500003 0.378182 0.000037 -0.006521
C27   C     C_R   0.500034 0.621819 0.999975 -0.008227
C28   C     C_R   0.999966 0.878181 0.000025 -0.008227
C29   C     C_R   0.999997 0.121817 0.999963 -0.006521
C30   C     C_R   0.500034 0.448802 0.000038 0.160408
C31   C     C_R   0.500065 0.551200 0.999988 0.159634
C32   C     C_R   0.999935 0.948800 0.000012 0.159634
C33   C     C_R   0.999966 0.051198 0.999962 0.160407
C34   C     C_1   0.500050 0.484874 0.000023 -0.066406
C35   C     C_3   0.255474 0.272763 0.045353 -0.184567
C36   C     C_1   0.500062 0.515128 0.999999 -0.066113
C37   C     C_1   0.999938 0.984871 0.000001 -0.066113
C38   C     C_1   0.999950 0.015126 0.999977 -0.066406
C39   C     C_R   0.500009 0.658946 0.999986 0.783573
C40   C     C_R   0.499998 0.341054 0.000017 0.782817
C41   C     C_R   0.000002 0.158946 0.999983 0.782817
C42   C     C_R   0.999991 0.841054 0.000014 0.783573
C43   C     C_R   0.499981 0.840979 0.999986 0.787223
C44   C     C_R   0.500019 0.159021 0.000016 0.789781
C45   C     C_R   0.999981 0.340979 0.999984 0.789781
C46   C     C_3   0.776285 0.719147 0.016853 -0.228030
C47   C     C_R   0.000018 0.659021 0.000014 0.787223
C48   C     C_R   0.444943 0.068831 0.957244 -0.168184
C49   C     C_R   0.555068 0.931168 0.042737 -0.167848
C50   C     C_R   0.555130 0.068782 0.042823 -0.167787
C51   C     C_R   0.444865 0.931219 0.957219 -0.168473
C52   C     C_R   0.944932 0.568832 0.957263 -0.167848
C53   C     C_R   0.055056 0.431169 0.042756 -0.168184
C54   C     C_R   0.055135 0.568781 0.042780 -0.168473
C55   C     C_R   0.944870 0.431218 0.957177 -0.167787
C56   C     C_R   0.444878 0.103974 0.957191 -0.195472
C57   C     C_3   0.744389 0.272769 0.954623 -0.184709
C58   C     C_R   0.555132 0.896025 0.042786 -0.195809
C59   C     C_R   0.555202 0.103928 0.042878 -0.195584
C60   C     C_R   0.444792 0.896073 0.957160 -0.196482
C61   C     C_R   0.944868 0.603975 0.957214 -0.195809
C62   C     C_R   0.055122 0.396026 0.042809 -0.195472
C63   C     C_R   0.055208 0.603927 0.042840 -0.196482
C64   C     C_R   0.944798 0.396072 0.957122 -0.195584
C65   C     C_R   0.500040 0.121876 0.000034 -0.007398
C66   C     C_R   0.499961 0.878124 0.999972 -0.007879
C67   C     C_R   0.000039 0.621876 0.000028 -0.007879
C68   C     C_3   0.255612 0.727232 0.045378 -0.184732
C69   C     C_R   0.999960 0.378124 0.999966 -0.007398
C70   C     C_R   0.500034 0.051226 0.000032 0.160061
C71   C     C_R   0.499970 0.948774 0.999982 0.159836
C72   C     C_R   0.000030 0.551226 0.000018 0.159836
C73   C     C_R   0.999966 0.448774 0.999968 0.160061
C74   C     C_1   0.500016 0.015133 0.000019 -0.066027
C75   C     C_1   0.499989 0.984866 0.999997 -0.066108
C76   C     C_1   0.000011 0.515133 0.000003 -0.066108
C77   C     C_1   0.999983 0.484866 0.999981 -0.066027
C78   C     C_1   0.350610 0.232880 0.127792 0.143137
C79   C     C_3   0.259121 0.280969 0.983346 -0.230708
C80   C     C_1   0.669089 0.702756 0.905515 0.183037
C81   C     C_1   0.649426 0.232848 0.872247 0.143192
C82   C     C_1   0.350573 0.767155 0.127752 0.143263
C83   C     C_1   0.830911 0.797244 0.094485 0.183036
C84   C     C_1   0.149390 0.267120 0.872208 0.143137
C85   C     C_1   0.149427 0.732845 0.872248 0.143263
C86   C     C_1   0.850574 0.267152 0.127753 0.143192
C87   C     C_3   0.763142 0.741562 0.061719 -0.228122
C88   C     C_3   0.740749 0.280961 0.016661 -0.230522
C89   C     C_R   0.641727 0.250023 0.000060 0.801917
C90   C     C_3   0.259252 0.719038 0.983341 -0.230477
C91   C     C_3   0.736858 0.758438 0.938281 -0.228122
C92   C     C_3   0.240879 0.219031 0.016654 -0.230708
C93   C     C_3   0.240748 0.780962 0.016659 -0.230477
C94   C     C_3   0.759251 0.219038 0.983339 -0.230522
C95   C     C_3   0.301062 0.249949 0.999787 -0.005334
C96   C     C_3   0.698548 0.749720 0.999478 0.000432
C97   C     C_3   0.698964 0.249922 0.000265 -0.005385
C98   C     C_3   0.301036 0.750078 0.999735 -0.005568
C99   C     C_3   0.801452 0.750280 0.000522 0.000432
C100  C     C_R   0.641627 0.749897 0.999866 0.792117
C101  C     C_3   0.198938 0.250051 0.000213 -0.005333
C102  C     C_3   0.198964 0.749922 0.000265 -0.005568
C103  C     C_3   0.801036 0.250078 0.999735 -0.005386
C104  C     C_3   0.297472 0.241853 0.060756 0.047346
C105  C     C_3   0.711436 0.727623 0.955248 0.071522
C106  C     C_3   0.702544 0.241841 0.939262 0.047404
C107  C     C_3   0.297455 0.758160 0.060737 0.047440
C108  C     C_3   0.788564 0.772377 0.044752 0.071522
C109  C     C_3   0.202528 0.258147 0.939244 0.047346
C110  C     C_3   0.202545 0.741840 0.939263 0.047440
C111  C     C_R   0.358287 0.250037 0.999968 0.801979
C112  C     C_3   0.797456 0.258159 0.060738 0.047404
C113  C     C_R   0.147373 0.771335 0.362419 -0.167615
C114  C     C_R   0.852892 0.228841 0.637583 -0.165731
C115  C     C_R   0.852863 0.771130 0.637594 -0.166357
C116  C     C_R   0.147139 0.228869 0.362405 -0.165781
C117  C     C_R   0.647108 0.271159 0.362417 -0.165731
C118  C     C_R   0.352627 0.728665 0.637581 -0.167615
C119  C     C_R   0.352861 0.271131 0.637594 -0.165781
C120  C     C_R   0.647137 0.728870 0.362405 -0.166357
C121  C     C_R   0.112192 0.771373 0.292138 -0.193833
C122  C     C_R   0.858273 0.249977 0.999939 0.801917
C123  C     C_R   0.888071 0.228802 0.707864 -0.187520
C124  C     C_R   0.888042 0.771169 0.707877 -0.187691
C125  C     C_R   0.111959 0.228830 0.292123 -0.187396
C126  C     C_R   0.611929 0.271198 0.292136 -0.187520
C127  C     C_R   0.387808 0.728627 0.707862 -0.193833
C128  C     C_R   0.388041 0.271169 0.707877 -0.187396
C129  C     C_R   0.611958 0.728831 0.292123 -0.187691
C130  C     C_R   0.128161 0.750034 0.256313 -0.008997
C131  C     C_R   0.871880 0.249992 0.743688 -0.008276
C132  C     C_R   0.871887 0.750005 0.743702 -0.008388
C133  C     C_R   0.141727 0.750023 0.000061 0.802459
C134  C     C_R   0.128115 0.249994 0.256298 -0.008070
C135  C     C_R   0.628120 0.250007 0.256312 -0.008276
C136  C     C_R   0.371839 0.749966 0.743687 -0.008996
C137  C     C_R   0.371885 0.250006 0.743702 -0.008070
C138  C     C_R   0.628113 0.749994 0.256298 -0.008388
C139  C     C_R   0.179961 0.728683 0.292162 -0.195468
C140  C     C_R   0.819880 0.271211 0.707839 -0.194820
C141  C     C_R   0.819919 0.728814 0.707846 -0.196199
C142  C     C_R   0.180083 0.271184 0.292154 -0.194805
C143  C     C_R   0.680120 0.228789 0.292161 -0.194820
C144  C     C_R   0.141713 0.249963 0.000031 0.801979
C145  C     C_R   0.320038 0.771317 0.707838 -0.195469
C146  C     C_R   0.319916 0.228815 0.707846 -0.194805
C147  C     C_R   0.680081 0.771186 0.292154 -0.196199
C148  C     C_R   0.215060 0.728701 0.362444 -0.167160
C149  C     C_R   0.784780 0.271193 0.637556 -0.165891
C150  C     C_R   0.784819 0.728831 0.637561 -0.166966
C151  C     C_R   0.215184 0.271166 0.362439 -0.165982
C152  C     C_R   0.715220 0.228807 0.362443 -0.165891
C153  C     C_R   0.284939 0.771299 0.637556 -0.167160
C154  C     C_R   0.284816 0.228833 0.637561 -0.165982
C155  C     C_R   0.858373 0.750103 0.000134 0.792117
C156  C     C_R   0.715181 0.771169 0.362439 -0.166965
C157  C     C_R   0.198790 0.750013 0.397578 0.158899
C158  C     C_R   0.801255 0.250016 0.602423 0.158484
C159  C     C_R   0.801258 0.749981 0.602429 0.158534
C160  C     C_R   0.198744 0.250017 0.397571 0.158476
C161  C     C_R   0.698745 0.249984 0.397577 0.158484
C162  C     C_R   0.301210 0.749987 0.602422 0.158899
C163  C     C_R   0.301256 0.249983 0.602429 0.158476
C164  C     C_R   0.698742 0.750019 0.397571 0.158534
C165  C     C_R   0.591001 0.749961 0.182024 0.789775
C166  C     C_3   0.723715 0.780853 0.983147 -0.228030
C167  C     C_R   0.408999 0.250039 0.817976 0.790800
C168  C     C_R   0.408977 0.749952 0.817955 0.785959
C169  C     C_R   0.591010 0.250040 0.182044 0.791451
C170  C     C_R   0.091001 0.249961 0.182024 0.790801
C171  C     C_R   0.908999 0.750039 0.817976 0.789774
C172  C     C_R   0.908990 0.249960 0.817955 0.791450
C173  C     C_R   0.091023 0.750048 0.182045 0.785961
C174  C     C_1   0.234870 0.750004 0.469740 -0.064948
C175  C     C_1   0.765144 0.250006 0.530261 -0.063454
C176  C     C_1   0.765145 0.749993 0.530262 -0.064207
H1    H     H_    0.402073 0.055400 0.923949 0.134237
H2    H     H_    0.522222 0.555274 0.924179 0.135959
H3    H     H_    0.521911 0.444633 0.924012 0.134780
H4    H     H_    0.477910 0.555355 0.075796 0.134428
H5    H     H_    0.977778 0.944726 0.075821 0.135959
H6    H     H_    0.021849 0.055256 0.923934 0.134386
H7    H     H_    0.022090 0.944645 0.924204 0.134428
H8    H     H_    0.978089 0.055367 0.075988 0.134779
H9    H     H_    0.478038 0.383047 0.076365 0.160733
H10   H     H_    0.522292 0.616971 0.923874 0.165346
H11   H     H_    0.521974 0.382947 0.923707 0.160937
H12   H     H_    0.597945 0.944598 0.076008 0.135163
H13   H     H_    0.477795 0.617040 0.076089 0.160905
H14   H     H_    0.977708 0.883029 0.076126 0.165346
H15   H     H_    0.021962 0.116953 0.923635 0.160733
H16   H     H_    0.022205 0.882959 0.923911 0.160904
H17   H     H_    0.978026 0.117053 0.076292 0.160938
H18   H     H_    0.401690 0.117092 0.923650 0.160115
H19   H     H_    0.598326 0.882907 0.076300 0.161743
H20   H     H_    0.598386 0.117013 0.076415 0.160113
H21   H     H_    0.401601 0.882989 0.923646 0.159999
H22   H     H_    0.901673 0.617093 0.923700 0.161743
H23   H     H_    0.597997 0.055311 0.076116 0.134535
H24   H     H_    0.098310 0.382908 0.076350 0.160115
H25   H     H_    0.098399 0.617011 0.076354 0.159999
H26   H     H_    0.901614 0.382987 0.923585 0.160114
H27   H     H_    0.267133 0.306177 0.969188 0.145473
H28   H     H_    0.773153 0.734906 0.112285 0.143925
H29   H     H_    0.732637 0.306162 0.030837 0.145477
H30   H     H_    0.267365 0.693837 0.969167 0.145490
H31   H     H_    0.726847 0.765094 0.887714 0.143925
H32   H     H_    0.232867 0.193823 0.030811 0.145473
H33   H     H_    0.232635 0.806163 0.030832 0.145490
H34   H     H_    0.401992 0.944690 0.923952 0.134221
H35   H     H_    0.767363 0.193838 0.969163 0.145477
H36   H     H_    0.701683 0.806131 0.969856 0.143930
H37   H     H_    0.240473 0.208826 0.917114 0.155557
H38   H     H_    0.240225 0.791181 0.917072 0.155491
H39   H     H_    0.759773 0.208817 0.082924 0.155532
H40   H     H_    0.259527 0.291174 0.082886 0.155557
H41   H     H_    0.798317 0.693869 0.030144 0.143930
H42   H     H_    0.740227 0.291183 0.917076 0.155532
H43   H     H_    0.259775 0.708819 0.082928 0.155491
H44   H     H_    0.134492 0.787914 0.389314 0.136197
H45   H     H_    0.902055 0.555402 0.923992 0.135163
H46   H     H_    0.865939 0.212371 0.610688 0.135634
H47   H     H_    0.865884 0.787579 0.610703 0.135553
H48   H     H_    0.134117 0.212420 0.389297 0.135669
H49   H     H_    0.634061 0.287629 0.389312 0.135634
H50   H     H_    0.365508 0.712085 0.610686 0.136197
H51   H     H_    0.365883 0.287580 0.610703 0.135669
H52   H     H_    0.634116 0.712421 0.389297 0.135553
H53   H     H_    0.072555 0.788081 0.265923 0.165384
H54   H     H_    0.927880 0.212209 0.734079 0.162969
H55   H     H_    0.927823 0.787742 0.734092 0.163031
H56   H     H_    0.097927 0.444600 0.076051 0.134237
H57   H     H_    0.072177 0.212258 0.265908 0.163087
H58   H     H_    0.572120 0.287791 0.265921 0.162969
H59   H     H_    0.427445 0.711919 0.734077 0.165384
H60   H     H_    0.427823 0.287742 0.734092 0.163087
H61   H     H_    0.572177 0.712258 0.265908 0.163031
H62   H     H_    0.193388 0.711982 0.265965 0.160693
H63   H     H_    0.806283 0.287799 0.734036 0.160784
H64   H     H_    0.806346 0.712246 0.734037 0.161889
H65   H     H_    0.193657 0.287752 0.265963 0.160816
H66   H     H_    0.693717 0.212201 0.265964 0.160783
H67   H     H_    0.098008 0.555310 0.076048 0.134221
H68   H     H_    0.306612 0.788018 0.734035 0.160693
H69   H     H_    0.306343 0.212248 0.734037 0.160816
H70   H     H_    0.693653 0.787754 0.265963 0.161888
H71   H     H_    0.254846 0.712112 0.389360 0.135152
H72   H     H_    0.744827 0.287669 0.610640 0.135361
H73   H     H_    0.744892 0.712375 0.610643 0.135579
H74   H     H_    0.255111 0.287622 0.389357 0.135347
H75   H     H_    0.755173 0.212331 0.389360 0.135361
H76   H     H_    0.245154 0.787888 0.610639 0.135152
H77   H     H_    0.244889 0.212378 0.610643 0.135347
H78   H     H_    0.902003 0.444688 0.923883 0.134535
H79   H     H_    0.755108 0.787625 0.389357 0.135579
H80   H     H_    0.478151 0.444743 0.076066 0.134386
N1    N     N_1   0.392567 0.225817 0.180646 -0.206239
N2    N     N_1   0.635676 0.683150 0.866306 -0.208399
N3    N     N_1   0.607485 0.225768 0.819409 -0.206290
N4    N     N_1   0.392514 0.774235 0.180589 -0.206413
N5    N     N_1   0.864324 0.816849 0.133694 -0.208399
N6    N     N_1   0.107433 0.274183 0.819354 -0.206239
N7    N     N_1   0.107485 0.725764 0.819411 -0.206413
N8    N     N_1   0.892515 0.274232 0.180591 -0.206290
O1    O     O_3   0.500000 0.749960 0.000000 -0.471418
O2    O     O_R   0.136890 0.730430 0.039220 -0.647739
O3    O     O_R   0.136890 0.269570 0.039220 -0.648011
O4    O     O_R   0.863110 0.730430 0.960780 -0.641613
O5    O     O_R   0.544080 0.730330 0.149660 -0.642103
O6    O     O_R   0.455920 0.269670 0.850340 -0.642083
O7    O     O_R   0.455920 0.730330 0.850340 -0.642220
O8    O     O_R   0.544080 0.269670 0.149660 -0.642137
O9    O     O_R   0.044080 0.230330 0.149660 -0.642083
O10   O     O_R   0.955920 0.769670 0.850340 -0.642104
O11   O     O_R   0.955920 0.230330 0.850340 -0.642137
O12   O     O_3   0.500000 0.250040 0.000000 -0.470967
O13   O     O_R   0.044080 0.769670 0.149660 -0.642220
O14   O     O_R   0.488890 0.675130 0.039250 -0.646959
O15   O     O_R   0.511110 0.324870 0.960750 -0.646393
O16   O     O_R   0.511110 0.675130 0.960750 -0.642427
O17   O     O_R   0.488890 0.324870 0.039250 -0.646579
O18   O     O_R   0.988890 0.175130 0.039250 -0.646393
O19   O     O_R   0.011110 0.824870 0.960750 -0.646960
O20   O     O_R   0.011110 0.175130 0.960750 -0.646580
O21   O     O_R   0.988890 0.824870 0.039250 -0.642426
O22   O     O_R   0.449630 0.824780 0.960760 -0.645683
O23   O     O_3   0.000000 0.249960 0.000000 -0.470967
O24   O     O_R   0.550370 0.175220 0.039240 -0.645184
O25   O     O_R   0.550370 0.824780 0.039240 -0.644643
O26   O     O_R   0.449630 0.175220 0.960760 -0.645065
O27   O     O_R   0.949630 0.324780 0.960760 -0.645184
O28   O     O_R   0.050370 0.675220 0.039240 -0.645683
O29   O     O_R   0.050370 0.324780 0.039240 -0.645066
O30   O     O_R   0.949630 0.675220 0.960760 -0.644643
O31   O     O_R   0.605560 0.769560 0.149640 -0.645791
O32   O     O_R   0.394440 0.230440 0.850360 -0.646415
O33   O     O_R   0.394440 0.769560 0.850360 -0.646478
O34   O     O_3   0.000000 0.750040 0.000000 -0.471418
O35   O     O_R   0.605560 0.230440 0.149640 -0.646402
O36   O     O_R   0.105560 0.269560 0.149640 -0.646416
O37   O     O_R   0.894440 0.730440 0.850360 -0.645791
O38   O     O_R   0.894440 0.269560 0.850360 -0.646401
O39   O     O_R   0.105560 0.730440 0.149640 -0.646478
O40   O     O_R   0.402350 0.730330 0.039260 -0.638263
O41   O     O_R   0.597650 0.269670 0.960740 -0.638314
O42   O     O_R   0.597650 0.730330 0.960740 -0.640927
O43   O     O_R   0.402350 0.269670 0.039260 -0.638544
O44   O     O_R   0.902350 0.230330 0.039260 -0.638314
O45   O     O_R   0.363110 0.769570 0.960780 -0.647739
O46   O     O_R   0.097650 0.769670 0.960740 -0.638263
O47   O     O_R   0.097650 0.230330 0.960740 -0.638544
O48   O     O_R   0.902350 0.769670 0.039260 -0.640927
O49   O     O_R   0.636890 0.230430 0.039220 -0.648175
O50   O     O_R   0.636890 0.769570 0.039220 -0.641613
O51   O     O_R   0.363110 0.230430 0.960780 -0.648010
O52   O     O_R   0.863110 0.269570 0.960780 -0.648174
Zn1   Zn    Zn3+2 0.571950 0.777980 0.056050 0.969279
Zn2   Zn    Zn3+2 0.515890 0.278080 0.943930 0.974063
Zn3   Zn    Zn3+2 0.515890 0.721920 0.943930 0.976240
Zn4   Zn    Zn3+2 0.484110 0.278080 0.056070 0.974083
Zn5   Zn    Zn3+2 0.984110 0.221920 0.056070 0.974063
Zn6   Zn    Zn3+2 0.015890 0.778080 0.943930 0.974046
Zn7   Zn    Zn3+2 0.015890 0.221920 0.943930 0.974082
Zn8   Zn    Zn3+2 0.984110 0.778080 0.056070 0.976240
Zn9   Zn    Zn3+2 0.428050 0.222020 0.943950 0.969371
Zn10  Zn    Zn3+2 0.428050 0.777980 0.943950 0.967073
Zn11  Zn    Zn3+2 0.571950 0.222020 0.056050 0.969502
Zn12  Zn    Zn3+2 0.071950 0.277980 0.056050 0.969370
Zn13  Zn    Zn3+2 0.928050 0.722020 0.943950 0.969279
Zn14  Zn    Zn3+2 0.928050 0.277980 0.943950 0.969502
Zn15  Zn    Zn3+2 0.071950 0.722020 0.056050 0.967073
Zn16  Zn    Zn3+2 0.484110 0.721920 0.056070 0.974046

loop_
_geom_bond_atom_site_label_1
_geom_bond_atom_site_label_2
_ccdc_geom_bond_type
C128  H60   S    
O34   Zn8   S    
O27   Zn14  S    
C22   C29   A    
C5    C174  T    
C133  O46   A    
C91   C166  S    
C46   C99   S    
C14   C33   A    
C144  O47   A    
C15   C32   A    
C138  C165  S    
C50   C59   A    
C52   C61   A    
C24   H39   S    
C54   C63   A    
C46   C105  S    
C58   H19   S    
C47   O30   A    
C131  C140  A    
C166  H36   S    
C70   C74   S    
C68   C90   S    
O11   Zn7   S    
O1    Zn16  S    
O24   Zn11  S    
C117  C126  A    
C88   C97   S    
C119  C128  A    
C46   H41   S    
C84   N6    T    
C51   C71   A    
C85   N7    T    
O45   Zn10  S    
C86   N8    T    
C14   H6    S    
C25   C29   A    
C11   C20   A    
C81   N3    T    
C150  C159  A    
C79   C109  S    
C45   C69   S    
C137  C146  A    
C127  C136  A    
C35   C104  S    
C20   H13   S    
C8    H80   S    
C103  C112  S    
C142  C151  A    
O12   Zn4   S    
C37   C38   T    
C52   C72   A    
C10   C30   A    
C12   H5    S    
C146  C154  A    
O5    Zn16  S    
C143  H66   S    
C169  O35   A    
C170  O36   A    
O23   Zn12  S    
C21   C28   A    
O12   Zn9   S    
C144  O3    A    
C87   H28   S    
O38   Zn14  S    
C172  O11   A    
C16   C25   A    
C108  C166  S    
C118  C162  A    
C129  H61   S    
C8    C17   A    
C48   C70   A    
O47   Zn7   S    
C16   H8    S    
C64   C69   A    
C127  H59   S    
C33   C38   S    
C50   C70   A    
C49   H12   S    
C43   C66   S    
C12   C21   A    
C78   N1    T    
C92   C104  S    
O39   Zn15  S    
C6    C163  S    
C49   C71   A    
O7    Zn3   S    
C31   C36   S    
C113  C157  A    
C89   O49   A    
C154  H77   S    
C141  H64   S    
C2    C109  S    
C91   C105  S    
C24   C112  S    
C121  C130  A    
C3    C6    T    
C42   O19   A    
C118  H50   S    
O23   Zn7   S    
C99   C108  S    
C146  H69   S    
C10   H3    S    
C57   H42   S    
C124  C132  A    
O37   Zn13  S    
C53   C62   A    
C39   O16   A    
C40   O15   A    
C4    C175  T    
C9    H2    S    
O12   Zn11  S    
C149  C158  A    
C152  C161  A    
C157  C174  S    
C135  C143  A    
C57   C106  S    
O4    Zn13  S    
C87   C96   S    
C122  O44   A    
C44   C65   S    
C61   H22   S    
C23   H16   S    
C141  C150  A    
C151  H74   S    
O31   Zn1   S    
C139  C148  A    
C121  H53   S    
C30   C34   S    
C78   C104  S    
C120  C129  A    
C124  H55   S    
O20   Zn7   S    
C41   O18   A    
C168  O7    A    
C23   C28   A    
C148  H71   S    
C15   H7    S    
O21   Zn8   S    
C61   C67   A    
C7    C176  T    
C45   O27   A    
C32   C37   S    
O49   Zn11  S    
C56   H18   S    
C114  C123  A    
C149  H72   S    
C159  C176  S    
C83   N5    T    
C118  C127  A    
C46   C87   S    
C35   H40   S    
C132  C141  A    
O23   Zn5   S    
C155  O48   A    
C73   C77   S    
O41   Zn2   S    
C63   H25   S    
C29   C41   S    
C4    C161  S    
O18   Zn5   S    
C1    C98   S    
C91   H31   S    
C50   H23   S    
O9    Zn5   S    
C84   C109  S    
C116  C125  A    
C54   H67   S    
C14   C22   A    
C102  C133  S    
C59   C65   A    
C171  O37   A    
C39   O14   A    
C123  H54   S    
C43   O25   A    
C35   C79   S    
C34   C36   T    
C148  C157  A    
C126  H58   S    
C120  C164  A    
C53   H56   S    
C55   C73   A    
C158  C175  S    
C113  C121  A    
C169  O8    A    
C134  C170  S    
O34   Zn6   S    
C51   C60   A    
O8    Zn4   S    
C91   C99   S    
C22   H15   S    
C170  O9    A    
C140  C149  A    
O30   Zn13  S    
C125  C134  A    
C96   C105  S    
O40   Zn16  S    
C167  O6    A    
O14   Zn16  S    
C88   H29   S    
C41   O20   A    
C165  O31   A    
O34   Zn15  S    
C165  O5    A    
C115  H47   S    
C68   C102  S    
C116  C160  A    
C101  C144  S    
C47   O28   A    
C101  C109  S    
O6    Zn2   S    
C167  O32   A    
C83   C108  S    
C19   C26   A    
C114  C158  A    
C19   H11   S    
C90   H30   S    
O15   Zn2   S    
C147  H70   S    
C17   H9    S    
C99   C155  S    
C1    O40   A    
C68   C107  S    
C120  H52   S    
C113  H44   S    
C155  O4    A    
C156  H79   S    
C43   O22   A    
O50   Zn1   S    
C60   C66   A    
C52   H45   S    
C139  H62   S    
C130  C139  A    
C173  O13   A    
C130  C173  S    
C57   C103  S    
C153  H76   S    
C131  C172  S    
C24   C97   S    
C68   H43   S    
O1    Zn10  S    
O32   Zn9   S    
O3    Zn12  S    
O23   Zn14  S    
O48   Zn8   S    
C82   N4    T    
C140  H63   S    
C98   C107  S    
C145  H68   S    
C115  C159  A    
C13   H38   S    
C116  H48   S    
C111  O43   A    
C79   C95   S    
C89   O41   A    
C134  C142  A    
C100  O50   A    
C10   C19   A    
C114  H46   S    
C147  C156  A    
O26   Zn9   S    
C60   H21   S    
O51   Zn9   S    
C97   C106  S    
C143  C152  A    
C94   C103  S    
C85   C110  S    
O16   Zn3   S    
O13   Zn8   S    
C102  C110  S    
C80   N2    T    
C137  C167  S    
C25   H17   S    
C1    O45   A    
O34   Zn13  S    
O35   Zn11  S    
C115  C124  A    
C123  C131  A    
O43   Zn4   S    
C35   C101  S    
C93   C102  S    
C55   H78   S    
O46   Zn6   S    
C20   C27   A    
C59   H20   S    
C7    C164  S    
C153  C162  A    
C8    C30   A    
C5    C162  S    
C62   H24   S    
O19   Zn6   S    
C51   H34   S    
O36   Zn12  S    
C135  C169  S    
C42   O21   A    
C88   C112  S    
C62   C69   A    
C2    H37   S    
O25   Zn1   S    
C13   C93   S    
C11   H4    S    
C103  C122  S    
O44   Zn5   S    
C72   C76   S    
C119  H51   S    
C133  O2    A    
C117  H49   S    
C44   O26   A    
O1    Zn1   S    
C17   C26   A    
C2    C95   S    
C56   C65   A    
C96   C100  S    
O52   Zn14  S    
C13   C98   S    
C58   C66   A    
C87   C108  S    
C27   C39   S    
C132  C171  S    
C136  C145  A    
C100  O42   A    
C15   C23   A    
C11   C31   A    
C94   H35   S    
C12   C32   A    
O42   Zn3   S    
C47   C67   S    
C48   H1    S    
O22   Zn10  S    
C44   O24   A    
C63   C67   A    
C40   O17   A    
C74   C75   T    
C129  C138  A    
C154  C163  A    
C76   C77   T    
C119  C163  A    
C136  C168  S    
C117  C161  A    
C80   C105  S    
C18   H10   S    
C49   C58   A    
C89   C97   S    
O17   Zn4   S    
C86   C112  S    
C128  C137  A    
C13   C110  S    
C92   H32   S    
O28   Zn15  S    
C24   C94   S    
C16   C33   A    
O2    Zn15  S    
C9    C18   A    
C111  O51   A    
C138  C147  A    
C55   C64   A    
C82   C107  S    
C2    C92   S    
C92   C101  S    
C172  O38   A    
C79   H27   S    
C173  O39   A    
C93   H33   S    
C3    C160  S    
C96   C166  S    
C90   C110  S    
C95   C104  S    
C150  H73   S    
C48   C56   A    
C64   H26   S    
C81   C106  S    
C94   C106  S    
O1    Zn3   S    
C45   O29   A    
C53   C73   A    
C18   C27   A    
C126  C135  A    
O10   Zn6   S    
C142  H65   S    
C122  O52   A    
C57   C88   S    
C151  C160  A    
C145  C153  A    
C171  O10   A    
C95   C111  S    
C93   C107  S    
C71   C75   S    
C26   C40   S    
C21   H14   S    
C28   C42   S    
C168  O33   A    
O12   Zn2   S    
C125  H57   S    
C9    C31   A    
C54   C72   A    
C156  C164  A    
O29   Zn12  S    
C90   C98   S    
C152  H75   S    
O33   Zn10  S    
