data_mof_unit_52173.cif
_audit_creation_date              2012-12-11T16:52:11-0500
_audit_creation_method            fapswitch 2.2
_symmetry_space_group_name_H-M    P1
_symmetry_Int_Tables_number       1
_space_group_crystal_system       triclinic
_cell_length_a                    7.167413
_cell_length_b                    26.035461
_cell_length_c                    28.939112
_cell_angle_alpha                 89.999818
_cell_angle_beta                  90.000072
_cell_angle_gamma                 89.924707
_cell_volume                      5400.23336348

loop_
_atom_site_label
_atom_site_type_symbol
_atom_type_description
_atom_site_fract_x
_atom_site_fract_y
_atom_site_fract_z
_atom_type_partial_charge
O1    O     O_R   0.601030 0.796770 0.202460 -0.532298
O2    O     O_R   0.398970 0.203230 0.797540 -0.533210
O3    O     O_R   0.398970 0.203230 0.702460 -0.532298
O4    O     O_R   0.601030 0.796770 0.297540 -0.533211
O5    O     O_R   0.101030 0.703230 0.297540 -0.531464
O6    O     O_R   0.898970 0.296770 0.702460 -0.532762
O7    O     O_R   0.898970 0.296770 0.797540 -0.531464
O8    O     O_R   0.101030 0.703230 0.202460 -0.532762
O9    O     O_R   0.271290 0.802910 0.297210 -0.540239
O10   O     O_R   0.728710 0.197090 0.702790 -0.540554
O11   O     O_R   0.728710 0.197090 0.797210 -0.540240
O12   O     O_R   0.271290 0.802910 0.202790 -0.540553
O13   O     O_R   0.771290 0.697090 0.202790 -0.539717
O14   O     O_R   0.228710 0.302910 0.797210 -0.541116
O15   O     O_R   0.228710 0.302910 0.702790 -0.539717
O16   O     O_R   0.771290 0.697090 0.297210 -0.541116
C1    C     C_R   0.440826 0.814614 0.313494 0.692064
C2    C     C_R   0.558993 0.183772 0.687920 0.694323
C3    C     C_R   0.559175 0.185387 0.813494 0.692065
C4    C     C_R   0.441007 0.816228 0.187920 0.694323
C5    C     C_R   0.941077 0.683870 0.187891 0.692681
C6    C     C_R   0.058955 0.316033 0.812185 0.692952
C7    C     C_R   0.058923 0.316130 0.687891 0.692682
C8    C     C_R   0.941045 0.683967 0.312185 0.692952
O17   O     O_3   0.434520 0.717290 0.250000 -0.373230
O18   O     O_3   0.565480 0.282710 0.750000 -0.373231
O19   O     O_3   0.934520 0.782710 0.250000 -0.374543
O20   O     O_3   0.065480 0.217290 0.750000 -0.374542
V1    V     V_3+5 0.159680 0.756060 0.250000 1.373929
V2    V     V_3+5 0.840320 0.243940 0.750000 1.373928
V3    V     V_3+5 0.659680 0.743940 0.250000 1.373880
V4    V     V_3+5 0.340320 0.256060 0.750000 1.373879
C9    C     C_R   0.883172 0.386719 0.643564 0.123733
C10   C     C_R   0.116494 0.613591 0.356827 0.124576
C11   C     C_R   0.116828 0.613281 0.143564 0.123734
C12   C     C_R   0.883506 0.386408 0.856827 0.124576
C13   C     C_R   0.378753 0.141401 0.879625 0.132263
C14   C     C_R   0.621142 0.884326 0.141414 0.132500
C15   C     C_R   0.621268 0.858610 0.379616 0.132261
C16   C     C_R   0.378853 0.115675 0.641414 0.132485
C17   C     C_R   0.877645 0.422026 0.606877 -0.085698
C18   C     C_R   0.121919 0.578523 0.393696 -0.085769
C19   C     C_R   0.122355 0.577974 0.106877 -0.085699
C20   C     C_R   0.878081 0.421477 0.893696 -0.085769
C21   C     C_R   0.374137 0.104687 0.915212 -0.091199
C22   C     C_R   0.627237 0.918614 0.103869 -0.100280
C23   C     C_R   0.625886 0.895325 0.415201 -0.091210
C24   C     C_R   0.372755 0.081388 0.603869 -0.100220
H1    H     H_    0.755885 0.446247 0.602453 0.130108
H2    H     H_    0.243504 0.554256 0.398212 0.129965
H3    H     H_    0.244115 0.553753 0.102453 0.130109
H4    H     H_    0.756495 0.445744 0.898212 0.129966
H5    H     H_    0.245103 0.098382 0.933854 0.131527
H6    H     H_    0.754123 0.939713 0.096469 0.108415
H7    H     H_    0.754936 0.901640 0.433834 0.131541
H8    H     H_    0.245867 0.060291 0.596468 0.108425
C25   C     C_R   0.026167 0.426739 0.575768 0.085143
C26   C     C_R   0.973458 0.574082 0.424854 0.084976
C27   C     C_R   0.973833 0.573261 0.075768 0.085140
C28   C     C_R   0.026542 0.425918 0.924854 0.084974
C29   C     C_R   0.532153 0.075982 0.927295 0.088185
C30   C     C_R   0.471197 0.926752 0.075903 0.109425
C31   C     C_R   0.467855 0.924018 0.427295 0.088182
C32   C     C_R   0.528796 0.073247 0.575904 0.109386
C33   C     C_R   0.187240 0.397083 0.583071 -0.175146
C34   C     C_R   0.812640 0.603818 0.417471 -0.173528
C35   C     C_R   0.812760 0.602917 0.083071 -0.175143
C36   C     C_R   0.187360 0.396182 0.917471 -0.173527
C37   C     C_R   0.696258 0.082868 0.901550 -0.173040
C38   C     C_R   0.305187 0.900708 0.085776 -0.171992
C39   C     C_R   0.303733 0.917122 0.401559 -0.173027
C40   C     C_R   0.694809 0.099290 0.585778 -0.172041
H9    H     H_    0.304768 0.400164 0.559716 0.133354
H10   H     H_    0.695203 0.600950 0.440876 0.133241
H11   H     H_    0.695231 0.599836 0.059716 0.133354
H12   H     H_    0.304798 0.399051 0.940876 0.133241
H13   H     H_    0.820919 0.061285 0.910015 0.119449
H14   H     H_    0.182497 0.907009 0.064651 0.123431
H15   H     H_    0.179058 0.938696 0.410031 0.119440
H16   H     H_    0.817499 0.092988 0.564653 0.123459
C41   C     C_R   0.196979 0.362285 0.619937 -0.203331
C42   C     C_R   0.803044 0.638403 0.380441 -0.205575
C43   C     C_R   0.803021 0.637715 0.119937 -0.203328
C44   C     C_R   0.196956 0.361597 0.880441 -0.205574
C45   C     C_R   0.702206 0.117964 0.864818 -0.210450
C46   C     C_R   0.297491 0.865342 0.122211 -0.208578
C47   C     C_R   0.297785 0.882028 0.364825 -0.210455
C48   C     C_R   0.702507 0.134656 0.622213 -0.208577
H17   H     H_    0.322401 0.339468 0.623901 0.135187
H18   H     H_    0.677872 0.661315 0.376417 0.133193
H19   H     H_    0.677599 0.660531 0.123901 0.135188
H20   H     H_    0.322129 0.338685 0.876417 0.133192
H21   H     H_    0.830819 0.121476 0.845521 0.137764
H22   H     H_    0.168665 0.844645 0.127798 0.136551
H23   H     H_    0.169162 0.878510 0.345534 0.137766
H24   H     H_    0.831334 0.155352 0.627799 0.136555
C49   C     C_R   0.045471 0.355719 0.650396 -0.062629
C50   C     C_R   0.954389 0.644628 0.349876 -0.062120
C51   C     C_R   0.954529 0.644281 0.150396 -0.062629
C52   C     C_R   0.045611 0.355372 0.849876 -0.062120
C53   C     C_R   0.545367 0.147961 0.852978 -0.065174
C54   C     C_R   0.454275 0.855937 0.150438 -0.062851
C55   C     C_R   0.454637 0.852040 0.352977 -0.065176
C56   C     C_R   0.545723 0.144063 0.650439 -0.062852
C57   C     C_R   0.160266 0.497284 0.527563 -0.295522
C58   C     C_R   0.839051 0.503704 0.473179 -0.295482
C59   C     C_R   0.839734 0.502716 0.027563 -0.295520
C60   C     C_R   0.160949 0.496296 0.973179 -0.295482
C61   C     C_R   0.599173 0.989178 0.961335 -0.293295
C62   C     C_R   0.408719 0.013105 0.042817 -0.291525
C63   C     C_R   0.400730 0.010811 0.461348 -0.293283
C64   C     C_R   0.591383 0.986906 0.542807 -0.291512
H25   H     H_    0.283538 0.495939 0.549222 0.132866
H26   H     H_    0.715806 0.505041 0.451510 0.132964
H27   H     H_    0.716461 0.504061 0.049221 0.132866
H28   H     H_    0.284194 0.494959 0.951510 0.132963
H29   H     H_    0.669680 0.978991 0.929509 0.131833
H30   H     H_    0.338859 0.022794 0.074881 0.133846
H31   H     H_    0.330145 0.020990 0.429529 0.131826
H32   H     H_    0.661322 0.977225 0.574862 0.133846
C65   C     C_R   0.148847 0.534643 0.492619 0.305953
C66   C     C_R   0.850484 0.466338 0.508114 0.305929
C67   C     C_R   0.851152 0.465358 0.992619 0.305953
C68   C     C_R   0.149516 0.533661 0.008114 0.305929
C69   C     C_R   0.580871 0.951837 0.996193 0.311674
C70   C     C_R   0.431370 0.050985 0.008669 0.304690
C71   C     C_R   0.419017 0.048152 0.496206 0.311665
C72   C     C_R   0.568738 0.949024 0.508660 0.304680
C73   C     C_R   0.986924 0.537675 0.464584 0.023781
C74   C     C_R   0.012443 0.463286 0.536139 0.023954
C75   C     C_R   0.013076 0.462326 0.964584 0.023781
C76   C     C_R   0.987557 0.536714 0.036139 0.023955
C77   C     C_R   0.482752 0.963750 0.037077 0.011673
C78   C     C_R   0.522906 0.038646 0.966587 0.020761
C79   C     C_R   0.517238 0.036250 0.537078 0.011679
C80   C     C_R   0.477103 0.961353 0.466589 0.020760
C81   C     C_3   0.714860 0.384232 0.674753 -0.730195
H33   H     H_    0.758986 0.388794 0.711134 0.196634
H34   H     H_    0.641005 0.347198 0.669912 0.224912
H35   H     H_    0.612811 0.415276 0.667201 0.186897
C82   C     C_3   0.284658 0.615782 0.325572 -0.730754
H36   H     H_    0.240287 0.610984 0.289233 0.196351
H37   H     H_    0.358791 0.652812 0.330180 0.224704
H38   H     H_    0.386544 0.584741 0.333266 0.187117
C83   C     C_3   0.285141 0.615768 0.174753 -0.730194
H39   H     H_    0.241015 0.611206 0.211134 0.196634
H40   H     H_    0.358995 0.652802 0.169911 0.224912
H41   H     H_    0.387189 0.584724 0.167201 0.186897
C84   C     C_3   0.715340 0.384217 0.825572 -0.730755
H42   H     H_    0.759710 0.389016 0.789234 0.196353
H43   H     H_    0.641209 0.347187 0.830181 0.224704
H44   H     H_    0.613453 0.415258 0.833267 0.187118
C85   C     C_3   0.204544 0.173220 0.872513 -0.739331
H45   H     H_    0.139992 0.163869 0.838710 0.220101
H46   H     H_    0.238664 0.214759 0.874491 0.203459
H47   H     H_    0.097595 0.165632 0.899446 0.186463
C86   C     C_3   0.793083 0.880459 0.171351 -0.734588
H48   H     H_    0.755393 0.886313 0.208200 0.204989
H49   H     H_    0.860598 0.842473 0.166559 0.221788
H50   H     H_    0.898320 0.910105 0.162318 0.184474
C87   C     C_3   0.795494 0.826800 0.372497 -0.739321
H51   H     H_    0.860011 0.836151 0.338691 0.220097
H52   H     H_    0.761406 0.785258 0.374480 0.203466
H53   H     H_    0.902460 0.834395 0.399425 0.186456
C88   C     C_3   0.206912 0.119543 0.671351 -0.734586
H54   H     H_    0.244601 0.113689 0.708201 0.204992
H55   H     H_    0.139399 0.157530 0.666558 0.221790
H56   H     H_    0.101674 0.089897 0.662318 0.184471
N1    N     N_2   0.300616 0.569214 0.486292 -0.537530
H57   H     H_    0.428327 0.554423 0.496049 0.247690
C89   C     C_3   0.269634 0.620142 0.504749 -0.549667
H58   H     H_    0.390871 0.644943 0.496309 0.192709
H59   H     H_    0.253844 0.618363 0.542923 0.192250
H60   H     H_    0.142944 0.637785 0.489362 0.212007
N2    N     N_2   0.698784 0.431737 0.514398 -0.537551
H61   H     H_    0.571026 0.446552 0.504710 0.247664
C90   C     C_3   0.729737 0.380877 0.495790 -0.550194
H62   H     H_    0.608585 0.356034 0.504203 0.192659
H63   H     H_    0.856545 0.363198 0.511084 0.211874
H64   H     H_    0.745306 0.382788 0.457615 0.192301
N3    N     N_2   0.699383 0.430786 0.986292 -0.537531
H65   H     H_    0.571673 0.445577 0.996048 0.247691
C91   C     C_3   0.730365 0.379858 0.004748 -0.549667
H66   H     H_    0.609128 0.355057 0.996307 0.192711
H67   H     H_    0.746150 0.381636 0.042922 0.192250
H68   H     H_    0.857056 0.362215 0.989362 0.212008
N4    N     N_2   0.301217 0.568263 0.014398 -0.537552
H69   H     H_    0.428975 0.553447 0.004710 0.247664
C92   C     C_3   0.270265 0.619123 0.995790 -0.550192
H70   H     H_    0.391418 0.643966 0.004203 0.192660
H71   H     H_    0.143457 0.636802 0.011085 0.211875
H72   H     H_    0.254695 0.617212 0.957615 0.192301
N5    N     N_2   0.663321 0.902548 0.990117 -0.518609
H73   H     H_    0.784156 0.903197 0.970745 0.249964
C93   C     C_3   0.535184 0.863463 0.974273 -0.549903
H74   H     H_    0.608519 0.825919 0.972561 0.195846
H75   H     H_    0.482158 0.873237 0.939258 0.186739
H76   H     H_    0.415796 0.859568 0.998430 0.209889
N6    N     N_2   0.365177 0.101653 0.017504 -0.531962
H77   H     H_    0.254466 0.103293 0.040251 0.251671
C94   C     C_3   0.509658 0.138241 0.029008 -0.547018
H78   H     H_    0.446810 0.176962 0.033220 0.195321
H79   H     H_    0.615633 0.140383 0.001089 0.211433
H80   H     H_    0.578722 0.127118 0.061917 0.188966
N7    N     N_2   0.336451 0.097429 0.490142 -0.518625
H81   H     H_    0.215599 0.096764 0.470776 0.249964
C95   C     C_3   0.464486 0.136541 0.474299 -0.549898
H82   H     H_    0.391062 0.174073 0.472598 0.195840
H83   H     H_    0.517509 0.126784 0.439281 0.186743
H84   H     H_    0.583882 0.140451 0.498453 0.209897
N8    N     N_2   0.635034 0.898365 0.517488 -0.531970
H85   H     H_    0.745791 0.896738 0.540222 0.251671
C96   C     C_3   0.490637 0.861757 0.529007 -0.547014
H86   H     H_    0.553558 0.823044 0.533211 0.195320
H87   H     H_    0.384614 0.859602 0.501100 0.211431
H88   H     H_    0.421614 0.872870 0.561925 0.188968

loop_
_geom_bond_atom_site_label_1
_geom_bond_atom_site_label_2
_ccdc_geom_bond_type
C70   N6    S    
O17   V3    S    
C58   C73   A    
C65   N1    S    
C89   H58   S    
C48   H24   S    
C10   C82   S    
O18   V4    S    
C86   H48   S    
O12   V1    S    
O19   V1    S    
C42   C50   A    
C94   H78   S    
C37   H13   S    
C10   C18   A    
C59   C67   A    
C89   H60   S    
C19   H3    S    
C62   H30   S    
C39   H15   S    
C87   H51   S    
C61   H29   S    
O15   V4    S    
N2    C90   S    
N7    H81   S    
O16   V3    S    
C35   C43   A    
C81   H34   S    
O11   C3    A    
C88   H54   S    
C58   H26   S    
C8    C50   S    
O8    V1    S    
C30   C77   S    
C57   H25   S    
C71   C79   A    
C82   H37   S    
C72   N8    S    
C23   C31   A    
C5    C51   S    
C63   C80   A    
C24   C32   A    
C38   H14   S    
C26   C73   S    
C29   C37   A    
C66   N2    S    
C34   H10   S    
O1    V3    S    
C33   H9    S    
C95   H83   S    
C68   C76   A    
O3    C2    A    
C63   H31   S    
C11   C83   S    
C21   C29   A    
C92   H71   S    
C23   H7    S    
C16   C24   A    
N8    C96   S    
C60   C75   A    
C46   H22   S    
C87   H52   S    
C7    C49   S    
C45   H21   S    
C26   C34   A    
N2    H61   S    
O11   V2    S    
C9    C81   S    
C90   H63   S    
C47   H23   S    
C95   H84   S    
C85   H46   S    
C11   C19   A    
C22   H6    S    
C19   C27   A    
C93   H76   S    
C41   H17   S    
C20   H4    S    
O15   C7    A    
C61   C78   A    
C32   C79   S    
C21   H5    S    
N6    H77   S    
O16   C8    A    
O7    V2    S    
C43   C51   A    
C94   H79   S    
C30   C38   A    
C18   C26   A    
C88   H55   S    
O3    V4    S    
C60   C68   A    
C11   C51   A    
C28   C75   S    
C17   H1    S    
C40   C48   A    
C29   C78   S    
C83   H39   S    
O5    V1    S    
C96   H87   S    
C81   H35   S    
C27   C76   S    
C20   C28   A    
C6    C52   S    
C83   H40   S    
O13   C5    A    
C95   H82   S    
C44   C52   A    
N1    H57   S    
C13   C85   S    
C25   C74   S    
N3    C91   S    
C25   C33   A    
C64   H32   S    
C64   C72   A    
N5    C93   S    
N3    H65   S    
C40   H16   S    
C36   C44   A    
C92   H72   S    
C91   H66   S    
C34   C42   A    
C91   H67   S    
C89   H59   S    
O10   V2    S    
C27   C35   A    
C33   C41   A    
N8    H85   S    
C69   N5    S    
C18   H2    S    
C70   C78   A    
C90   H64   S    
O12   C4    A    
O8    C5    A    
C57   C65   A    
C12   C52   A    
C2    C56   S    
O9    C1    A    
C85   H47   S    
O2    V4    S    
C59   H27   S    
C16   C88   S    
C31   C39   A    
C62   C70   A    
C47   C55   A    
O4    C1    A    
C61   C69   A    
C88   H56   S    
O6    V2    S    
C72   C80   A    
C22   C30   A    
C90   H62   S    
C86   H50   S    
C63   C71   A    
C94   H80   S    
C39   C47   A    
C84   H44   S    
C15   C87   S    
C64   C79   A    
C13   C21   A    
C46   C54   A    
C87   H53   S    
C37   C45   A    
C83   H41   S    
C15   C23   A    
N1    C89   S    
C96   H88   S    
C69   C77   A    
C24   H8    S    
C65   C73   A    
O1    C4    A    
C67   C75   A    
O2    C3    A    
O13   V3    S    
C14   C86   S    
O14   V4    S    
C59   C76   A    
C68   N4    S    
C15   C55   A    
C57   C74   A    
C82   H38   S    
O9    V1    S    
C36   H12   S    
O7    C6    A    
C43   H19   S    
C81   H33   S    
C58   C66   A    
C42   H18   S    
C91   H68   S    
C9    C17   A    
C31   C80   S    
C60   H28   S    
C84   H43   S    
C16   C56   A    
C71   N7    S    
C17   C25   A    
N4    H69   S    
C14   C54   A    
C82   H36   S    
C14   C22   A    
C13   C53   A    
C3    C53   S    
C4    C54   S    
O14   C6    A    
O5    C8    A    
C41   C49   A    
O10   C2    A    
C96   H86   S    
O6    C7    A    
O20   V2    S    
C10   C50   A    
C9    C49   A    
C32   C40   A    
C1    C55   S    
C92   H70   S    
C12   C84   S    
N4    C92   S    
O4    V3    S    
C12   C20   A    
C45   C53   A    
C93   H74   S    
C35   H11   S    
C28   C36   A    
C86   H49   S    
N5    H73   S    
N6    C94   S    
C67   N3    S    
C62   C77   A    
C44   H20   S    
C85   H45   S    
C84   H42   S    
N7    C95   S    
C48   C56   A    
C66   C74   A    
C93   H75   S    
C38   C46   A    
