data_mof_unit_29883.cif
_audit_creation_date              2012-12-11T16:58:17-0500
_audit_creation_method            fapswitch 2.2
_symmetry_space_group_name_H-M    P1
_symmetry_Int_Tables_number       1
_space_group_crystal_system       triclinic
_cell_length_a                    16.710729
_cell_length_b                    7.292958
_cell_length_c                    17.039858
_cell_angle_alpha                 89.716943
_cell_angle_beta                  100.206535
_cell_angle_gamma                 90.235752
_cell_volume                      2043.76018795

loop_
_atom_site_label
_atom_site_type_symbol
_atom_type_description
_atom_site_fract_x
_atom_site_fract_y
_atom_site_fract_z
_atom_type_partial_charge
O1    O     O_R   0.413450 0.494370 0.415710 -0.511670
O2    O     O_R   0.586550 0.994370 0.584290 -0.505785
O3    O     O_R   0.578420 0.819350 0.429360 -0.522896
O4    O     O_R   0.421580 0.319350 0.570640 -0.538155
C1    C     C_R   0.603661 0.657030 0.412359 0.834468
C2    C     C_R   0.396812 0.155975 0.587961 0.824761
O5    O     O_R   0.413570 0.823780 0.406240 -0.538978
O6    O     O_R   0.586430 0.323780 0.593760 -0.541505
O7    O     O_R   0.420530 0.998740 0.561000 -0.547780
O8    O     O_R   0.579470 0.498740 0.439000 -0.550644
C3    C     C_R   0.386097 0.654334 0.383774 0.703863
C4    C     C_R   0.613431 0.154473 0.616636 0.720460
O9    O     O_3   0.502480 0.662320 0.550800 -0.378318
O10   O     O_3   0.497520 0.162320 0.449200 -0.377512
V1    V     V_3+5 0.499540 0.935370 0.490580 1.504357
V2    V     V_3+5 0.500460 0.435370 0.509420 1.479435
C5    C     C_R   0.741498 0.003015 0.691738 0.040228
C6    C     C_R   0.258617 0.499191 0.307997 0.030032
C7    C     C_R   0.683263 0.143394 0.684323 -0.150552
C8    C     C_R   0.316491 0.641890 0.315875 -0.142019
C9    C     C_R   0.696432 0.280048 0.743273 -0.168524
C10   C     C_R   0.303525 0.779413 0.256801 -0.168600
H1    H     H_    0.653751 0.389270 0.740859 0.184415
H2    H     H_    0.345944 0.889773 0.259453 0.184426
C11   C     C_R   0.762748 0.272796 0.807540 -0.189644
C12   C     C_R   0.237363 0.772802 0.192461 -0.192669
H3    H     H_    0.769305 0.380465 0.851767 0.126550
H4    H     H_    0.230763 0.881830 0.148446 0.126840
C13   C     C_R   0.816930 0.123024 0.816661 -0.069236
C14   C     C_R   0.183257 0.622379 0.183134 -0.066440
C15   C     C_R   0.805120 0.992937 0.756115 -0.021476
C16   C     C_R   0.195402 0.489880 0.243079 -0.026512
C17   C     C_3   0.808559 0.789461 0.757124 -0.534841
C18   C     C_3   0.192618 0.286853 0.240069 -0.534526
C19   C     C_3   0.739184 0.797715 0.683820 0.796842
C20   C     C_3   0.261175 0.292608 0.314191 0.795451
H5    H     H_    0.793615 0.730176 0.812702 0.147517
H6    H     H_    0.208371 0.233130 0.184146 0.147535
H7    H     H_    0.867605 0.741300 0.743546 0.176775
H8    H     H_    0.133106 0.236086 0.251754 0.174666
C21   C     C_R   0.334248 0.154197 0.640585 -0.208377
C22   C     C_R   0.666396 0.656997 0.359685 -0.190204
C23   C     C_R   0.168949 0.120171 0.865616 -0.037739
C24   C     C_R   0.831467 0.615593 0.134861 -0.040454
C25   C     C_R   0.309457 0.061984 0.852554 -0.097235
C26   C     C_R   0.691973 0.548163 0.149701 -0.099666
C27   C     C_R   0.247887 0.064005 0.898713 -0.187357
C28   C     C_R   0.753088 0.552848 0.103002 -0.187134
C29   C     C_R   0.151706 0.171459 0.785045 -0.182587
C30   C     C_R   0.848876 0.668655 0.214963 -0.185320
C31   C     C_R   0.212861 0.166394 0.737710 0.054605
C32   C     C_R   0.788102 0.661870 0.262708 0.070090
C33   C     C_R   0.293057 0.112662 0.771305 0.110695
C34   C     C_R   0.708266 0.603440 0.230186 0.110569
C35   C     C_R   0.354454 0.113408 0.723047 0.121034
C36   C     C_R   0.646883 0.606146 0.278415 0.117693
C37   C     C_R   0.256155 0.223562 0.610823 0.364184
C38   C     C_R   0.742837 0.738944 0.386718 0.373516
C39   C     C_R   0.195427 0.221689 0.657979 -0.267524
C40   C     C_R   0.804919 0.725694 0.340906 -0.317708
H9    H     H_    0.369313 0.017352 0.880846 0.173903
H10   H     H_    0.632448 0.499086 0.122342 0.173575
H11   H     H_    0.135072 0.269682 0.632619 0.140131
H12   H     H_    0.864851 0.779526 0.364636 0.130887
H13   H     H_    0.261926 0.021655 0.960657 0.110316
H14   H     H_    0.739076 0.507914 0.041562 0.111740
H15   H     H_    0.090492 0.213423 0.759115 0.102217
H16   H     H_    0.909720 0.715368 0.239980 0.102554
O11   O     O_R   0.920630 0.775410 0.061150 -0.531206
O12   O     O_R   0.079370 0.275410 0.938850 -0.531277
O13   O     O_R   0.086500 0.441450 0.093690 -0.535468
O14   O     O_R   0.913500 0.941450 0.906310 -0.535291
C41   C     C_R   0.114724 0.610091 0.114986 0.696410
C42   C     C_R   0.885379 0.110178 0.884918 0.696927
O15   O     O_R   0.921670 0.445960 0.070740 -0.536888
O16   O     O_R   0.078330 0.945960 0.929260 -0.535849
O17   O     O_R   0.913380 0.271130 0.915780 -0.541260
O18   O     O_R   0.086620 0.771130 0.084220 -0.541598
C43   C     C_R   0.895920 0.613178 0.085679 0.679893
C44   C     C_R   0.104084 0.114270 0.914351 0.679716
O19   O     O_3   0.997500 0.603030 0.949220 -0.376795
O20   O     O_3   0.002500 0.103030 0.050780 -0.377467
V3    V     V_3+5 0.000470 0.329940 0.009420 1.409792
V4    V     V_3+5 0.999530 0.829940 0.990580 1.410630
O21   O     O_3   0.662634 0.713654 0.688573 -0.558171
C45   C     C_3   0.632931 0.745516 0.760294 0.004777
H17   H     H_    0.636252 0.891766 0.777942 0.172362
H18   H     H_    0.666667 0.662572 0.809965 0.105376
C46   C     C_3   0.544101 0.685501 0.748713 -0.553460
H19   H     H_    0.536935 0.538661 0.732464 0.212381
H20   H     H_    0.520141 0.706380 0.804748 0.201861
H21   H     H_    0.507533 0.766567 0.700067 0.248877
O22   O     O_3   0.338090 0.211379 0.310191 -0.555990
C47   C     C_3   0.368410 0.245532 0.238882 0.008266
H22   H     H_    0.366189 0.392754 0.222175 0.174703
H23   H     H_    0.334452 0.164934 0.188719 0.103800
C48   C     C_3   0.456758 0.182947 0.250608 -0.550366
H24   H     H_    0.462698 0.035179 0.265780 0.209893
H25   H     H_    0.481302 0.206141 0.194936 0.201549
H26   H     H_    0.493761 0.260318 0.300070 0.251039
O23   O     O_3   0.766369 0.749234 0.612720 -0.533479
C49   C     C_3   0.781997 0.558997 0.610267 0.172546
H27   H     H_    0.730535 0.492791 0.570344 0.146727
H28   H     H_    0.789580 0.489708 0.669317 0.114109
C50   C     C_3   0.860380 0.528957 0.578212 -0.765746
H29   H     H_    0.911383 0.602608 0.615905 0.219706
H30   H     H_    0.874977 0.380502 0.579261 0.178550
H31   H     H_    0.854117 0.579850 0.516050 0.247230
O24   O     O_3   0.233443 0.238266 0.384513 -0.535859
C51   C     C_3   0.210919 0.050601 0.383307 0.192995
H32   H     H_    0.255631 0.974509 0.427537 0.136953
H33   H     H_    0.208222 0.983892 0.324560 0.110013
C52   C     C_3   0.126870 0.032349 0.405599 -0.761633
H34   H     H_    0.083381 0.126311 0.368630 0.217935
H35   H     H_    0.104164 0.889868 0.394806 0.173510
H36   H     H_    0.129336 0.066077 0.469401 0.249688
Br1   Br    Br    0.467443 0.100216 0.771507 -0.680977
Br2   Br    Br    0.534054 0.593551 0.229545 -0.679646
O25   O     O_3   0.239952 0.301952 0.535951 -0.535171
C53   C     C_3   0.241419 0.495815 0.542213 0.200483
H37   H     H_    0.287303 0.550067 0.508240 0.124239
H38   H     H_    0.258530 0.549590 0.604317 0.085402
C54   C     C_3   0.158868 0.572928 0.505206 -0.755080
H39   H     H_    0.110469 0.512744 0.534358 0.216728
H40   H     H_    0.159388 0.723558 0.513768 0.175867
H41   H     H_    0.145403 0.541956 0.440434 0.239263
O26   O     O_3   0.753634 0.845970 0.454817 -0.528443
C55   C     C_3   0.779525 0.025103 0.437362 0.145197
H42   H     H_    0.765088 0.062584 0.372685 0.105069
H43   H     H_    0.846305 0.037104 0.457693 0.120905
C56   C     C_3   0.737291 0.165747 0.480540 -0.680419
H44   H     H_    0.758125 0.151798 0.545653 0.201462
H45   H     H_    0.752314 0.305324 0.461214 0.157801
H46   H     H_    0.670446 0.146497 0.465674 0.230167

loop_
_geom_bond_atom_site_label_1
_geom_bond_atom_site_label_2
_ccdc_geom_bond_type
C24   C28   A    
C1    C22   S    
C6    C20   S    
O22   C47   S    
O1    C3    A    
C19   O23   S    
C56   H46   S    
O2    C4    A    
C55   H42   S    
C22   C38   A    
C2    O7    A    
C48   H24   S    
C54   H39   S    
O21   C45   S    
O5    C3    A    
C50   H30   S    
C17   H7    S    
O15   C43   A    
C26   H10   S    
C18   H8    S    
C7    C9    A    
C17   C19   S    
C45   H18   S    
C37   C39   A    
O17   V3    S    
C38   C40   A    
C49   C50   S    
C25   C27   A    
C51   H32   S    
C21   C35   A    
C32   C40   A    
C22   C36   A    
C20   O22   S    
C53   H38   S    
C29   C31   A    
C42   O17   A    
C30   C32   A    
C41   O18   A    
C15   C17   S    
C46   H20   S    
C18   C20   S    
C53   C54   S    
C37   O25   S    
C52   H36   S    
O5    V1    S    
C25   C33   A    
C38   O26   S    
O6    V2    S    
O16   V4    S    
C49   H27   S    
C48   H25   S    
C32   C34   A    
O13   V3    S    
C33   C35   A    
C11   C13   A    
C50   H31   S    
C34   C36   A    
C3    C8    S    
O12   C44   A    
O23   C49   S    
O4    C2    A    
O13   C41   A    
C14   C41   S    
C45   H17   S    
C23   C29   A    
C54   H41   S    
C13   C42   S    
C47   C48   S    
C56   H45   S    
C23   C44   S    
C2    C21   S    
C17   H5    S    
C31   C33   A    
C16   C18   S    
O4    V2    S    
C49   H28   S    
O12   V3    S    
O6    C4    A    
C26   C34   A    
O1    V2    S    
C46   H21   S    
C47   H23   S    
O2    V1    S    
C51   C52   S    
O14   V4    S    
O14   C42   A    
C8    C10   A    
C12   C14   A    
C9    H1    S    
C5    C15   A    
C10   H2    S    
C39   H11   S    
O11   C43   A    
C6    C16   A    
O26   C55   S    
C55   C56   S    
O19   V4    S    
O3    V1    S    
C53   H37   S    
C52   H34   S    
C35   Br1   S    
C24   C30   A    
C9    C11   A    
C48   H26   S    
C29   H15   S    
C18   H6    S    
C36   Br2   S    
C24   C43   S    
O16   C44   A    
O3    C1    A    
C45   C46   S    
C55   H43   S    
O25   C53   S    
C11   H3    S    
C50   H29   S    
C12   H4    S    
C40   H12   S    
O7    V1    S    
C21   C37   A    
C1    O8    A    
C13   C15   A    
O11   V4    S    
O8    V2    S    
O24   C51   S    
C14   C16   A    
C19   O21   S    
O15   V3    S    
C23   C27   A    
C4    C7    S    
C25   H9    S    
C5    C7    A    
C6    C8    A    
C47   H22   S    
C51   H33   S    
C54   H40   S    
C26   C28   A    
O18   V4    S    
C31   C39   A    
O20   V3    S    
C10   C12   A    
O9    V2    S    
C20   O24   S    
O10   V1    S    
C5    C19   S    
C28   H14   S    
C46   H19   S    
C30   H16   S    
C27   H13   S    
C56   H44   S    
C52   H35   S    
