data_mof_unit_44292.cif
_audit_creation_date              2012-12-10T16:43:22-0500
_audit_creation_method            fapswitch 2.2
_symmetry_space_group_name_H-M    P1
_symmetry_Int_Tables_number       1
_space_group_crystal_system       triclinic
_cell_length_a                    10.774433
_cell_length_b                    8.700384
_cell_length_c                    7.550912
_cell_angle_alpha                 103.067036
_cell_angle_beta                  95.342474
_cell_angle_gamma                 94.087929
_cell_volume                      683.393119177

loop_
_atom_site_label
_atom_site_type_symbol
_atom_type_description
_atom_site_fract_x
_atom_site_fract_y
_atom_site_fract_z
_atom_type_partial_charge
C1    C     C_R   0.495820 0.199941 0.453197 0.862491
C2    C     C_R   0.082154 0.636359 0.636957 0.094373
C3    C     C_R   0.130322 0.519061 0.505186 -0.087335
C4    C     C_R   0.050175 0.410334 0.371570 -0.214622
C5    C     C_R   0.922334 0.411363 0.370091 -0.192176
C6    C     C_R   0.872118 0.521208 0.502215 -0.097905
C7    C     C_2   0.493605 0.031609 0.427551 -0.369829
C8    C     C_2   0.504959 0.968283 0.572476 -0.365003
C9    C     C_R   0.263346 0.506349 0.501776 0.764104
C10   C     C_R   0.503721 0.800035 0.546802 0.852326
C11   C     C_R   0.737438 0.507813 0.500761 0.778172
C12   C     C_R   0.160720 0.754189 0.767885 -0.170385
C13   C     C_R   0.110303 0.866231 0.896997 -0.148824
C14   C     C_R   0.981420 0.869868 0.892054 -0.137229
C15   C     C_R   0.902063 0.759144 0.760261 -0.171414
C16   C     C_R   0.950751 0.638099 0.634366 0.093920
Cu1   Cu    Cu3+1 0.513920 0.517380 0.684380 0.942885
Cu2   Cu    Cu3+1 0.486080 0.482620 0.315620 0.963692
H1    H     H_    0.086729 0.320709 0.270750 0.140832
H2    H     H_    0.592172 0.632659 0.051526 0.199869
H3    H     H_    0.261341 0.763589 0.771767 0.165927
H4    H     H_    0.171672 0.952206 0.999660 0.129557
H5    H     H_    0.942767 0.960138 0.989329 0.131653
H6    H     H_    0.802934 0.771742 0.757310 0.146815
H7    H     H_    0.862134 0.322558 0.268303 0.155843
H8    H     H_    0.482929 0.959481 0.288210 0.177479
H9    H     H_    0.515459 0.040380 0.711810 0.192684
N1    N     N_2   0.465100 0.456430 0.038520 0.013491
N2    N     N_2   0.534900 0.543570 0.961480 -0.192444
O1    O     O_R   0.509050 0.286130 0.619770 -0.588612
O2    O     O_R   0.485540 0.256780 0.308360 -0.577747
O3    O     O_R   0.331410 0.514680 0.655740 -0.617726
O4    O     O_R   0.307900 0.485330 0.344330 -0.581705
O5    O     O_R   0.514460 0.743220 0.691640 -0.604322
O6    O     O_R   0.490950 0.713870 0.380230 -0.584940
O7    O     O_R   0.692100 0.514670 0.655670 -0.580939
O8    O     O_R   0.668590 0.485320 0.344260 -0.583782
N3    N     N_2   0.390662 0.326740 0.929089 -0.288279
H10   H     H_    0.366789 0.331698 0.799113 0.306723
C17   C     C_3   0.276384 0.281397 0.997730 -0.603205
H11   H     H_    0.220669 0.185400 0.891821 0.167237
H12   H     H_    0.218280 0.382913 0.024189 0.231726
H13   H     H_    0.294949 0.232763 0.119241 0.246622

loop_
_geom_bond_atom_site_label_1
_geom_bond_atom_site_label_2
_ccdc_geom_bond_type
C14   H5    S    
N3    C17   S    
C17   H11   S    
C10   O6    A    
C3    C9    S    
Cu1   O7    S    
C2    C16   A    
Cu2   O6    S    
N1    N3    S    
C2    C12   A    
C17   H12   S    
Cu1   Cu2   S    
Cu2   N1    S    
C7    C8    D    
C10   O5    A    
C15   H6    S    
C13   C14   A    
C9    O4    A    
Cu1   O1    S    
C5    C6    A    
C7    H8    S    
C5    H7    S    
C1    O1    A    
Cu2   O8    S    
C13   H4    S    
C2    C3    A    
H2    N2    S    
N3    H10   S    
Cu2   O4    S    
Cu1   O5    S    
C6    C16   A    
C3    C4    A    
C1    O2    A    
Cu1   N2    S    
C12   C13   A    
C8    C10   S    
C6    C11   S    
C11   O8    A    
Cu1   O3    S    
C14   C15   A    
N1    N2    D    
Cu2   O2    S    
C9    O3    A    
C8    H9    S    
C1    C7    S    
C4    H1    S    
C12   H3    S    
C17   H13   S    
C15   C16   A    
C4    C5    A    
C11   O7    A    
