data_mof_unit_50472.cif
_audit_creation_date              2012-12-10T18:50:01-0500
_audit_creation_method            fapswitch 2.2
_symmetry_space_group_name_H-M    P1
_symmetry_Int_Tables_number       1
_space_group_crystal_system       triclinic
_cell_length_a                    10.709932
_cell_length_b                    9.930798
_cell_length_c                    10.636186
_cell_angle_alpha                 89.799047
_cell_angle_beta                  92.107807
_cell_angle_gamma                 90.051323
_cell_volume                      1130.47259642

loop_
_atom_site_label
_atom_site_type_symbol
_atom_type_description
_atom_site_fract_x
_atom_site_fract_y
_atom_site_fract_z
_atom_type_partial_charge
C1    C     C_R   0.260139 0.499975 0.500233 0.841258
C2    C     C_R   0.579360 0.928238 0.578554 -0.153190
C3    C     C_R   0.419350 0.928220 0.420486 0.271751
C4    C     C_R   0.419718 0.072115 0.420097 0.272372
C5    C     C_R   0.499665 0.500472 0.257850 0.855204
C6    C     C_R   0.739815 0.500033 0.500857 0.885009
C7    C     C_R   0.500491 0.499974 0.742078 0.894697
C8    C     C_3   0.491979 0.647856 0.070790 -0.415868
C9    C     C_3   0.387900 0.419047 0.067542 -0.411218
C10   C     C_3   0.489054 0.647324 0.928238 -0.488225
C11   C     C_3   0.383384 0.425312 0.923072 -0.433057
C12   C     C_3   0.622314 0.422844 0.933535 1.004771
C13   C     C_3   0.625387 0.438544 0.079352 -0.497750
C14   C     C_3   0.501105 0.501475 0.121366 0.091526
C15   C     C_3   0.501949 0.499934 0.878583 0.038501
C16   C     C_3   0.326987 0.857464 0.331956 -0.881131
C17   C     C_3   0.330193 0.143062 0.328502 -0.886054
C18   C     C_3   0.771298 0.598987 0.885773 -0.438933
C19   C     C_3   0.712556 0.204792 0.915585 -0.263465
C20   C     C_R   0.062928 0.379766 0.478612 -0.203367
C21   C     C_R   0.064986 0.620030 0.525503 -0.205888
C22   C     C_R   0.935086 0.379782 0.478721 -0.197922
C23   C     C_R   0.937042 0.619983 0.526014 -0.201265
C24   C     C_R   0.872439 0.499970 0.501980 0.002713
C25   C     C_R   0.127568 0.499951 0.501409 -0.003200
C26   C     C_R   0.579264 0.071304 0.578599 -0.126261
H1    H     H_    0.572885 0.708943 0.106569 0.187633
H2    H     H_    0.637452 0.338399 0.125423 0.180159
H3    H     H_    0.110604 0.286299 0.459837 0.156749
H4    H     H_    0.114467 0.713428 0.544443 0.159639
H5    H     H_    0.885734 0.286335 0.459645 0.153697
H6    H     H_    0.889159 0.713288 0.545461 0.149644
H7    H     H_    0.643190 0.124744 0.641639 0.157764
H8    H     H_    0.643251 0.874446 0.641823 0.134163
H9    H     H_    0.332920 0.748826 0.331298 0.291669
H10   H     H_    0.230069 0.881986 0.357395 0.215282
H11   H     H_    0.341749 0.888825 0.233463 0.209494
H12   H     H_    0.396231 0.312064 0.097792 0.199840
H13   H     H_    0.331683 0.251839 0.331936 0.289848
H14   H     H_    0.352250 0.116308 0.230647 0.213896
H15   H     H_    0.232599 0.113466 0.346640 0.209588
H16   H     H_    0.745957 0.648446 0.974203 0.159571
H17   H     H_    0.733726 0.654562 0.802052 0.187418
H18   H     H_    0.874517 0.605093 0.882343 0.209775
H19   H     H_    0.773827 0.230859 0.998610 0.157462
H20   H     H_    0.765416 0.215911 0.828222 0.196689
H21   H     H_    0.686087 0.097249 0.924396 0.154309
H22   H     H_    0.405257 0.696560 0.102926 0.190880
H23   H     H_    0.299068 0.459167 0.103622 0.161535
H24   H     H_    0.398011 0.690310 0.893456 0.201562
H25   H     H_    0.297189 0.479012 0.889295 0.166223
H26   H     H_    0.559268 0.718553 0.893285 0.185658
H27   H     H_    0.375841 0.321586 0.884284 0.222094
H28   H     H_    0.706256 0.498983 0.115003 0.140936
N1    N     N_R   0.499970 0.857200 0.499970 -0.095764
N2    N     N_R   0.499970 0.142800 0.499970 -0.099065
O1    O     O_R   0.316750 0.614620 0.499990 -0.634034
O2    O     O_3   0.602010 0.283039 0.907099 -0.637126
O3    O     O_R   0.316750 0.385380 0.499990 -0.635607
O4    O     O_R   0.499970 0.614670 0.314790 -0.634806
O5    O     O_R   0.499970 0.385330 0.314790 -0.635185
O6    O     O_R   0.683220 0.614710 0.500010 -0.629140
O7    O     O_R   0.683220 0.385290 0.500010 -0.620778
O8    O     O_R   0.500010 0.614660 0.685200 -0.636648
O9    O     O_R   0.500010 0.385340 0.685200 -0.577967
O10   O     O_3   0.736934 0.462173 0.877075 -0.638170
Zn1   Zn    Zn3+2 0.499980 0.653120 0.500000 0.927167
Zn2   Zn    Zn3+2 0.499980 0.346880 0.500000 0.952937

loop_
_geom_bond_atom_site_label_1
_geom_bond_atom_site_label_2
_ccdc_geom_bond_type
C6    O7    A    
N1    Zn1   S    
C23   C24   A    
C8    H22   S    
C13   H2    S    
C1    O1    A    
O3    Zn2   S    
C18   O10   S    
C21   H4    S    
C16   H9    S    
C26   H7    S    
C5    O4    A    
C11   H27   S    
C12   C15   S    
C16   H11   S    
C9    C14   S    
O9    Zn2   S    
C10   H26   S    
C23   H6    S    
C6    O6    A    
C11   C15   S    
C7    C15   S    
C19   H20   S    
C6    C24   S    
C12   O2    S    
C2    C26   A    
C18   H17   S    
C16   H10   S    
C1    C25   S    
C9    C11   S    
O5    Zn2   S    
C2    H8    S    
C5    C14   S    
C12   O10   S    
O6    Zn1   S    
O1    Zn1   S    
C4    C17   S    
C11   H25   S    
C9    H12   S    
C19   H19   S    
C1    O3    A    
C20   C22   A    
C18   H18   S    
C2    N1    A    
C21   C23   A    
C19   O2    S    
C17   H13   S    
C13   C14   S    
C22   C24   A    
C7    O8    A    
C17   H15   S    
C7    O9    A    
C22   H5    S    
C5    O5    A    
C3    C4    A    
C10   H24   S    
O8    Zn1   S    
C9    H23   S    
C12   C13   S    
C20   H3    S    
C8    C10   S    
C13   H28   S    
C20   C25   A    
C19   H21   S    
C8    H1    S    
C21   C25   A    
O7    Zn2   S    
C8    C14   S    
C18   H16   S    
C10   C15   S    
N2    Zn2   S    
C3    N1    A    
C4    N2    A    
C3    C16   S    
O4    Zn1   S    
C17   H14   S    
C26   N2    A    
