data_mof_unit_20101.cif
_audit_creation_date              2012-12-10T19:45:42-0500
_audit_creation_method            fapswitch 2.2
_symmetry_space_group_name_H-M    P1
_symmetry_Int_Tables_number       1
_space_group_crystal_system       triclinic
_cell_length_a                    10.904325
_cell_length_b                    14.82986
_cell_length_c                    14.728793
_cell_angle_alpha                 65.109845
_cell_angle_beta                  104.077657
_cell_angle_gamma                 102.396392
_cell_volume                      2078.53075972

loop_
_atom_site_label
_atom_site_type_symbol
_atom_type_description
_atom_site_fract_x
_atom_site_fract_y
_atom_site_fract_z
_atom_type_partial_charge
C1    C     C_R   0.474612 0.119563 0.311638 0.908354
C2    C     C_R   0.525388 0.880437 0.688362 0.908357
C3    C     C_R   0.870820 0.994110 0.502796 -0.197625
C4    C     C_R   0.129180 0.005890 0.497204 -0.197626
C5    C     C_R   0.906394 0.979608 0.424335 -0.025916
C6    C     C_R   0.093605 0.020393 0.575664 -0.025915
C7    C     C_R   0.449436 0.187958 0.202498 -0.387963
C8    C     C_R   0.550562 0.812042 0.797502 -0.387964
C9    C     C_R   0.341506 0.228247 0.027095 0.753537
C10   C     C_R   0.658488 0.771752 0.972905 0.753535
C11   C     C_R   0.362930 0.159484 0.127532 0.265167
C12   C     C_R   0.637068 0.840515 0.872468 0.265167
C13   C     C_R   0.508815 0.287537 0.174008 0.708882
C14   C     C_R   0.491180 0.712464 0.825992 0.708881
C15   C     C_R   0.470756 0.361341 0.077036 -0.140578
C16   C     C_R   0.529236 0.638660 0.922964 -0.140577
C17   C     C_R   0.396774 0.328476 0.000724 -0.389261
C18   C     C_R   0.603218 0.671524 0.999277 -0.389261
C19   C     C_R   0.508579 0.466130 0.052026 -0.163242
C20   C     C_R   0.491411 0.533871 0.947974 -0.163243
C21   C     C_R   0.441792 0.493747 0.872699 0.660244
C22   C     C_R   0.558197 0.506254 0.127301 0.660244
C23   C     C_R   0.262705 0.002158 0.498347 0.859441
C24   C     C_R   0.737295 0.997842 0.501652 0.859442
C25   C     C_R   0.385631 0.395010 0.898775 0.692438
C26   C     C_R   0.614359 0.604990 0.101226 0.692436
C27   C     C_R   0.724988 0.289394 0.659412 0.636981
C28   C     C_R   0.275012 0.710605 0.340589 0.636980
C29   C     C_R   0.686568 0.206688 0.633740 0.651494
C30   C     C_R   0.313431 0.793312 0.366261 0.651494
C31   C     C_R   0.518337 0.285235 0.508347 0.768488
C32   C     C_R   0.481663 0.714765 0.491654 0.768488
C33   C     C_R   0.546672 0.370603 0.535476 -0.200400
C34   C     C_R   0.453328 0.629396 0.464525 -0.200390
C35   C     C_R   0.657276 0.372600 0.609413 -0.416728
C36   C     C_R   0.342724 0.627399 0.390588 -0.416729
C37   C     C_R   0.475178 0.455445 0.489748 -0.086710
C38   C     C_R   0.524822 0.544554 0.510254 -0.086708
C39   C     C_R   0.645404 0.545737 0.573443 0.694974
C40   C     C_R   0.354595 0.454262 0.426560 0.694977
C41   C     C_R   0.705024 0.460198 0.626744 0.720286
C42   C     C_R   0.294974 0.539800 0.373259 0.720287
C43   C     C_R   0.353622 0.037974 0.792490 0.347488
C44   C     C_R   0.646379 0.962034 0.207505 0.347491
C45   C     C_R   0.264187 0.998575 0.728480 -0.291010
C46   C     C_R   0.735816 0.001431 0.271516 -0.291015
C47   C     C_R   0.187736 0.061297 0.644283 -0.083152
C48   C     C_R   0.812263 0.938706 0.355714 -0.083152
C49   C     C_R   0.198121 0.163527 0.626559 0.357072
C50   C     C_R   0.801873 0.836476 0.373438 0.357071
C51   C     C_R   0.293514 0.203843 0.686714 0.531105
C52   C     C_R   0.706479 0.796163 0.313281 0.531096
C53   C     C_R   0.372659 0.141585 0.768983 0.246376
C54   C     C_R   0.627337 0.858423 0.231012 0.246383
C55   C     C_R   0.964795 0.008518 0.581163 0.404998
C56   C     C_R   0.035205 0.991483 0.418836 0.404999
Cu1   Cu    Cu3+1 0.466270 0.918260 0.475690 1.136361
Cu2   Cu    Cu3+1 0.533730 0.081740 0.524310 1.136361
H1    H     H_    0.252475 0.919038 0.745223 0.218523
H2    H     H_    0.747532 0.080969 0.254774 0.218526
N1    N     N_R   0.584450 0.204570 0.560790 -0.374886
N2    N     N_R   0.415550 0.795430 0.439210 -0.374887
O1    O     O_R   0.455540 0.022090 0.338120 -0.551125
O2    O     O_R   0.544460 0.977910 0.661880 -0.551123
O3    O     O_R   0.512510 0.160150 0.379180 -0.468983
O4    O     O_R   0.487490 0.839850 0.620820 -0.468983
O5    O     O_R   0.291160 0.930970 0.479480 -0.497679
O6    O     O_R   0.708840 0.069030 0.520520 -0.497679
O7    O     O_R   0.348130 0.069020 0.520540 -0.589653
O8    O     O_R   0.651870 0.930980 0.479460 -0.589653
Cl1   Cl    Cl    0.493980 0.194767 0.841664 -0.339054
Cl2   Cl    Cl    0.506015 0.805244 0.158330 -0.339048
F1    F     F_    0.264084 0.196813 0.955634 -0.485248
F2    F     F_    0.735911 0.803185 0.044367 -0.485249
F3    F     F_    0.455848 0.546246 0.774149 -0.533954
F4    F     F_    0.544140 0.453755 0.225851 -0.533954
F5    F     F_    0.817361 0.466840 0.689979 -0.487668
F6    F     F_    0.182638 0.533158 0.310025 -0.487668
F7    F     F_    0.561495 0.713697 0.577778 -0.526483
F8    F     F_    0.438505 0.286304 0.422222 -0.526482
F9    F     F_    0.241190 0.868287 0.324027 -0.501237
F10   F     F_    0.758809 0.131712 0.675973 -0.501237
F11   F     F_    0.830813 0.288429 0.730994 -0.459531
F12   F     F_    0.169186 0.711569 0.269007 -0.459533
F13   F     F_    0.715546 0.630754 0.578528 -0.531781
F14   F     F_    0.284453 0.369244 0.421476 -0.531785
Cl3   Cl    Cl    0.434707 0.955173 0.904433 -0.358890
Cl4   Cl    Cl    0.565300 0.044838 0.095561 -0.358891
Cl5   Cl    Cl    0.088726 0.241097 0.532353 -0.311094
Cl6   Cl    Cl    0.911265 0.758904 0.467644 -0.311091
F15   F     F_    0.307898 0.303361 0.666000 -0.524724
F16   F     F_    0.692090 0.696645 0.333996 -0.524727
Cl7   Cl    Cl    0.923838 0.999418 0.693702 -0.366710
Cl8   Cl    Cl    0.076162 0.000582 0.306297 -0.366712
F17   F     F_    0.328043 0.363359 0.822778 -0.471438
F18   F     F_    0.671946 0.636641 0.177223 -0.471439
F19   F     F_    0.385351 0.691655 0.763344 -0.561688
F20   F     F_    0.614643 0.308348 0.236656 -0.561687
Cl9   Cl    Cl    0.717912 0.961780 0.848240 -0.237797
Cl10  Cl    Cl    0.282093 0.038217 0.151760 -0.237802

loop_
_geom_bond_atom_site_label_1
_geom_bond_atom_site_label_2
_ccdc_geom_bond_type
C28   F12   S    
C31   N1    A    
C5    C56   A    
C36   C42   A    
C19   C20   A    
C18   C26   A    
C22   F4    S    
Cu1   O4    S    
C55   Cl7   S    
C24   O8    A    
C31   F8    S    
C39   C41   A    
C15   C19   A    
C37   C40   A    
C41   F5    S    
C38   C39   A    
C27   C29   A    
C23   O5    A    
C13   F20   S    
C40   F14   S    
C50   C52   A    
C23   O7    A    
C12   Cl9   S    
C51   F15   S    
C3    C55   A    
C43   C53   A    
C2    O2    A    
C49   C51   A    
C50   Cl6   S    
C1    O3    A    
C31   C33   A    
Cu1   O8    S    
C6    C55   A    
C8    C12   A    
C52   C54   A    
Cu2   N1    S    
C40   C42   A    
C34   C38   A    
C4    C56   A    
Cu2   O2    S    
C3    C24   S    
C9    F1    S    
Cu1   O5    S    
C1    O1    A    
C44   C46   A    
Cu1   O1    S    
C29   N1    A    
C45   C47   A    
C26   F18   S    
C5    C48   S    
C46   C48   A    
C6    C47   S    
Cu1   N2    S    
C19   C22   A    
C4    C6    A    
C4    C23   S    
C27   C35   A    
C33   C37   A    
C11   Cl10  S    
C51   C53   A    
C32   C34   A    
C56   Cl8   S    
C37   C38   A    
C9    C11   A    
Cu2   O3    S    
C7    C11   A    
C7    C13   A    
C16   C20   A    
C43   C45   A    
C10   C12   A    
Cu2   O6    S    
C25   F17   S    
C30   N2    A    
C14   C16   A    
C52   F16   S    
C39   F13   S    
C53   Cl1   S    
C14   F19   S    
C9    C17   A    
C15   C17   A    
C21   C25   A    
C45   H1    S    
C8    C14   A    
C46   H2    S    
C1    C7    S    
C2    C8    S    
C49   Cl5   S    
C3    C5    A    
Cu2   O7    S    
C2    O4    A    
C47   C49   A    
C21   F3    S    
C42   F6    S    
C17   C25   A    
C30   F9    S    
C13   C15   A    
C43   Cl3   S    
C28   C30   A    
C32   F7    S    
C10   F2    S    
Cu1   Cu2   S    
C10   C18   A    
C48   C50   A    
C33   C35   A    
C34   C36   A    
C35   C41   A    
C24   O6    A    
C32   N2    A    
C27   F11   S    
C44   C54   A    
C29   F10   S    
C54   Cl2   S    
C20   C21   A    
C28   C36   A    
C16   C18   A    
C22   C26   A    
C44   Cl4   S    
