data_mof_unit_19292.cif
_audit_creation_date              2012-12-10T20:49:27-0500
_audit_creation_method            fapswitch 2.2
_symmetry_space_group_name_H-M    P1
_symmetry_Int_Tables_number       1
_space_group_crystal_system       triclinic
_cell_length_a                    15.704855
_cell_length_b                    8.971073
_cell_length_c                    8.129877
_cell_angle_alpha                 90.676826
_cell_angle_beta                  93.1803
_cell_angle_gamma                 91.470054
_cell_volume                      1143.17251212

loop_
_atom_site_label
_atom_site_type_symbol
_atom_type_description
_atom_site_fract_x
_atom_site_fract_y
_atom_site_fract_z
_atom_type_partial_charge
C1    C     C_1   0.499987 0.065109 0.499128 -0.194398
C2    C     C_3   0.988681 0.642059 0.592792 0.156892
C3    C     C_1   0.247992 0.488554 0.483638 -0.194604
C4    C     C_1   0.751546 0.524227 0.516395 -0.208746
C5    C     C_3   0.037392 0.502793 0.649983 0.048359
C6    C     C_3   0.962706 0.541671 0.343186 0.058983
C7    C     C_3   0.081943 0.501406 0.485498 -0.048766
C8    C     C_3   0.917649 0.539616 0.509741 -0.038193
C9    C     C_1   0.172460 0.488524 0.478699 -0.008458
C10   C     C_1   0.826863 0.538074 0.520120 -0.046047
C11   C     C_3   0.971009 0.219665 0.176550 -0.838258
C12   C     C_1   0.500094 0.934887 0.500885 -0.195073
C13   C     C_3   0.030374 0.890934 0.711733 -0.817974
C14   C     C_3   0.874666 0.171981 0.552745 -0.784861
C15   C     C_3   0.046831 0.869876 0.260582 -0.835612
C16   C     C_3   0.912695 0.568066 0.177595 -0.392627
C17   C     C_3   0.851515 0.699587 0.182373 -0.331562
C18   C     C_3   0.835187 0.767355 0.012726 -0.885577
C19   C     C_3   0.079121 0.457742 0.817345 -0.367349
C20   C     C_3   0.123498 0.582905 0.922686 -0.351169
C21   C     C_3   0.210286 0.630806 0.863338 -0.787826
C22   C     C_R   0.499865 0.217987 0.499371 0.931186
C23   C     C_R   0.500177 0.782012 0.500635 0.929975
C24   C     C_R   0.337273 0.495254 0.495270 0.897214
C25   C     C_R   0.662683 0.505012 0.504752 0.898664
C26   C     C_3   0.966775 0.400897 0.564099 0.127533
C27   C     C_3   0.034168 0.642487 0.429186 0.181236
C28   C     C_3   0.011332 0.401220 0.401026 0.181785
H1    H     H_    0.057689 0.187088 0.377391 0.232610
H2    H     H_    0.839774 0.097922 0.636099 0.232487
H3    H     H_    0.913856 0.099949 0.477861 0.244731
H4    H     H_    0.827347 0.231078 0.472765 0.246082
H5    H     H_    0.133025 0.803715 0.447512 0.230460
H6    H     H_    0.095766 0.953906 0.226934 0.243990
H7    H     H_    0.996583 0.926145 0.326194 0.242434
H8    H     H_    0.020075 0.817607 0.144919 0.262783
H9    H     H_    0.893714 0.825461 0.974124 0.269336
H10   H     H_    0.814747 0.679432 0.920390 0.274143
H11   H     H_    0.784116 0.850340 0.017921 0.252890
H12   H     H_    0.993350 0.118013 0.116074 0.245232
H13   H     H_    0.789034 0.659389 0.224260 0.233709
H14   H     H_    0.875820 0.787828 0.270422 0.228559
H15   H     H_    0.959035 0.583585 0.080943 0.208432
H16   H     H_    0.872345 0.467798 0.144806 0.196743
H17   H     H_    0.252536 0.533642 0.859509 0.271279
H18   H     H_    0.203644 0.681050 0.739764 0.248544
H19   H     H_    0.240476 0.715596 0.950112 0.242866
H20   H     H_    0.081673 0.679469 0.930799 0.242816
H21   H     H_    0.133854 0.541238 0.050399 0.232585
H22   H     H_    0.027590 0.412747 0.889436 0.159630
H23   H     H_    0.965098 0.302676 0.079352 0.233541
H24   H     H_    0.123587 0.365391 0.798966 0.207800
H25   H     H_    0.907382 0.197149 0.224120 0.247512
H26   H     H_    0.906966 0.807651 0.664946 0.232295
H27   H     H_    0.017233 0.958573 0.822235 0.244921
H28   H     H_    0.026967 0.964420 0.603467 0.252376
H29   H     H_    0.095764 0.848966 0.727614 0.251112
H30   H     H_    0.902260 0.308956 0.756581 0.225537
N1    N     N_1   0.500010 0.500000 0.073640 -0.034198
N2    N     N_1   0.499990 0.500000 0.926360 -0.034799
N3    N     N_2   0.032338 0.270768 0.305768 -0.290202
N4    N     N_2   0.967623 0.770251 0.691776 -0.311516
N5    N     N_2   0.928996 0.276109 0.649408 -0.302614
N6    N     N_2   0.086938 0.760356 0.363898 -0.293515
O1    O     O_R   0.500000 0.285340 0.636850 -0.614729
O2    O     O_R   0.500000 0.714660 0.363150 -0.615308
O3    O     O_R   0.500000 0.285340 0.363150 -0.614758
O4    O     O_R   0.500000 0.714660 0.636850 -0.614572
O5    O     O_R   0.376770 0.500000 0.636850 -0.622798
O6    O     O_R   0.623230 0.500000 0.363150 -0.618808
O7    O     O_R   0.376780 0.500000 0.363100 -0.611706
O8    O     O_R   0.623220 0.500000 0.636900 -0.613310
Zn1   Zn    Zn3+2 0.499990 0.500000 0.682780 0.983783
Zn2   Zn    Zn3+2 0.500010 0.500000 0.317220 0.986885

loop_
_geom_bond_atom_site_label_1
_geom_bond_atom_site_label_2
_ccdc_geom_bond_type
C23   O4    A    
O6    Zn2   S    
O7    Zn2   S    
C15   N6    S    
C5    C7    S    
C22   O1    A    
O5    Zn1   S    
C2    C27   S    
C3    C9    T    
C11   H25   S    
C6    C28   S    
C20   H21   S    
C8    C26   S    
C16   H16   S    
C15   H6    S    
C26   C28   S    
C6    C27   S    
N1    Zn2   S    
C14   H3    S    
C26   N5    S    
C13   H28   S    
C28   N3    S    
O4    Zn1   S    
C4    C25   S    
C18   H10   S    
C7    C27   S    
C1    C22   S    
C25   O8    A    
C21   H19   S    
C12   C23   S    
C3    C24   S    
C20   H20   S    
C1    C12   T    
C14   H2    S    
H5    N6    S    
C5    C19   S    
C14   N5    S    
C23   O2    A    
C15   H7    S    
C18   H9    S    
C24   O5    A    
C17   C18   S    
C17   H13   S    
C11   H12   S    
H1    N3    S    
C22   O3    A    
C16   H15   S    
C2    C5    S    
C11   H23   S    
C27   N6    S    
C13   N4    S    
C4    C10   T    
C5    C26   S    
O2    Zn2   S    
C19   H22   S    
N2    Zn1   S    
N1    N2    T    
C13   H29   S    
O1    Zn1   S    
C20   C21   S    
C7    C9    S    
C21   H18   S    
C14   H4    S    
H30   N5    S    
O3    Zn2   S    
C18   H11   S    
C17   H14   S    
O8    Zn1   S    
C6    C8    S    
C25   O6    A    
H26   N4    S    
C11   N3    S    
C15   H8    S    
C6    C16   S    
C19   H24   S    
C8    C10   S    
C2    C8    S    
C7    C28   S    
C19   C20   S    
C24   O7    A    
C2    N4    S    
C16   C17   S    
C13   H27   S    
C21   H17   S    
