data_mof_unit_49664.cif
_audit_creation_date              2012-10-26T20:25:02-0400
_audit_creation_method            fapswitch 2.2
_symmetry_space_group_name_H-M    P1
_symmetry_Int_Tables_number       1
_space_group_crystal_system       triclinic
_cell_length_a                    19.300004
_cell_length_b                    14.688651
_cell_length_c                    15.893429
_cell_angle_alpha                 89.299444
_cell_angle_beta                  89.793027
_cell_angle_gamma                 89.926718
_cell_volume                      4505.27482425

loop_
_atom_site_label
_atom_site_type_symbol
_atom_type_description
_atom_site_fract_x
_atom_site_fract_y
_atom_site_fract_z
_atom_type_partial_charge
C1    C     C_R   0.500527 0.500404 0.339858 0.545552
C2    C     C_3   0.469733 0.411888 0.051539 -0.084324
C3    C     C_3   0.464733 0.408880 0.950576 0.044167
C4    C     C_3   0.476045 0.597108 0.945073 0.047272
C5    C     C_1   0.504165 0.498095 0.748768 -0.070569
C6    C     C_3   0.508702 0.499597 0.082226 0.039627
C7    C     C_3   0.510087 0.498408 0.915849 0.101361
C8    C     C_R   0.632522 0.500035 0.500386 0.547389
C9    C     C_3   0.589205 0.490687 0.954577 0.037227
C10   C     C_3   0.584502 0.493181 0.052927 -0.176967
C11   C     C_1   0.508316 0.497502 0.824028 -0.089678
C12   C     C_R   0.929422 0.499011 0.500398 0.344243
C13   C     C_1   0.505479 0.500377 0.175144 -0.087596
C14   C     C_1   0.502885 0.500901 0.250516 -0.049210
C15   C     C_3   0.491434 0.052598 0.589962 -0.243692
C16   C     C_3   0.486005 0.946515 0.589249 -0.243099
C17   C     C_3   0.568865 0.054569 0.463576 -0.100599
C18   C     C_3   0.570623 0.946421 0.469679 -0.100781
C19   C     C_3   0.498317 0.092608 0.499131 0.013499
C20   C     C_3   0.497506 0.907678 0.498823 0.005514
C21   C     C_3   0.439379 0.948224 0.439232 -0.085142
C22   C     C_3   0.436716 0.056068 0.445016 -0.079229
C23   C     C_R   0.182353 0.577470 0.473631 -0.127091
C24   C     C_1   0.498150 0.804658 0.501168 0.104787
C25   C     C_1   0.498623 0.195425 0.500895 0.122200
C26   C     C_R   0.500478 0.499454 0.659847 0.544412
C27   C     C_R   0.367179 0.499975 0.499786 0.543414
C28   C     C_R   0.743963 0.528308 0.573130 -0.031118
C29   C     C_R   0.744298 0.472662 0.427602 -0.033857
C30   C     C_R   0.817096 0.529753 0.572190 -0.014221
C31   C     C_R   0.817338 0.469035 0.428909 -0.014139
C32   C     C_R   0.853354 0.498947 0.500613 -0.005345
C33   C     C_R   0.708277 0.500263 0.500447 0.028814
C34   C     C_R   0.182488 0.421545 0.525336 -0.128480
C35   C     C_R   0.069523 0.499335 0.499808 0.339687
C36   C     C_3   0.702993 0.553891 0.651270 -0.396762
C37   C     C_3   0.703713 0.451949 0.348370 -0.397738
C38   C     C_3   0.640760 0.566982 0.927621 -0.391959
C39   C     C_3   0.629565 0.403037 0.930594 -0.392677
C40   C     C_R   0.591655 0.097840 0.379070 0.036775
C41   C     C_R   0.644264 0.164543 0.378767 -0.092678
C42   C     C_R   0.667811 0.203686 0.303320 -0.111244
C43   C     C_R   0.638545 0.178488 0.227022 -0.106210
C44   C     C_R   0.586684 0.112573 0.225824 -0.112593
C45   C     C_R   0.254558 0.577282 0.473142 -0.143433
C46   C     C_R   0.563858 0.071879 0.300878 -0.076413
C47   C     C_R   0.610301 0.900742 0.397635 0.027683
C48   C     C_R   0.681916 0.918821 0.390556 -0.084919
C49   C     C_R   0.721813 0.879858 0.326954 -0.102305
C50   C     C_R   0.691155 0.821550 0.269522 -0.102209
C51   C     C_R   0.620619 0.802170 0.275747 -0.106457
C52   C     C_R   0.580248 0.841055 0.339114 -0.080118
C53   C     C_R   0.366118 0.097935 0.468297 0.040800
C54   C     C_R   0.327755 0.069887 0.539733 -0.069508
C55   C     C_R   0.262530 0.106999 0.556458 -0.110824
C56   C     C_R   0.254685 0.421731 0.525496 -0.141031
C57   C     C_R   0.234487 0.172820 0.502547 -0.110116
C58   C     C_R   0.271890 0.202344 0.432126 -0.109136
C59   C     C_R   0.337138 0.165445 0.415076 -0.093593
C60   C     C_R   0.367504 0.903297 0.438607 0.030325
C61   C     C_R   0.341305 0.846757 0.503846 -0.083000
C62   C     C_R   0.273130 0.814920 0.501463 -0.123282
C63   C     C_R   0.230645 0.836247 0.433209 -0.108643
C64   C     C_R   0.256236 0.889533 0.366953 -0.102508
C65   C     C_R   0.323976 0.922686 0.369500 -0.089348
C66   C     C_R   0.856261 0.562408 0.646041 0.044500
C67   C     C_R   0.291188 0.499701 0.499545 0.009363
C68   C     C_R   0.858068 0.655683 0.664138 -0.082641
C69   C     C_R   0.895363 0.686530 0.733425 -0.110812
C70   C     C_R   0.931085 0.624559 0.784785 -0.101767
C71   C     C_R   0.929547 0.531618 0.766963 -0.109013
C72   C     C_R   0.892246 0.500473 0.697800 -0.082778
C73   C     C_R   0.856552 0.434806 0.355355 0.045416
C74   C     C_R   0.856700 0.341414 0.337595 -0.086719
C75   C     C_R   0.893695 0.308942 0.268366 -0.112069
C76   C     C_R   0.930853 0.369394 0.216780 -0.102251
C77   C     C_R   0.931005 0.462443 0.234293 -0.109655
C78   C     C_R   0.145712 0.499486 0.499608 0.036255
C79   C     C_R   0.893931 0.495229 0.303351 -0.081575
C80   C     C_3   0.398768 0.610461 0.913622 -0.391643
C81   C     C_3   0.385943 0.415299 0.926441 -0.394779
C82   C     C_3   0.499906 0.324154 0.095946 -0.410490
C83   C     C_3   0.511820 0.675047 0.091108 -0.413859
C84   C     C_R   0.482039 0.310727 0.912775 0.048836
C85   C     C_R   0.447360 0.232275 0.946305 -0.102421
C86   C     C_R   0.455889 0.145410 0.913037 -0.120578
C87   C     C_R   0.497382 0.132801 0.842731 -0.111114
C88   C     C_R   0.529810 0.207222 0.805314 -0.117001
C89   C     C_3   0.477002 0.592062 0.046860 -0.082300
C90   C     C_R   0.521587 0.294327 0.838510 -0.093211
C91   C     C_R   0.508872 0.688931 0.906435 0.049016
C92   C     C_R   0.550792 0.694854 0.832449 -0.093339
C93   C     C_R   0.574514 0.777945 0.799630 -0.120110
C94   C     C_R   0.554363 0.859308 0.835765 -0.110438
C95   C     C_R   0.508280 0.857849 0.902926 -0.120812
C96   C     C_R   0.484491 0.774894 0.935694 -0.105675
Cu1   Cu    Cu3+1 0.500090 0.589920 0.499910 0.964322
Cu2   Cu    Cu3+1 0.500090 0.410080 0.499910 0.966087
H1    H     H_    0.525385 0.917494 0.633023 0.109754
H2    H     H_    0.155451 0.360913 0.546505 0.123185
H3    H     H_    0.281880 0.637175 0.450912 0.138956
H4    H     H_    0.281963 0.361318 0.546848 0.140428
H5    H     H_    0.422863 0.592499 0.070886 0.122364
H6    H     H_    0.416562 0.417607 0.078397 0.122620
H7    H     H_    0.614110 0.551078 0.079436 0.110623
H8    H     H_    0.609651 0.432635 0.082559 0.111644
H9    H     H_    0.666925 0.497849 0.668732 0.122568
H10   H     H_    0.735597 0.565975 0.707203 0.128419
H11   H     H_    0.672577 0.616745 0.638636 0.144618
H12   H     H_    0.537453 0.072192 0.627629 0.099486
H13   H     H_    0.671994 0.512191 0.330319 0.131074
H14   H     H_    0.736563 0.435630 0.293322 0.126777
H15   H     H_    0.668594 0.393499 0.360168 0.150309
H16   H     H_    0.692397 0.555320 0.956805 0.115547
H17   H     H_    0.650589 0.566976 0.858905 0.123521
H18   H     H_    0.626229 0.634605 0.951189 0.138168
H19   H     H_    0.605565 0.340190 0.954593 0.136149
H20   H     H_    0.639305 0.400264 0.861909 0.123862
H21   H     H_    0.681705 0.402019 0.960254 0.114292
H22   H     H_    0.667655 0.186172 0.437024 0.094561
H23   H     H_    0.608756 0.076866 0.509546 0.085062
H24   H     H_    0.709121 0.253311 0.303918 0.098340
H25   H     H_    0.656524 0.209388 0.168755 0.098525
H26   H     H_    0.564650 0.092075 0.166457 0.100125
H27   H     H_    0.525758 0.018846 0.296487 0.089675
H28   H     H_    0.706927 0.963852 0.434533 0.092078
H29   H     H_    0.776595 0.894850 0.322332 0.103110
H30   H     H_    0.722062 0.791180 0.220291 0.100690
H31   H     H_    0.597204 0.756692 0.231339 0.097525
H32   H     H_    0.526189 0.823123 0.341145 0.103924
H33   H     H_    0.346574 0.017348 0.581538 0.103447
H34   H     H_    0.604896 0.929985 0.524274 0.099518
H35   H     H_    0.233368 0.083921 0.610948 0.103725
H36   H     H_    0.183706 0.200788 0.515294 0.109194
H37   H     H_    0.250244 0.253802 0.390539 0.114919
H38   H     H_    0.364851 0.189499 0.359783 0.095707
H39   H     H_    0.371880 0.826923 0.557413 0.106233
H40   H     H_    0.253316 0.772961 0.552569 0.111592
H41   H     H_    0.177976 0.811179 0.431521 0.108065
H42   H     H_    0.223373 0.905914 0.313837 0.102019
H43   H     H_    0.342296 0.965380 0.318019 0.086808
H44   H     H_    0.830663 0.704204 0.624592 0.108914
H45   H     H_    0.446668 0.081515 0.380275 0.087414
H46   H     H_    0.896631 0.758467 0.747263 0.101766
H47   H     H_    0.959969 0.648556 0.838363 0.102092
H48   H     H_    0.957256 0.483723 0.806747 0.102618
H49   H     H_    0.891342 0.428342 0.684499 0.112399
H50   H     H_    0.828202 0.294054 0.377346 0.103769
H51   H     H_    0.893611 0.236927 0.254755 0.102993
H52   H     H_    0.959529 0.344142 0.163254 0.102061
H53   H     H_    0.959808 0.509156 0.194316 0.102047
H54   H     H_    0.894250 0.567440 0.316344 0.113386
H55   H     H_    0.358653 0.595709 0.961422 0.098008
H56   H     H_    0.458320 0.933809 0.375183 0.081307
H57   H     H_    0.383642 0.681234 0.897073 0.120508
H58   H     H_    0.389056 0.576415 0.853304 0.136837
H59   H     H_    0.355258 0.458342 0.968352 0.106666
H60   H     H_    0.378998 0.431815 0.858800 0.138195
H61   H     H_    0.356646 0.351203 0.935008 0.114232
H62   H     H_    0.458068 0.275547 0.112482 0.112889
H63   H     H_    0.540197 0.289706 0.058464 0.134813
H64   H     H_    0.524819 0.337040 0.157236 0.145167
H65   H     H_    0.474412 0.731192 0.100203 0.112660
H66   H     H_    0.528707 0.660453 0.156057 0.130914
H67   H     H_    0.446684 0.082703 0.623633 0.125741
H68   H     H_    0.559031 0.699012 0.057889 0.138869
H69   H     H_    0.410472 0.237809 0.997101 0.097741
H70   H     H_    0.428754 0.088021 0.940947 0.094501
H71   H     H_    0.503210 0.065783 0.816134 0.097065
H72   H     H_    0.561142 0.197728 0.749429 0.101864
H73   H     H_    0.548270 0.345684 0.803789 0.120327
H74   H     H_    0.567881 0.637690 0.797746 0.119277
H75   H     H_    0.608107 0.779031 0.744888 0.100743
H76   H     H_    0.572581 0.923408 0.809794 0.095302
H77   H     H_    0.489187 0.921200 0.928309 0.097871
H78   H     H_    0.435696 0.925929 0.616478 0.109739
H79   H     H_    0.443142 0.778761 0.981277 0.100275
H80   H     H_    0.155267 0.638143 0.452596 0.124144
N1    N     N_R   0.965024 0.419446 0.501118 -0.227397
N2    N     N_R   0.964694 0.578729 0.499337 -0.227536
N3    N     N_R   0.033933 0.419640 0.501070 -0.239961
N4    N     N_R   0.033599 0.578866 0.498820 -0.239828
N5    N     N_1   0.498600 0.724970 0.501390 -0.197475
N6    N     N_1   0.498600 0.275030 0.501390 -0.194684
O1    O     O_R   0.500080 0.575970 0.379360 -0.492061
O2    O     O_R   0.500080 0.424030 0.379360 -0.489846
O3    O     O_R   0.599930 0.575960 0.499920 -0.492227
O4    O     O_R   0.599930 0.424040 0.499920 -0.501246
O5    O     O_R   0.500070 0.575900 0.620490 -0.491906
O6    O     O_R   0.500070 0.424100 0.620490 -0.491086
O7    O     O_R   0.400220 0.575910 0.499940 -0.494702
O8    O     O_R   0.400220 0.424090 0.499940 -0.492021

loop_
_geom_bond_atom_site_label_1
_geom_bond_atom_site_label_2
_ccdc_geom_bond_type
C66   C68   A    
C83   H66   S    
C34   C56   A    
C93   C94   A    
C23   C45   A    
C36   H10   S    
C41   C42   A    
C46   H27   S    
C18   H34   S    
C95   C96   A    
Cu2   O6    S    
C18   C47   S    
C77   H53   S    
Cu1   Cu2   S    
C26   O6    A    
C80   H55   S    
C1    O2    A    
C8    O4    A    
C35   N4    A    
C15   C19   S    
C54   H33   S    
C27   O7    A    
C81   H61   S    
C74   H50   S    
C92   H74   S    
C4    C80   S    
C3    C7    S    
C69   C70   A    
C38   H16   S    
C31   C73   S    
C37   H15   S    
C15   C16   S    
C87   H71   S    
C29   C33   A    
C59   H38   S    
C9    C39   S    
C65   H43   S    
C7    C9    S    
C73   C74   A    
C6    C89   S    
C95   H77   S    
C92   C93   A    
C37   H14   S    
Cu2   O4    S    
C91   C96   A    
C66   C72   A    
C20   C24   S    
C53   C54   A    
C44   C46   A    
C68   C69   A    
C23   H80   S    
C90   H73   S    
C45   C67   A    
C34   H2    S    
C21   H56   S    
C68   H44   S    
C70   C71   A    
C76   H52   S    
C96   H79   S    
C9    C10   S    
C25   N6    T    
C4    C91   S    
C16   H78   S    
Cu1   O5    S    
C41   H22   S    
C13   C14   T    
C89   H5    S    
C24   N5    T    
C15   H12   S    
C2    C6    S    
C84   C90   A    
C4    C7    S    
C83   C89   S    
C26   O5    A    
N2    N4    A    
C80   H58   S    
C22   C53   S    
C77   C79   A    
C8    O3    A    
C53   C59   A    
C49   H29   S    
C83   H68   S    
C81   H59   S    
C74   C75   A    
C51   C52   A    
C85   H69   S    
C19   C22   S    
C86   H70   S    
C84   C85   A    
C21   C60   S    
Cu2   O8    S    
C91   C92   A    
Cu1   N5    S    
C86   C87   A    
C82   H64   S    
C88   H72   S    
C50   C51   A    
C58   C59   A    
C85   C86   A    
C51   H31   S    
C62   H40   S    
C63   C64   A    
C60   C61   A    
C69   H46   S    
C17   C40   S    
C38   H18   S    
C22   H45   S    
Cu1   O1    S    
C75   C76   A    
C36   H9    S    
C3    C81   S    
C62   C63   A    
C82   H62   S    
C7    C11   S    
C47   C48   A    
C2    H6    S    
C16   C20   S    
C71   H48   S    
C17   C18   S    
C73   C79   A    
C94   C95   A    
C70   H47   S    
C76   C77   A    
C30   C66   S    
C45   H3    S    
C94   H76   S    
C17   H23   S    
C48   C49   A    
C12   N2    A    
C88   C90   A    
C60   C65   A    
C55   C57   A    
C43   C44   A    
C57   H36   S    
C2    C82   S    
C50   H30   S    
C42   C43   A    
C40   C46   A    
C39   H20   S    
C43   H25   S    
C3    C84   S    
C42   H24   S    
C80   H57   S    
C4    C89   S    
C64   H42   S    
Cu1   O3    S    
C83   H65   S    
C54   C55   A    
C40   C41   A    
C81   H60   S    
C63   H41   S    
C31   C32   A    
C28   C33   A    
C16   H1    S    
C5    C11   T    
C47   C52   A    
C82   H63   S    
C1    O1    A    
C58   H37   S    
C35   N3    A    
C56   C67   A    
C35   C78   S    
C72   H49   S    
C52   H32   S    
C64   C65   A    
C28   C30   A    
C2    C3    S    
C56   H4    S    
C71   C72   A    
Cu2   O2    S    
C39   H19   S    
C34   C78   A    
C6    C13   S    
C30   C32   A    
C38   H17   S    
C61   H39   S    
C57   C58   A    
C75   H51   S    
C39   H21   S    
C93   H75   S    
C9    C38   S    
C17   C19   S    
C44   H26   S    
C18   C20   S    
C8    C33   S    
C23   C78   A    
Cu2   N6    S    
C61   C62   A    
C19   C25   S    
C55   H35   S    
C37   H13   S    
C27   C67   S    
C6    C10   S    
C48   H28   S    
C5    C26   S    
Cu1   O7    S    
C12   N1    A    
C20   C21   S    
C28   C36   S    
C87   C88   A    
C29   C31   A    
C49   C50   A    
C27   O8    A    
C29   C37   S    
C36   H11   S    
C10   H8    S    
C15   H67   S    
C10   H7    S    
C1    C14   S    
C21   C22   S    
C12   C32   S    
C79   H54   S    
N1    N3    A    
