data_mof_unit_45015.cif
_audit_creation_date              2012-12-10T17:29:14-0500
_audit_creation_method            fapswitch 2.2
_symmetry_space_group_name_H-M    P1
_symmetry_Int_Tables_number       1
_space_group_crystal_system       triclinic
_cell_length_a                    18.444243
_cell_length_b                    18.447816
_cell_length_c                    51.303111
_cell_angle_alpha                 90.054566
_cell_angle_beta                  89.991298
_cell_angle_gamma                 90.001649
_cell_volume                      17456.1832693

loop_
_atom_site_label
_atom_site_type_symbol
_atom_type_description
_atom_site_fract_x
_atom_site_fract_y
_atom_site_fract_z
_atom_type_partial_charge
C1    C     C_R   0.000014 0.500012 0.180076 0.753145
C2    C     C_R   0.000003 0.500263 0.819917 0.752965
C3    C     C_R   0.500982 0.999832 0.180071 0.787156
C4    C     C_R   0.499529 0.000031 0.819974 0.814303
C5    C     C_R   0.500011 0.999963 0.680010 0.773156
C6    C     C_R   0.499995 0.999983 0.319992 0.774953
C7    C     C_R   0.000351 0.499964 0.680081 0.755197
C8    C     C_R   0.999625 0.500019 0.319925 0.752272
C9    C     C_R   0.617474 0.928648 0.013154 -0.092410
C10   C     C_R   0.410523 0.097507 0.986805 -0.068419
C11   C     C_R   0.133505 0.519577 0.014002 -0.089229
C12   C     C_R   0.867622 0.519629 0.986173 -0.106876
C13   C     C_R   0.415177 0.101550 0.014304 -0.090982
C14   C     C_R   0.615661 0.927339 0.985589 -0.092287
C15   C     C_R   0.867310 0.512401 0.013575 -0.108582
C16   C     C_R   0.133414 0.525554 0.986506 -0.066404
C17   C     C_R   0.136762 0.531831 0.514959 -0.118494
C18   C     C_R   0.872757 0.536725 0.485126 -0.065777
C19   C     C_R   0.504156 0.132613 0.513808 -0.071321
C20   C     C_R   0.501250 0.866442 0.486169 -0.105812
C21   C     C_R   0.871028 0.540072 0.512722 -0.095695
C22   C     C_R   0.138499 0.532457 0.487384 -0.119974
C23   C     C_R   0.499570 0.866411 0.513709 -0.113904
C24   C     C_R   0.495738 0.132631 0.486328 -0.071532
C25   C     C_R   0.948620 0.474969 0.391026 0.462126
C26   C     C_R   0.058442 0.477946 0.609585 0.451292
C27   C     C_R   0.452944 0.952590 0.389956 0.431851
C28   C     C_R   0.454338 0.046337 0.609803 0.431504
C29   C     C_R   0.075251 0.503196 0.388493 0.463750
C30   C     C_R   0.930771 0.501948 0.610620 0.463152
C31   C     C_R   0.545816 0.046486 0.390218 0.425434
C32   C     C_R   0.547177 0.952432 0.610044 0.437323
C33   C     C_R   0.451378 0.967102 0.891093 0.420355
C34   C     C_R   0.548413 0.949476 0.110660 0.452128
C35   C     C_R   0.014684 0.442149 0.890718 0.434236
C36   C     C_R   0.022541 0.566268 0.110542 0.410547
C37   C     C_R   0.557634 0.045445 0.889088 0.409546
C38   C     C_R   0.441200 0.022696 0.109769 0.445960
C39   C     C_R   0.988328 0.571654 0.889169 0.426787
C40   C     C_R   0.977825 0.441880 0.109497 0.426738
C41   C     C_R   0.942585 0.478066 0.363553 -0.157783
C42   C     C_R   0.061832 0.480868 0.637104 -0.180852
C43   C     C_R   0.459896 0.946328 0.362635 -0.183457
C44   C     C_R   0.460343 0.052810 0.637157 -0.155372
C45   C     C_R   0.070761 0.510992 0.361191 -0.173466
C46   C     C_R   0.932236 0.508310 0.638040 -0.178887
C47   C     C_R   0.539844 0.052852 0.362861 -0.172764
C48   C     C_R   0.540101 0.946165 0.637355 -0.166393
C49   C     C_R   0.448592 0.963957 0.863602 -0.146326
C50   C     C_R   0.554456 0.957684 0.137847 -0.160500
C51   C     C_R   0.015520 0.439016 0.863142 -0.160456
C52   C     C_R   0.024144 0.564641 0.138089 -0.170278
C53   C     C_R   0.557020 0.041819 0.861589 -0.137598
C54   C     C_R   0.442159 0.028308 0.137273 -0.151477
C55   C     C_R   0.987172 0.569489 0.861612 -0.169335
C56   C     C_R   0.976129 0.440133 0.137062 -0.176780
C57   C     C_R   0.003485 0.499400 0.348667 -0.226241
C58   C     C_R   0.998773 0.499283 0.651315 -0.253999
C59   C     C_R   0.499933 0.999726 0.348904 -0.276385
C60   C     C_R   0.500108 0.999637 0.651101 -0.253446
C61   C     C_R   0.502410 0.000633 0.848813 -0.269179
C62   C     C_R   0.501043 0.998286 0.151295 -0.273100
C63   C     C_R   0.999961 0.502673 0.848695 -0.235558
C64   C     C_R   0.000099 0.501560 0.151283 -0.257548
C65   C     C_R   0.011143 0.502794 0.403759 0.005058
C66   C     C_R   0.996394 0.504259 0.596185 0.009880
C67   C     C_R   0.499111 0.999510 0.403837 0.049973
C68   C     C_R   0.501061 0.999345 0.596168 0.046332
C69   C     C_R   0.505321 0.007890 0.903644 0.072449
C70   C     C_R   0.503000 0.996424 0.096187 0.008355
C71   C     C_R   0.001584 0.508228 0.903555 0.067253
C72   C     C_R   0.000255 0.504898 0.096382 0.076941
C73   C     C_R   0.860163 0.640214 0.249867 0.923006
C74   C     C_R   0.140173 0.359878 0.750041 0.934518
C75   C     C_R   0.358768 0.859980 0.249767 0.926670
C76   C     C_R   0.640752 0.140587 0.750082 0.899751
C77   C     C_R   0.139865 0.359807 0.249880 0.923769
C78   C     C_R   0.859793 0.640092 0.750059 0.933224
C79   C     C_R   0.641220 0.140009 0.249777 0.925940
C80   C     C_R   0.359269 0.859386 0.750041 0.903584
C81   C     C_R   0.859840 0.360022 0.749949 0.923090
C82   C     C_R   0.139897 0.640494 0.249726 0.932943
C83   C     C_R   0.358921 0.140225 0.750236 0.924494
C84   C     C_R   0.640719 0.859306 0.249982 0.894014
C85   C     C_R   0.140093 0.640006 0.749993 0.931313
C86   C     C_R   0.860115 0.359514 0.249724 0.933209
C87   C     C_R   0.641119 0.859839 0.750246 0.923355
C88   C     C_R   0.359246 0.140626 0.249967 0.895952
C89   C     C_R   0.293919 0.615962 0.232005 -0.047947
C90   C     C_R   0.786026 0.309703 0.798798 -0.028220
C91   C     C_R   0.356157 0.268298 0.212149 -0.024470
C92   C     C_R   0.651582 0.736464 0.791124 -0.103338
C93   C     C_R   0.706079 0.384020 0.232099 -0.048286
C94   C     C_R   0.214061 0.691304 0.798978 -0.078379
C95   C     C_R   0.644071 0.731731 0.212023 -0.028803
C96   C     C_R   0.348674 0.264705 0.790888 -0.110714
C97   C     C_R   0.295973 0.387653 0.764445 -0.109302
C98   C     C_R   0.787917 0.693030 0.200694 -0.046528
C99   C     C_R   0.357515 0.730476 0.787265 -0.129734
C100  C     C_R   0.655209 0.257135 0.207436 -0.076509
C101  C     C_R   0.703909 0.612825 0.764902 -0.109032
C102  C     C_R   0.212453 0.307155 0.200706 -0.047996
C103  C     C_R   0.642361 0.270046 0.787316 -0.104952
C104  C     C_R   0.344792 0.742801 0.207379 -0.075694
C105  C     C_R   0.771895 0.140653 0.713929 -0.012764
C106  C     C_R   0.227658 0.852419 0.287890 -0.105669
C107  C     C_R   0.892318 0.795946 0.738557 -0.055387
C108  C     C_R   0.191499 0.287372 0.298555 -0.025987
C109  C     C_R   0.228578 0.858300 0.713556 -0.015018
C110  C     C_R   0.772203 0.147703 0.287921 -0.106305
C111  C     C_R   0.107832 0.203931 0.738406 -0.055461
C112  C     C_R   0.807741 0.711622 0.298600 -0.031935
C113  C     C_R   0.769441 0.855981 0.287584 -0.104274
C114  C     C_R   0.228815 0.147316 0.712084 -0.082578
C115  C     C_R   0.893299 0.203316 0.261417 -0.111789
C116  C     C_R   0.190937 0.714786 0.701152 -0.042279
C117  C     C_R   0.230000 0.143252 0.287262 -0.102514
C118  C     C_R   0.771488 0.852440 0.712161 -0.082125
C119  C     C_R   0.106633 0.796689 0.261361 -0.111343
C120  C     C_R   0.809697 0.283735 0.701174 -0.035287
C121  C     C_R   0.342884 0.609994 0.210787 -0.029641
C122  C     C_R   0.732946 0.311247 0.818859 -0.058884
C123  C     C_R   0.338186 0.290888 0.186634 -0.045359
C124  C     C_R   0.631400 0.666100 0.800008 -0.100457
C125  C     C_R   0.657116 0.389949 0.210891 -0.029828
C126  C     C_R   0.267290 0.690036 0.818893 -0.068310
C127  C     C_R   0.662296 0.709157 0.186505 -0.052274
C128  C     C_R   0.368411 0.335354 0.799692 -0.094761
C129  C     C_R   0.346228 0.396915 0.784992 -0.063950
C130  C     C_R   0.735532 0.692749 0.180416 -0.090735
C131  C     C_R   0.340405 0.707113 0.812790 -0.107161
C132  C     C_R   0.636838 0.326297 0.197020 -0.137356
C133  C     C_R   0.653460 0.604172 0.785442 -0.065977
C134  C     C_R   0.265053 0.307534 0.180495 -0.089413
C135  C     C_R   0.659775 0.294754 0.812679 -0.137530
C136  C     C_R   0.363184 0.673616 0.196942 -0.137621
C137  C     C_R   0.796872 0.156338 0.688469 -0.048545
C138  C     C_R   0.156614 0.872411 0.296123 -0.089449
C139  C     C_R   0.903096 0.848838 0.718920 -0.041156
C140  C     C_R   0.188913 0.234473 0.318634 -0.073100
C141  C     C_R   0.203731 0.841911 0.688124 -0.047929
C142  C     C_R   0.843216 0.127617 0.296126 -0.089138
C143  C     C_R   0.097187 0.150860 0.718786 -0.040929
C144  C     C_R   0.810388 0.764334 0.318777 -0.064344
C145  C     C_R   0.794643 0.837829 0.312824 -0.138827
C146  C     C_R   0.157798 0.127058 0.703863 -0.137020
C147  C     C_R   0.903992 0.151431 0.281336 -0.065294
C148  C     C_R   0.187944 0.768813 0.681476 -0.081727
C149  C     C_R   0.204830 0.161087 0.312544 -0.139490
C150  C     C_R   0.842568 0.872506 0.703942 -0.136923
C151  C     C_R   0.095872 0.848570 0.281309 -0.065195
C152  C     C_R   0.812867 0.229210 0.681648 -0.087742
C153  C     C_R   0.304455 0.745899 0.230997 0.050528
C154  C     C_R   0.699491 0.251971 0.770012 0.061328
C155  C     C_R   0.233841 0.287384 0.226464 0.046276
C156  C     C_R   0.734041 0.682492 0.760523 0.062604
C157  C     C_R   0.695505 0.254091 0.231057 0.050438
C158  C     C_R   0.300308 0.748335 0.769983 0.062057
C159  C     C_R   0.766269 0.712619 0.226458 0.047765
C160  C     C_R   0.266037 0.317838 0.760231 0.065570
C161  C     C_R   0.306736 0.257768 0.767686 0.068534
C162  C     C_R   0.700584 0.749129 0.229675 0.024546
C163  C     C_R   0.234830 0.711587 0.773240 0.038601
C164  C     C_R   0.736102 0.315015 0.237661 0.040759
C165  C     C_R   0.693499 0.742804 0.767900 0.068312
C166  C     C_R   0.299478 0.250827 0.229707 0.024316
C167  C     C_R   0.764752 0.289159 0.773138 0.016529
C168  C     C_R   0.263876 0.684978 0.237595 0.041108
C169  C     C_R   0.788690 0.264291 0.726964 0.049610
C170  C     C_R   0.177368 0.768763 0.257341 0.062190
C171  C     C_R   0.762916 0.810653 0.735189 0.063531
C172  C     C_R   0.248290 0.200002 0.269860 0.049559
C173  C     C_R   0.211556 0.735036 0.726927 0.047560
C174  C     C_R   0.822578 0.231290 0.257399 0.061029
C175  C     C_R   0.237276 0.189332 0.735094 0.064465
C176  C     C_R   0.751214 0.799454 0.270040 0.049657
C177  C     C_R   0.787946 0.733960 0.273007 0.022089
C178  C     C_R   0.178535 0.232191 0.742135 0.034680
C179  C     C_R   0.763629 0.189011 0.264762 0.074755
C180  C     C_R   0.247899 0.800600 0.730358 0.013219
C181  C     C_R   0.211521 0.265447 0.272925 0.021405
C182  C     C_R   0.821578 0.767777 0.742258 0.035238
C183  C     C_R   0.236277 0.811102 0.264707 0.074872
C184  C     C_R   0.752377 0.198813 0.730545 0.012970
C185  C     C_R   0.299831 0.805836 0.248612 -0.092295
C186  C     C_R   0.697541 0.197184 0.750239 -0.084278
C187  C     C_R   0.195300 0.303956 0.249710 -0.096181
C188  C     C_R   0.804814 0.696751 0.750840 -0.091115
C189  C     C_R   0.700119 0.194198 0.248655 -0.091755
C190  C     C_R   0.302477 0.802732 0.750134 -0.085478
C191  C     C_R   0.804602 0.695901 0.249724 -0.096223
C192  C     C_R   0.195207 0.303299 0.750699 -0.090712
C193  C     C_R   0.300939 0.195484 0.751055 -0.094926
C194  C     C_R   0.697511 0.802586 0.249913 -0.086551
C195  C     C_R   0.195756 0.695665 0.750043 -0.101105
C196  C     C_R   0.805988 0.301953 0.248338 -0.089083
C197  C     C_R   0.699235 0.804735 0.751146 -0.093609
C198  C     C_R   0.302328 0.197197 0.249851 -0.086220
C199  C     C_R   0.804072 0.304413 0.749962 -0.095661
C200  C     C_R   0.194000 0.698058 0.248306 -0.087391
C201  C     C_R   0.476165 0.063014 0.055220 0.580191
C202  C     C_R   0.554197 0.963938 0.944410 0.605671
C203  C     C_R   0.936174 0.515456 0.055295 0.643034
C204  C     C_R   0.065670 0.514612 0.944725 0.632120
C205  C     C_R   0.571882 0.981525 0.054624 0.625733
C206  C     C_R   0.464758 0.056910 0.944894 0.644907
C207  C     C_R   0.064309 0.501522 0.055132 0.598365
C208  C     C_R   0.936696 0.510068 0.944623 0.639863
C209  C     C_R   0.938589 0.544989 0.554594 0.567117
C210  C     C_R   0.071394 0.540262 0.445472 0.623314
C211  C     C_R   0.486410 0.936826 0.554772 0.646236
C212  C     C_R   0.482866 0.061866 0.445198 0.593129
C213  C     C_R   0.064066 0.537271 0.555927 0.631128
C214  C     C_R   0.945450 0.537515 0.444129 0.615630
C215  C     C_R   0.517261 0.061797 0.554866 0.593310
C216  C     C_R   0.514094 0.936987 0.445170 0.647667
C217  C     C_R   0.568178 0.973187 0.027204 -0.069384
C218  C     C_R   0.461750 0.055703 0.972492 -0.062612
C219  C     C_R   0.066968 0.511528 0.027717 -0.090123
C220  C     C_R   0.934182 0.516426 0.972189 -0.037816
C221  C     C_R   0.468225 0.060088 0.027743 -0.092486
C222  C     C_R   0.561938 0.967629 0.971899 -0.080182
C223  C     C_R   0.933757 0.512712 0.027654 -0.037422
C224  C     C_R   0.067386 0.519025 0.972355 -0.061680
C225  C     C_R   0.069151 0.533250 0.528327 -0.039156
C226  C     C_R   0.940371 0.534841 0.471759 -0.066222
C227  C     C_R   0.506823 0.065749 0.527565 -0.109049
C228  C     C_R   0.503971 0.933273 0.472425 -0.036468
C229  C     C_R   0.936890 0.538429 0.527083 -0.098150
C230  C     C_R   0.072683 0.533808 0.472972 -0.042229
C231  C     C_R   0.496596 0.933203 0.527515 -0.038181
C232  C     C_R   0.493301 0.065790 0.472504 -0.108455
C233  C     C_R   0.515133 0.013667 0.013613 0.003703
C234  C     C_R   0.512697 0.012021 0.986022 -0.000428
C235  C     C_R   0.000453 0.513909 0.013810 -0.000032
C236  C     C_R   0.000672 0.516398 0.986136 -0.015643
C237  C     C_R   0.003803 0.531969 0.513838 0.002818
C238  C     C_R   0.005578 0.531332 0.486240 -0.020346
C239  C     C_R   0.500816 0.999540 0.513742 -0.002971
C240  C     C_R   0.499534 0.999568 0.486262 -0.005265
N1    N     N_R   0.514681 0.010620 0.068143 -0.320847
N2    N     N_R   0.508132 0.009636 0.931724 -0.319360
N3    N     N_R   0.000181 0.506807 0.068214 -0.323691
N4    N     N_R   0.001309 0.511121 0.931714 -0.332627
N5    N     N_R   0.999194 0.525043 0.568325 -0.323796
N6    N     N_R   0.009905 0.523272 0.431684 -0.332204
N7    N     N_R   0.501681 0.999290 0.567981 -0.321723
N8    N     N_R   0.498600 0.999428 0.432024 -0.321545
O1    O     O_3   1.000000 0.500000 0.250000 -0.503332
O2    O     O_3   1.000000 0.500000 0.750000 -0.501533
O3    O     O_3   0.500000 0.000000 0.250000 -0.487833
O4    O     O_3   0.500000 1.000000 0.750000 -0.490362
O5    O     O_R   0.060810 0.500000 0.192410 -0.634617
O6    O     O_R   0.939190 0.500000 0.807590 -0.634682
O7    O     O_R   0.500000 0.060810 0.192410 -0.633334
O8    O     O_R   0.500000 0.939190 0.807590 -0.666637
O9    O     O_R   0.939190 0.500000 0.192410 -0.633372
O10   O     O_R   0.060810 0.500000 0.807590 -0.632343
O11   O     O_R   0.500000 0.939190 0.192410 -0.645840
O12   O     O_R   0.500000 0.060810 0.807590 -0.652359
O13   O     O_R   0.560810 0.000000 0.692410 -0.635910
O14   O     O_R   0.439190 0.000000 0.307590 -0.658336
O15   O     O_R   0.000000 0.560810 0.692410 -0.630184
O16   O     O_R   0.000000 0.439190 0.307590 -0.636941
O17   O     O_R   0.439190 0.000000 0.692410 -0.636853
O18   O     O_R   0.560810 0.000000 0.307590 -0.658707
O19   O     O_R   1.000000 0.439190 0.692410 -0.641898
O20   O     O_R   0.000000 0.560810 0.307590 -0.624939
O21   O     O_R   0.853910 0.585600 0.235240 -0.641906
O22   O     O_R   0.146090 0.414400 0.764760 -0.649047
O23   O     O_R   0.414400 0.853910 0.235240 -0.650184
O24   O     O_R   0.585600 0.146090 0.764760 -0.656767
O25   O     O_R   0.146090 0.414400 0.235240 -0.642157
O26   O     O_R   0.853910 0.585600 0.764760 -0.653034
O27   O     O_R   0.585600 0.146090 0.235240 -0.650849
O28   O     O_R   0.414400 0.853910 0.764760 -0.657291
O29   O     O_R   0.853910 0.414400 0.764760 -0.663769
O30   O     O_R   0.146090 0.585600 0.235240 -0.640616
O31   O     O_R   0.414400 0.146090 0.764760 -0.650458
O32   O     O_R   0.585600 0.853910 0.235240 -0.640509
O33   O     O_R   0.146090 0.585600 0.764760 -0.662320
O34   O     O_R   0.853910 0.414400 0.235240 -0.639188
O35   O     O_R   0.585600 0.853910 0.764760 -0.649501
O36   O     O_R   0.414400 0.146090 0.235240 -0.637459
O37   O     O_R   0.353910 0.085600 0.735240 -0.657379
O38   O     O_R   0.646090 0.914400 0.264760 -0.654051
O39   O     O_R   0.914400 0.353910 0.735240 -0.642364
O40   O     O_R   0.085600 0.646090 0.264760 -0.651135
O41   O     O_R   0.646090 0.914400 0.735240 -0.658525
O42   O     O_R   0.353910 0.085600 0.264760 -0.654545
O43   O     O_R   0.085600 0.646090 0.735240 -0.643261
O44   O     O_R   0.914400 0.353910 0.264760 -0.652700
O45   O     O_R   0.353910 0.914400 0.264760 -0.658279
O46   O     O_R   0.646090 0.085600 0.735240 -0.636529
O47   O     O_R   0.914400 0.646090 0.264760 -0.664353
O48   O     O_R   0.085600 0.353910 0.735240 -0.643697
O49   O     O_R   0.646090 0.085600 0.264760 -0.657898
O50   O     O_R   0.353910 0.914400 0.735240 -0.636475
O51   O     O_R   0.085600 0.353910 0.264760 -0.664468
O52   O     O_R   0.914400 0.646090 0.735240 -0.639831
O53   O     O_2   0.451537 0.121043 0.068541 -0.482614
O54   O     O_2   0.591291 0.914764 0.930235 -0.518002
O55   O     O_2   0.875769 0.528431 0.069352 -0.470492
O56   O     O_2   0.127544 0.511087 0.930772 -0.474511
O57   O     O_2   0.635001 0.969026 0.067042 -0.477955
O58   O     O_2   0.426046 0.105659 0.931122 -0.488080
O59   O     O_2   0.124785 0.485897 0.068791 -0.501548
O60   O     O_2   0.875612 0.499917 0.930652 -0.468866
O61   O     O_2   0.883942 0.579244 0.566925 -0.470392
O62   O     O_2   0.127614 0.572214 0.433314 -0.459626
O63   O     O_2   0.460274 0.879357 0.568021 -0.482517
O64   O     O_2   0.456978 0.119141 0.431789 -0.519821
O65   O     O_2   0.121526 0.559895 0.569984 -0.482790
O66   O     O_2   0.888210 0.560321 0.429995 -0.483786
O67   O     O_2   0.542997 0.119116 0.568329 -0.516165
O68   O     O_2   0.540369 0.879627 0.431857 -0.485668
Zn1   Zn    Zn3+2 1.000000 0.586890 0.272200 1.025208
Zn2   Zn    Zn3+2 0.000000 0.413110 0.727800 1.032712
Zn3   Zn    Zn3+2 0.413110 0.000000 0.272200 0.984822
Zn4   Zn    Zn3+2 0.586890 0.000000 0.727800 1.016991
Zn5   Zn    Zn3+2 1.000000 0.413110 0.272200 1.019410
Zn6   Zn    Zn3+2 0.000000 0.586890 0.727800 1.039809
Zn7   Zn    Zn3+2 0.586890 0.000000 0.272200 0.984361
Zn8   Zn    Zn3+2 0.413110 0.000000 0.727800 1.019302
Zn9   Zn    Zn3+2 0.500000 0.086890 0.772200 0.998761
Zn10  Zn    Zn3+2 0.500000 0.913110 0.227800 1.013909
Zn11  Zn    Zn3+2 0.913110 0.500000 0.772200 1.021269
Zn12  Zn    Zn3+2 0.086890 0.500000 0.227800 1.038905
Zn13  Zn    Zn3+2 0.500000 0.913110 0.772200 0.989877
Zn14  Zn    Zn3+2 0.500000 0.086890 0.227800 1.020682
Zn15  Zn    Zn3+2 0.086890 0.500000 0.772200 1.024716
Zn16  Zn    Zn3+2 0.913110 0.500000 0.227800 1.040398
C241  C     C_2   0.020854 0.872185 0.287640 0.508423
H1    H     H_    0.985653 0.892532 0.272363 0.043298
O69   O     O_2   0.996824 0.866009 0.309703 -0.442385
C242  C     C_2   0.830564 0.249807 0.654298 0.428637
H2    H     H_    0.807764 0.298827 0.645981 0.100858
O70   O     O_2   0.872712 0.214263 0.641151 -0.509694
C243  C     C_2   0.196306 0.102722 0.332335 0.474974
H3    H     H_    0.232381 0.056276 0.332084 0.019273
O71   O     O_2   0.148357 0.105045 0.348727 -0.446875
C244  C     C_2   0.852901 0.912688 0.678899 0.426067
H4    H     H_    0.814031 0.907177 0.663203 0.121267
O72   O     O_2   0.904427 0.952982 0.675376 -0.556777
C245  C     C_2   0.978977 0.127726 0.287661 0.507626
H5    H     H_    0.014278 0.107591 0.272360 0.042466
O73   O     O_2   0.002865 0.133561 0.309757 -0.442474
C246  C     C_2   0.170676 0.747472 0.654153 0.419348
H6    H     H_    0.193610 0.698230 0.646025 0.095234
O74   O     O_2   0.128785 0.782676 0.640813 -0.516984
C247  C     C_2   0.803613 0.896022 0.332699 0.473529
H7    H     H_    0.767638 0.942548 0.332615 0.020722
O75   O     O_2   0.851859 0.893478 0.348966 -0.449113
C248  C     C_2   0.147606 0.086497 0.678868 0.425325
H8    H     H_    0.186245 0.092249 0.663108 0.121350
O76   O     O_2   0.096498 0.045572 0.675477 -0.556536
C249  C     C_2   0.022925 0.124936 0.712673 0.453113
H9    H     H_    0.011478 0.067337 0.711950 0.115300
O77   O     O_2   0.974417 0.167906 0.707839 -0.576787
C250  C     C_2   0.827670 0.743668 0.346082 0.524757
H10   H     H_    0.795929 0.765981 0.361994 0.102580
O78   O     O_2   0.879487 0.705002 0.351131 -0.534045
C251  C     C_2   0.199539 0.900354 0.668297 0.449400
H11   H     H_    0.153728 0.904227 0.655185 0.187011
O79   O     O_2   0.248410 0.944674 0.666312 -0.597719
C252  C     C_2   0.853054 0.082211 0.319863 0.455835
H12   H     H_    0.818741 0.090107 0.336780 0.079637
O80   O     O_2   0.898433 0.034082 0.320546 -0.459425
C253  C     C_2   0.977396 0.874757 0.712873 0.454365
H13   H     H_    0.988795 0.932361 0.712133 0.114675
O81   O     O_2   0.025981 0.831783 0.708106 -0.576099
C254  C     C_2   0.171686 0.254891 0.345990 0.540666
H14   H     H_    0.203675 0.232691 0.361838 0.109676
O82   O     O_2   0.119685 0.293236 0.351147 -0.528384
C255  C     C_2   0.800760 0.097442 0.668772 0.448288
H15   H     H_    0.846426 0.093162 0.655604 0.187731
O83   O     O_2   0.751744 0.053223 0.666943 -0.598948
C256  C     C_2   0.146707 0.917678 0.319923 0.454742
H16   H     H_    0.181248 0.909986 0.336783 0.078810
O84   O     O_2   0.100981 0.965466 0.320731 -0.458213
C257  C     C_2   0.601218 0.301848 0.832486 0.530763
H17   H     H_    0.555050 0.265427 0.831941 0.032028
O85   O     O_2   0.603111 0.348871 0.849237 -0.450751
C258  C     C_2   0.401146 0.667849 0.171363 0.380182
H18   H     H_    0.438581 0.709286 0.165113 0.105444
O86   O     O_2   0.389467 0.617261 0.156582 -0.476333
C259  C     C_2   0.628818 0.530005 0.792463 0.509630
H19   H     H_    0.606229 0.494594 0.777645 0.036864
O87   O     O_2   0.636459 0.506902 0.814588 -0.442034
C260  C     C_2   0.242156 0.322851 0.153162 0.480316
H20   H     H_    0.190539 0.302759 0.146044 0.081324
O88   O     O_2   0.279110 0.359767 0.138587 -0.498050
C261  C     C_2   0.398550 0.707147 0.832958 0.539553
H21   H     H_    0.444519 0.743414 0.830902 -0.023460
O89   O     O_2   0.396732 0.666850 0.851784 -0.412119
C262  C     C_2   0.598956 0.332014 0.171432 0.380465
H22   H     H_    0.561583 0.290542 0.165145 0.102774
O90   O     O_2   0.610641 0.382600 0.156684 -0.474177
C263  C     C_2   0.370381 0.471353 0.791892 0.508816
H23   H     H_    0.393677 0.506271 0.777085 0.036726
O91   O     O_2   0.361473 0.495221 0.813867 -0.434911
C264  C     C_2   0.758786 0.677824 0.153073 0.484258
H24   H     H_    0.810636 0.697746 0.146121 0.081311
O92   O     O_2   0.721850 0.641484 0.138286 -0.496879
C265  C     C_2   0.605537 0.708398 0.166056 0.431470
H25   H     H_    0.599049 0.662141 0.153247 0.169195
O93   O     O_2   0.565698 0.760655 0.163288 -0.591796
C266  C     C_2   0.412199 0.344034 0.823904 0.449168
H26   H     H_    0.403606 0.308408 0.840407 0.076986
O94   O     O_2   0.459455 0.390129 0.825527 -0.467229
C267  C     C_2   0.626568 0.461276 0.203026 0.457574
H27   H     H_    0.570157 0.465095 0.197157 0.074307
O95   O     O_2   0.664758 0.515202 0.201664 -0.577645
C268  C     C_2   0.245246 0.672467 0.845918 0.507465
H28   H     H_    0.212541 0.710645 0.856909 0.093054
O96   O     O_2   0.260287 0.613747 0.855436 -0.424836
C269  C     C_2   0.395047 0.291068 0.166218 0.430118
H29   H     H_    0.401750 0.337022 0.153314 0.164809
O97   O     O_2   0.434706 0.238598 0.163573 -0.580154
C270  C     C_2   0.587054 0.658126 0.824120 0.452927
H30   H     H_    0.596247 0.693357 0.840715 0.077113
O98   O     O_2   0.538630 0.613192 0.825525 -0.469478
C271  C     C_2   0.373426 0.538651 0.202889 0.457244
H31   H     H_    0.429843 0.534808 0.197020 0.074772
O99   O     O_2   0.335224 0.484732 0.201498 -0.578063
C272  C     C_2   0.753055 0.327536 0.846318 0.537340
H32   H     H_    0.730928 0.294781 0.861978 0.137474
O100  O     O_2   0.791113 0.379497 0.851782 -0.537799
C273  C     C_2   0.285765 0.555432 0.251124 0.494553
H33   H     H_    0.299549 0.500164 0.246115 0.134118
O101  O     O_2   0.265730 0.567397 0.273413 -0.529525
C274  C     C_2   0.864283 0.314724 0.805689 0.434745
H34   H     H_    0.883209 0.352300 0.820371 0.106756
O102  O     O_2   0.908603 0.275205 0.795171 -0.562701
C275  C     C_2   0.430695 0.283542 0.222084 0.509605
H35   H     H_    0.475734 0.290962 0.208786 0.030429
O103  O     O_2   0.442025 0.290738 0.245407 -0.555592
C276  C     C_2   0.640021 0.800446 0.808369 0.481244
H36   H     H_    0.593326 0.803421 0.821169 0.028710
O104  O     O_2   0.683261 0.850597 0.808512 -0.539288
C277  C     C_2   0.714255 0.444577 0.251242 0.495022
H37   H     H_    0.700487 0.499841 0.246262 0.135210
O105  O     O_2   0.734291 0.432631 0.273521 -0.531640
C278  C     C_2   0.136478 0.682014 0.806305 0.440117
H38   H     H_    0.121325 0.645793 0.822034 0.067680
O106  O     O_2   0.089071 0.716910 0.795454 -0.548573
C279  C     C_2   0.569417 0.716557 0.221858 0.510977
H39   H     H_    0.524466 0.709359 0.208508 0.030951
O107  O     O_2   0.557881 0.709185 0.245156 -0.555220
C280  C     C_2   0.360549 0.201092 0.808227 0.493304
H40   H     H_    0.407506 0.198377 0.820903 0.031131
O108  O     O_2   0.317292 0.150966 0.808582 -0.520923
C281  C     C_2   0.280542 0.448380 0.746079 0.480741
H41   H     H_    0.286916 0.504388 0.752087 0.070352
O109  O     O_2   0.261707 0.436082 0.723684 -0.513880
C282  C     C_2   0.865647 0.682172 0.193981 0.403912
H42   H     H_    0.881294 0.643359 0.179106 0.049236
O110  O     O_2   0.912719 0.718280 0.204512 -0.554390
C283  C     C_2   0.431605 0.715950 0.776791 0.509930
H43   H     H_    0.477536 0.709488 0.789664 0.031504
O111  O     O_2   0.441630 0.708703 0.753392 -0.545562
C284  C     C_2   0.647760 0.190861 0.190937 0.500539
H44   H     H_    0.604630 0.185591 0.176766 0.069735
O112  O     O_2   0.691078 0.141068 0.192874 -0.544645
C285  C     C_2   0.719128 0.551637 0.746669 0.482929
H45   H     H_    0.712895 0.495784 0.752843 0.068120
O113  O     O_2   0.737658 0.563358 0.724208 -0.511295
C286  C     C_2   0.134777 0.318014 0.193907 0.406375
H46   H     H_    0.119278 0.356771 0.179021 0.049773
O114  O     O_2   0.087580 0.281982 0.204381 -0.553272
C287  C     C_2   0.568047 0.283638 0.776900 0.509503
H47   H     H_    0.521911 0.288615 0.789782 0.021550
O115  O     O_2   0.557987 0.291481 0.753534 -0.546428
C288  C     C_2   0.352316 0.809046 0.190908 0.500636
H48   H     H_    0.395481 0.814268 0.176746 0.068777
O116  O     O_2   0.309025 0.858869 0.192859 -0.546103
C289  C     C_2   0.785940 0.067290 0.725081 0.508943
H49   H     H_    0.795095 0.021021 0.712559 0.070431
O117  O     O_2   0.790073 0.058350 0.748627 -0.562729
C290  C     C_2   0.289111 0.859007 0.306300 0.488624
H50   H     H_    0.293784 0.905184 0.319279 0.018440
O118  O     O_2   0.335018 0.811392 0.307224 -0.529670
C291  C     C_2   0.950948 0.779273 0.757713 0.494376
H51   H     H_    0.007227 0.791133 0.753489 0.132315
O119  O     O_2   0.936393 0.754257 0.779120 -0.537988
C292  C     C_2   0.187637 0.365857 0.305321 0.433187
H52   H     H_    0.151874 0.385293 0.320482 0.106506
O120  O     O_2   0.226216 0.409822 0.294181 -0.554036
C293  C     C_2   0.214403 0.931937 0.724497 0.510061
H53   H     H_    0.205868 0.977984 0.711850 0.071433
O121  O     O_2   0.209506 0.941372 0.748006 -0.559154
C294  C     C_2   0.710719 0.141038 0.306322 0.488324
H54   H     H_    0.706165 0.094909 0.319297 0.020508
O122  O     O_2   0.664635 0.188492 0.307240 -0.531666
C295  C     C_2   0.049078 0.220679 0.757520 0.495245
H55   H     H_    0.992838 0.208758 0.753251 0.133283
O123  O     O_2   0.063477 0.245820 0.778937 -0.535154
C296  C     C_2   0.811341 0.632941 0.305178 0.436926
H56   H     H_    0.846494 0.613003 0.320446 0.118317
O124  O     O_2   0.773071 0.589234 0.293749 -0.550911
C297  C     C_2   0.782733 0.930559 0.277459 0.532396
H57   H     H_    0.784302 0.976716 0.290416 0.016136
O125  O     O_2   0.793442 0.940882 0.254256 -0.550212
C298  C     C_2   0.290430 0.141104 0.693706 0.467350
H58   H     H_    0.296391 0.094065 0.681210 0.078726
O126  O     O_2   0.335253 0.189685 0.692410 -0.532856
C299  C     C_2   0.953593 0.222738 0.243376 0.483295
H59   H     H_    0.009741 0.217449 0.249338 0.075121
O127  O     O_2   0.940771 0.243716 0.221280 -0.515956
C300  C     C_2   0.181673 0.637198 0.693776 0.418684
H60   H     H_    0.143835 0.621754 0.678564 0.059709
O128  O     O_2   0.217892 0.589995 0.704186 -0.546264
C301  C     C_2   0.216829 0.068774 0.276961 0.529476
H61   H     H_    0.214479 0.022559 0.289843 0.016692
O129  O     O_2   0.207001 0.058612 0.253692 -0.550085
C302  C     C_2   0.709928 0.858487 0.693765 0.467985
H62   H     H_    0.703913 0.905469 0.681279 0.078735
O130  O     O_2   0.665216 0.809806 0.692439 -0.530602
C303  C     C_2   0.046400 0.777178 0.243303 0.482274
H63   H     H_    0.990233 0.782541 0.249241 0.075980
O131  O     O_2   0.059302 0.756052 0.221214 -0.516193
C304  C     C_2   0.819122 0.361023 0.693600 0.412636
H64   H     H_    0.857368 0.375869 0.678461 0.048301
O132  O     O_2   0.782666 0.408531 0.703760 -0.550811
C305  C     C_2   0.670098 0.880884 0.026835 0.656843
H65   H     H_    0.726933 0.881521 0.021361 0.059930
O133  O     O_2   0.649545 0.838028 0.043371 -0.432387
C306  C     C_2   0.346666 0.130536 0.973716 0.581390
H66   H     H_    0.335424 0.187928 0.975789 0.122590
O134  O     O_2   0.305123 0.092916 0.961033 -0.456541
C307  C     C_2   0.202731 0.530385 0.028410 0.535750
H67   H     H_    0.205575 0.569980 0.044040 0.136616
O135  O     O_2   0.256217 0.493997 0.023373 -0.510305
C308  C     C_2   0.797310 0.533056 0.972814 0.548492
H68   H     H_    0.751170 0.498000 0.976466 0.062039
O136  O     O_2   0.789702 0.585682 0.958652 -0.436210
C309  C     C_2   0.358805 0.142235 0.029079 0.537520
H69   H     H_    0.330812 0.116442 0.045188 0.155708
O137  O     O_2   0.344834 0.205252 0.023866 -0.514760
C310  C     C_2   0.672543 0.886063 0.971305 0.504523
H70   H     H_    0.704456 0.912755 0.956354 0.130553
O138  O     O_2   0.683041 0.821909 0.975777 -0.492345
C311  C     C_2   0.796380 0.501448 0.026801 0.542767
H71   H     H_    0.751933 0.538779 0.023362 0.069621
O139  O     O_2   0.786260 0.448444 0.040574 -0.439671
C312  C     C_2   0.202082 0.546017 0.973248 0.585357
H72   H     H_    0.249688 0.511847 0.974878 0.125242
O140  O     O_2   0.206089 0.602595 0.960994 -0.464472
C313  C     C_2   0.206390 0.522769 0.529198 0.568714
H73   H     H_    0.251116 0.559608 0.525602 0.035313
O141  O     O_2   0.215144 0.472030 0.544121 -0.418043
C314  C     C_2   0.803383 0.527468 0.470802 0.596830
H74   H     H_    0.761065 0.568045 0.472295 0.112667
O142  O     O_2   0.792705 0.473287 0.457678 -0.441680
C315  C     C_2   0.506109 0.202777 0.528117 0.628506
H75   H     H_    0.470467 0.211517 0.544658 0.131472
O143  O     O_2   0.548552 0.250500 0.521865 -0.496060
C316  C     C_2   0.495622 0.795825 0.472259 0.527887
H76   H     H_    0.529732 0.750599 0.477951 0.058298
O144  O     O_2   0.450259 0.786767 0.455230 -0.436899
C317  C     C_2   0.800209 0.536281 0.526636 0.545566
H77   H     H_    0.793527 0.499299 0.542888 0.154258
O145  O     O_2   0.749826 0.575786 0.520640 -0.526235
C318  C     C_2   0.209748 0.523701 0.474106 0.582506
H78   H     H_    0.255518 0.557177 0.479708 0.039692
O146  O     O_2   0.218518 0.476691 0.457647 -0.425930
C319  C     C_2   0.505467 0.795790 0.527554 0.543112
H79   H     H_    0.471567 0.750427 0.521810 0.047432
O147  O     O_2   0.550825 0.786895 0.544591 -0.423718
C320  C     C_2   0.493521 0.202823 0.472090 0.629780
H80   H     H_    0.529145 0.211749 0.455562 0.131244
O148  O     O_2   0.450883 0.250359 0.478385 -0.492013
Cl1   Cl    Cl    0.888721 0.417616 0.408527 -0.372468
Cl2   Cl    Cl    0.120177 0.420400 0.592988 -0.376505
Cl3   Cl    Cl    0.384951 0.904778 0.407274 -0.407422
Cl4   Cl    Cl    0.387220 0.094302 0.592097 -0.459505
Cl5   Cl    Cl    0.153432 0.458130 0.400380 -0.372856
Cl6   Cl    Cl    0.853663 0.459079 0.596798 -0.486261
Cl7   Cl    Cl    0.612793 0.094630 0.407965 -0.468464
Cl8   Cl    Cl    0.615359 0.904728 0.592753 -0.390958
Cl9   Cl    Cl    0.390278 0.916862 0.910622 -0.413552
Cl10  Cl    Cl    0.570359 0.863133 0.097640 -0.369417
Cl11  Cl    Cl    0.025553 0.363518 0.910066 -0.429754
Cl12  Cl    Cl    0.043917 0.646034 0.092997 -0.465103
Cl13  Cl    Cl    0.625676 0.093614 0.906202 -0.474226
Cl14  Cl    Cl    0.356004 0.024771 0.093676 -0.481017
Cl15  Cl    Cl    0.970439 0.652575 0.906599 -0.409174
Cl16  Cl    Cl    0.956161 0.364556 0.090600 -0.413203
C321  C     C_2   0.872826 0.460075 0.350323 0.559072
H81   H     H_    0.871822 0.445084 0.329888 0.062210
O149  O     O_2   0.815031 0.464343 0.361822 -0.437789
C322  C     C_2   0.131009 0.465212 0.651079 0.552845
H82   H     H_    0.130805 0.450125 0.671499 0.072384
O150  O     O_2   0.189553 0.471503 0.640206 -0.439807
C323  C     C_2   0.431078 0.881888 0.348421 0.545878
H83   H     H_    0.443401 0.874322 0.327968 0.075291
O151  O     O_2   0.396380 0.834459 0.359315 -0.428216
C324  C     C_2   0.430782 0.117183 0.651213 0.566264
H84   H     H_    0.443267 0.125410 0.671620 0.067649
O152  O     O_2   0.395078 0.163732 0.640256 -0.434530
C325  C     C_2   0.137057 0.528086 0.345707 0.573571
H85   H     H_    0.137654 0.521410 0.324709 0.047970
O153  O     O_2   0.191479 0.552084 0.356164 -0.432883
C326  C     C_2   0.864039 0.522178 0.652867 0.564742
H86   H     H_    0.861957 0.514378 0.673794 0.060649
O154  O     O_2   0.809726 0.544929 0.642006 -0.426855
C327  C     C_2   0.569651 0.117041 0.348801 0.546354
H87   H     H_    0.556646 0.125532 0.328455 0.075253
O155  O     O_2   0.606234 0.163098 0.359684 -0.434221
C328  C     C_2   0.568804 0.881687 0.651532 0.565895
H88   H     H_    0.556975 0.874432 0.672031 0.067609
O156  O     O_2   0.602805 0.833850 0.640553 -0.427453
C329  C     C_2   0.388501 0.924377 0.850325 0.524741
H89   H     H_    0.397321 0.896727 0.831988 0.042451
O157  O     O_2   0.327350 0.923725 0.859424 -0.457849
C330  C     C_2   0.617390 0.924874 0.151915 0.625762
H90   H     H_    0.620658 0.925691 0.172983 0.047444
O158  O     O_2   0.668516 0.898774 0.140045 -0.470894
C331  C     C_2   0.032014 0.370113 0.849004 0.581051
H91   H     H_    0.015586 0.363141 0.828868 0.047109
O159  O     O_2   0.066270 0.321151 0.859182 -0.436001
C332  C     C_2   0.048633 0.628866 0.153449 0.583882
H92   H     H_    0.028504 0.637635 0.173072 0.057675
O160  O     O_2   0.093254 0.671439 0.144849 -0.438249
C333  C     C_2   0.614626 0.078308 0.845954 0.549268
H93   H     H_    0.631648 0.055405 0.827448 0.053473
O161  O     O_2   0.642234 0.135126 0.853040 -0.538463
C334  C     C_2   0.380357 0.062314 0.151487 0.644808
H94   H     H_    0.368558 0.047337 0.171484 0.029033
O162  O     O_2   0.342996 0.108956 0.141273 -0.463671
C335  C     C_2   0.973531 0.636318 0.845941 0.542559
H95   H     H_    0.951646 0.632369 0.826377 0.081587
O163  O     O_2   0.988779 0.696496 0.854172 -0.448279
C336  C     C_2   0.951631 0.374156 0.151377 0.578923
H96   H     H_    0.971296 0.363393 0.170925 0.056482
O164  O     O_2   0.907563 0.332243 0.142001 -0.435820

loop_
_geom_bond_atom_site_label_1
_geom_bond_atom_site_label_2
_ccdc_geom_bond_type
O6    Zn11  S    
C283  H43   S    
C174  C196  A    
C249  H9    S    
C131  C261  S    
C37   C69   A    
C90   C167  A    
C267  O95   D    
C18   C21   A    
C225  C237  A    
O31   Zn9   S    
C91   C166  A    
C295  H55   S    
C319  H79   S    
O36   Zn14  S    
C290  H50   S    
C42   C58   A    
C21   C317  S    
C181  C187  A    
C211  O63   S    
C47   C327  S    
C321  H81   S    
C42   C322  S    
C45   C57   A    
C124  C133  A    
C81   O29   A    
C270  H30   S    
C262  O90   D    
O40   Zn1   S    
C115  C174  A    
C83   O31   A    
C212  C232  A    
C284  O112  D    
C69   N2    S    
C299  O127  D    
C320  O148  D    
C103  C287  S    
C80   O28   A    
C43   C323  S    
C254  H14   S    
C332  H92   S    
C250  H10   S    
C146  C248  S    
C99   C283  S    
C307  H67   S    
C318  O146  D    
C306  H66   S    
C317  O145  D    
C39   Cl15  S    
C8    O16   A    
C264  O92   D    
C33   C69   A    
C215  N7    A    
C169  C199  A    
C94   C126  A    
C35   C71   A    
C4    O12   A    
C85   O33   A    
C268  O96   D    
C331  O159  D    
C72   N3    S    
C102  C286  S    
O2    Zn6   S    
C105  C289  S    
C2    O6    A    
C330  H90   S    
C30   C66   A    
O7    Zn14  S    
C120  C152  A    
C123  C134  A    
C103  C135  A    
C77   O25   A    
C25   C41   A    
C244  H4    S    
C302  H62   S    
C260  O88   D    
C122  C272  S    
C241  H1    S    
C4    C61   S    
C28   C44   A    
C29   C45   A    
O33   Zn15  S    
C93   C277  S    
O2    Zn15  S    
C31   C67   A    
C166  C198  A    
C8    C57   S    
C22   C230  A    
O21   Zn16  S    
C89   C273  S    
O51   Zn5   S    
C150  C244  S    
C326  O154  D    
C296  H56   S    
C25   C65   A    
C17   C313  S    
C15   C311  S    
C218  C234  A    
C274  H34   S    
C266  O94   D    
C202  O54   S    
C328  O156  D    
C153  C168  A    
C35   C51   A    
C257  H17   S    
C88   O42   A    
C154  C167  A    
C16   C224  A    
C229  C237  A    
C259  H19   S    
C227  C239  A    
C298  H58   S    
C263  O91   D    
C316  H76   S    
C222  C234  A    
O27   Zn14  S    
C114  C298  S    
C17   C22   A    
C242  H2    S    
C258  O86   D    
C255  H15   S    
C100  C132  A    
C101  C133  A    
C138  C151  A    
C216  N8    A    
C261  H21   S    
C139  C150  A    
C95   C279  S    
C144  C145  A    
C96   C280  S    
C26   Cl2   S    
C289  O117  D    
C155  C187  A    
C265  H25   S    
C151  C241  S    
C117  C172  A    
C288  H48   S    
C118  C171  A    
C139  C253  S    
C112  C296  S    
C246  H6    S    
C244  O72   D    
C126  C268  S    
C105  C184  A    
C292  H52   S    
C121  C271  S    
C106  C183  A    
C119  C151  A    
C47   C59   A    
C305  O133  D    
C125  C267  S    
C313  O141  D    
C79   C189  S    
C39   C71   A    
C308  H68   S    
C117  C149  A    
C301  O129  D    
C325  H85   S    
O3    Zn3   S    
C94   C163  A    
C12   C220  A    
C111  C295  S    
C36   Cl12  S    
C275  O103  D    
C280  O108  D    
C65   N6    S    
C50   C330  S    
C12   C308  S    
O52   Zn6   S    
C327  H87   S    
C201  C221  A    
C212  N8    A    
C128  C129  A    
O4    Zn8   S    
C74   O22   A    
O48   Zn2   S    
O49   Zn7   S    
O18   Zn7   S    
C31   Cl7   S    
C154  C186  A    
C104  C288  S    
C216  C228  A    
C115  C299  S    
C89   C121  A    
C116  C173  A    
C28   C68   A    
C71   N4    S    
C228  C240  A    
C287  O115  D    
O1    Zn1   S    
C3    O11   A    
C120  C169  A    
C46   C326  S    
C113  C145  A    
C263  H23   S    
C202  N2    A    
C334  H94   S    
C118  C150  A    
C211  N7    A    
C19   C227  A    
C300  O128  D    
C86   C196  S    
C206  O58   S    
C17   C225  A    
C100  C157  A    
C323  H83   S    
C84   C194  S    
C282  H42   S    
C140  C254  S    
C54   C334  S    
C6    O18   A    
O34   Zn16  S    
C56   C64   A    
C172  C198  A    
C129  C263  S    
C104  C153  A    
C45   C325  S    
C233  C234  A    
C210  O62   S    
C36   C52   A    
C43   C59   A    
C77   O51   A    
C16   C312  S    
C314  O142  D    
C35   Cl11  S    
C91   C123  A    
C237  C238  A    
C46   C58   A    
O50   Zn8   S    
O39   Zn2   S    
C162  C194  A    
C82   O30   A    
C205  N1    A    
C88   O36   A    
O12   Zn9   S    
C269  O97   D    
C53   C333  S    
C241  O69   D    
O46   Zn4   S    
C335  O163  D    
O47   Zn1   S    
C26   C66   A    
C219  C235  A    
C85   C195  S    
C295  O123  D    
C215  O67   S    
C136  C258  S    
C40   Cl16  S    
O13   Zn4   S    
C278  H38   S    
C124  C270  S    
O14   Zn3   S    
C83   C193  S    
C213  N5    A    
C169  C184  A    
C95   C127  A    
C130  C264  S    
O37   Zn8   S    
C178  C192  A    
C103  C154  A    
C291  H51   S    
C179  C189  A    
C20   C23   A    
C235  C236  A    
C86   O34   A    
C161  C193  A    
C6    O14   A    
C25   Cl1   S    
C7    O19   A    
C293  O121  D    
C157  C164  A    
C27   Cl3   S    
C158  C163  A    
C29   C65   A    
C297  H57   S    
C132  C262  S    
C210  N6    A    
C336  O164  D    
C1    C64   S    
C11   C219  A    
C2    O10   A    
C2    C63   S    
C26   C42   A    
C264  H24   S    
C3    C62   S    
C9    C217  A    
C303  O131  D    
C287  H47   S    
C176  C177  A    
C79   O27   A    
C104  C136  A    
C5    C60   S    
C221  C233  A    
C6    C59   S    
C30   C46   A    
C106  C290  S    
O24   Zn9   S    
C13   C221  A    
C322  H82   S    
C259  O87   D    
C290  O118  D    
C164  C196  A    
C306  O134  D    
C309  O137  D    
O4    Zn13  S    
C214  C226  A    
C20   C228  A    
C141  C251  S    
C276  H36   S    
C176  C194  A    
C270  O98   D    
C256  H16   S    
O17   Zn8   S    
C10   C306  S    
C143  C249  S    
O15   Zn6   S    
C109  C180  A    
O3    Zn7   S    
C110  C179  A    
O41   Zn4   S    
C50   C62   A    
C84   O32   A    
O42   Zn3   S    
C285  O113  D    
C175  C193  A    
O28   Zn13  S    
C215  C227  A    
C107  C139  A    
C332  O160  D    
C27   C67   A    
C304  H64   S    
C105  C137  A    
C118  C302  S    
C286  H46   S    
O25   Zn12  S    
C329  O157  D    
C317  H77   S    
C142  C252  S    
C167  C199  A    
C31   C47   A    
C333  O161  D    
C140  C149  A    
O35   Zn13  S    
C36   C72   A    
C253  O81   D    
C143  C146  A    
C5    O13   A    
C38   C70   A    
C329  H89   S    
C252  O80   D    
C239  C240  A    
O19   Zn2   S    
C13   C309  S    
C79   O49   A    
C330  O158  D    
C271  O99   D    
C211  C231  A    
C108  C181  A    
C311  H71   S    
C14   C222  A    
C310  H70   S    
C92   C124  A    
C70   N1    S    
C41   C321  S    
C324  O152  D    
C277  O105  D    
C272  H32   S    
C33   C49   A    
C115  C147  A    
O4    Zn4   S    
C294  H54   S    
C96   C128  A    
C312  H72   S    
O30   Zn12  S    
C281  O109  D    
C252  H12   S    
C84   O38   A    
C92   C165  A    
C39   C55   A    
C247  H7    S    
C1    O5    A    
C40   C56   A    
C296  O124  D    
C251  H11   S    
C137  C152  A    
C81   O39   A    
C33   Cl9   S    
C245  O73   D    
C82   O40   A    
C34   C70   A    
O38   Zn7   S    
C83   O37   A    
C8    O20   A    
C32   Cl8   S    
C274  O102  D    
C249  O77   D    
C92   C276  S    
C304  O132  D    
C32   C48   A    
C142  C147  A    
O1    Zn5   S    
C204  N4    A    
C298  O126  D    
O2    Zn2   S    
C175  C178  A    
C1    O9    A    
O8    Zn13  S    
C156  C188  A    
C316  O144  D    
C49   C61   A    
C107  C182  A    
C279  H39   S    
C97   C160  A    
C159  C191  A    
C212  O64   S    
C51   C63   A    
C262  H22   S    
C160  C192  A    
C4    O8    A    
C302  O130  D    
C52   C64   A    
C116  C148  A    
C284  H44   S    
C54   C62   A    
C101  C156  A    
C320  H80   S    
C273  H33   S    
C91   C275  S    
C56   C336  S    
C9    C14   A    
O1    Zn12  S    
C76   O46   A    
C313  H73   S    
C145  C247  S    
C75   C185  S    
C165  C197  A    
C283  O111  D    
C11   C16   A    
C288  O116  D    
C243  H3    S    
C38   C54   A    
C12   C15   A    
C163  C195  A    
C205  C217  A    
C98   C130  A    
C246  O74   D    
C210  C230  A    
C159  C162  A    
C203  C223  A    
C134  C260  S    
C116  C300  S    
C292  O120  D    
C30   Cl6   S    
C113  C176  A    
C29   Cl5   S    
C242  O70   D    
C114  C175  A    
C323  O151  D    
C94   C278  S    
C319  O147  D    
C268  H28   S    
C308  O136  D    
C87   C197  S    
C217  C233  A    
C90   C274  S    
O4    Zn9   S    
C22   C318  S    
C333  H93   S    
C38   Cl14  S    
O26   Zn11  S    
O23   Zn10  S    
C37   Cl13  S    
C168  C200  A    
C300  H60   S    
C307  O135  D    
O44   Zn5   S    
C128  C266  S    
C119  C303  S    
C208  N4    A    
C24   C232  A    
C81   C199  S    
C321  O149  D    
C335  H95   S    
C327  O155  D    
C214  O66   S    
C260  H20   S    
C147  C245  S    
C99   C131  A    
C48   C328  S    
C173  C180  A    
C177  C191  A    
O43   Zn6   S    
C158  C190  A    
C19   C24   A    
C224  C236  A    
C144  C250  S    
C41   C57   A    
C279  O107  D    
C75   O45   A    
C180  C190  A    
C135  C257  S    
C75   O23   A    
C156  C165  A    
C44   C60   A    
C76   O24   A    
C310  O138  D    
C326  H86   S    
C87   O41   A    
C184  C186  A    
C121  C136  A    
C15   C223  A    
C87   O35   A    
C122  C135  A    
C120  C304  S    
C97   C129  A    
C27   C43   A    
C266  H26   S    
C282  O110  D    
C328  H88   S    
C267  H27   S    
C257  O85   D    
C14   C310  S    
C182  C188  A    
C20   C316  S    
O10   Zn15  S    
C109  C293  S    
C112  C177  A    
C66   N5    S    
C208  C220  A    
C226  C238  A    
C170  C183  A    
C117  C301  S    
C202  C222  A    
C171  C182  A    
C209  O61   S    
C315  H75   S    
C258  H18   S    
C250  O78   D    
C269  H29   S    
O32   Zn10  S    
C299  H59   S    
C89   C168  A    
C55   C335  S    
C206  C218  A    
C261  O89   D    
C289  H49   S    
C153  C185  A    
O29   Zn11  S    
C208  O60   S    
C278  O106  D    
C183  C185  A    
C49   C329  S    
C106  C138  A    
C265  O93   D    
C203  N3    A    
C155  C166  A    
C201  N1    A    
C96   C161  A    
C231  C239  A    
C301  H61   S    
C110  C142  A    
C18   C314  S    
C9    C305  S    
C18   C226  A    
C141  C148  A    
C251  O79   D    
O5    Zn12  S    
C254  O82   D    
C44   C324  S    
C173  C195  A    
C111  C178  A    
C331  H91   S    
C311  O139  D    
O2    Zn11  S    
C325  O153  D    
C293  H53   S    
C7    C58   S    
C312  O140  D    
O3    Zn14  S    
C80   O50   A    
C11   C307  S    
C280  H40   S    
C21   C229  A    
O16   Zn5   S    
C40   C72   A    
C127  C265  S    
C213  O65   S    
C90   C122  A    
C206  N2    A    
C53   C61   A    
C113  C297  S    
C172  C181  A    
C19   C315  S    
C48   C60   A    
C276  O104  D    
C255  O83   D    
O45   Zn3   S    
C201  O53   S    
C85   O43   A    
C111  C143  A    
C34   C50   A    
C86   O44   A    
C273  O101  D    
C203  O55   S    
C204  O56   S    
O11   Zn10  S    
C213  C225  A    
C114  C146  A    
C322  O150  D    
C95   C162  A    
C271  H31   S    
C108  C140  A    
C100  C284  S    
C93   C164  A    
C68   N7    S    
C152  C242  S    
C101  C285  S    
C149  C243  S    
C55   C63   A    
C88   C198  S    
C102  C134  A    
C82   C200  S    
C247  O75   D    
C207  N3    A    
C3    O7    A    
C67   N8    S    
O3    Zn10  S    
C52   C332  S    
C5    O17   A    
C309  H69   S    
C285  H45   S    
C209  N5    A    
C123  C269  S    
C214  N6    A    
C108  C292  S    
C7    O15   A    
C315  O143  D    
C73   C191  S    
C223  C235  A    
C74   C192  S    
C28   Cl4   S    
C51   C331  S    
C314  H74   S    
C243  O71   D    
C93   C125  A    
C286  O114  D    
C248  H8    S    
C248  O76   D    
C297  O125  D    
C77   C187  S    
C230  C238  A    
C78   C188  S    
C133  C259  S    
C76   C186  S    
C318  H78   S    
C10   C218  A    
C253  H13   S    
C303  H63   S    
C34   Cl10  S    
C291  O119  D    
O9    Zn16  S    
C80   C190  S    
C220  C236  A    
O1    Zn16  S    
C10   C13   A    
C107  C291  S    
C109  C141  A    
C23   C319  S    
C98   C282  S    
C207  C219  A    
C334  O162  D    
C32   C68   A    
C73   O47   A    
O22   Zn15  S    
C112  C144  A    
C74   O48   A    
C245  H5    S    
C127  C130  A    
C37   C53   A    
C171  C197  A    
C73   O21   A    
O20   Zn1   S    
C125  C132  A    
C277  H37   S    
C272  O100  D    
C126  C131  A    
C102  C155  A    
C78   O52   A    
C324  H84   S    
C110  C294  S    
C148  C246  S    
C207  O59   S    
C205  O57   S    
C23   C231  A    
C281  H41   S    
C137  C255  S    
C160  C161  A    
C157  C189  A    
C209  C229  A    
C119  C170  A    
C275  H35   S    
C97   C281  S    
C170  C200  A    
C216  O68   S    
C98   C159  A    
C78   O26   A    
C24   C320  S    
C99   C158  A    
C232  C240  A    
C294  O122  D    
C336  H96   S    
C305  H65   S    
C256  O84   D    
C174  C179  A    
C204  C224  A    
C138  C256  S    
