data_mof_unit_8544.cif
_audit_creation_date              2012-12-10T17:47:12-0500
_audit_creation_method            fapswitch 2.2
_symmetry_space_group_name_H-M    P1
_symmetry_Int_Tables_number       1
_space_group_crystal_system       triclinic
_cell_length_a                    11.68693
_cell_length_b                    14.842225
_cell_length_c                    14.759711
_cell_angle_alpha                 64.398896
_cell_angle_beta                  104.902522
_cell_angle_gamma                 102.628426
_cell_volume                      2214.16903312

loop_
_atom_site_label
_atom_site_type_symbol
_atom_type_description
_atom_site_fract_x
_atom_site_fract_y
_atom_site_fract_z
_atom_type_partial_charge
C1    C     C_R   0.482827 0.119523 0.311816 0.818314
C2    C     C_R   0.513624 0.880769 0.687617 0.806580
C3    C     C_R   0.468096 0.325443 0.996960 0.038778
C4    C     C_R   0.469972 0.673261 0.991244 0.017630
C5    C     C_R   0.470724 0.464885 0.046286 0.009632
C6    C     C_R   0.481248 0.534697 0.945421 0.010449
C7    C     C_R   0.477288 0.497297 0.871124 -0.204316
C8    C     C_R   0.454764 0.501111 0.115972 -0.207673
C9    C     C_R   0.469338 0.394823 0.895621 0.380673
C10   C     C_R   0.453304 0.602885 0.089231 0.375241
C11   C     C_R   0.732671 0.303290 0.631836 0.235540
C12   C     C_R   0.278056 0.702392 0.353588 0.261027
C13   C     C_R   0.682354 0.210894 0.624936 0.315536
C14   C     C_R   0.322869 0.792138 0.368261 0.303304
C15   C     C_R   0.508094 0.283059 0.514226 0.436746
C16   C     C_R   0.492045 0.716914 0.486534 0.434892
C17   C     C_R   0.545865 0.372311 0.533797 -0.118564
C18   C     C_R   0.456958 0.629000 0.464703 -0.128730
C19   C     C_R   0.665758 0.385299 0.582829 0.002916
C20   C     C_R   0.340348 0.618181 0.409686 0.010467
C21   C     C_R   0.474215 0.452612 0.499616 0.155135
C22   C     C_R   0.528564 0.548678 0.499722 0.156285
C23   C     C_R   0.284343 0.999964 0.500015 0.816353
C24   C     C_R   0.715704 0.999897 0.500250 0.824185
C25   C     C_R   0.653206 0.562687 0.528624 -0.144964
C26   C     C_R   0.349549 0.439708 0.469097 -0.120595
C27   C     C_R   0.718799 0.481700 0.576183 -0.072978
C28   C     C_R   0.286147 0.522083 0.416421 -0.043242
C29   C     C_1   0.162579 0.999816 0.500263 -0.160531
C30   C     C_1   0.837535 0.999906 0.500328 -0.149862
C31   C     C_1   0.060008 0.999787 0.500337 0.020900
C32   C     C_1   0.940119 0.999842 0.500352 0.024945
C33   C     C_R   0.476293 0.187181 0.202337 -0.090638
C34   C     C_R   0.504803 0.813932 0.794836 -0.132267
C35   C     C_R   0.463672 0.221683 0.023722 -0.189148
C36   C     C_R   0.464271 0.776191 0.961575 -0.146545
C37   C     C_R   0.467594 0.152358 0.125284 0.227840
C38   C     C_R   0.475653 0.846770 0.862080 0.230474
C39   C     C_R   0.480565 0.290377 0.175298 -0.237948
C40   C     C_R   0.515134 0.712342 0.826286 -0.229213
C41   C     C_R   0.472149 0.360518 0.073349 0.052254
C42   C     C_R   0.489007 0.639678 0.920429 0.053434
Cu1   Cu    Cu3+1 0.469550 0.918260 0.475690 1.022093
Cu2   Cu    Cu3+1 0.530450 0.081740 0.524310 1.019649
H1    H     H_    0.702595 0.636572 0.513138 0.190944
H2    H     H_    0.298885 0.366261 0.485400 0.195883
H3    H     H_    0.544270 0.691413 0.775366 0.208982
H4    H     H_    0.494801 0.315219 0.236159 0.202211
H5    H     H_    0.459290 0.193237 0.966481 0.188801
H6    H     H_    0.444583 0.800642 0.014324 0.201763
H7    H     H_    0.474556 0.545787 0.791426 0.196580
H8    H     H_    0.436770 0.451626 0.191017 0.206167
H9    H     H_    0.813304 0.496899 0.602867 0.204954
H10   H     H_    0.192203 0.508710 0.386429 0.200012
N1    N     N_R   0.576230 0.204580 0.560790 -0.230818
N2    N     N_R   0.423770 0.795420 0.439210 -0.231890
O1    O     O_R   0.459870 0.022090 0.338120 -0.536701
O2    O     O_R   0.540130 0.977910 0.661880 -0.554761
O3    O     O_R   0.511290 0.160150 0.379180 -0.542023
O4    O     O_R   0.488710 0.839850 0.620820 -0.530188
O5    O     O_R   0.311490 0.930960 0.479480 -0.567183
O6    O     O_R   0.688510 0.069040 0.520520 -0.567575
O7    O     O_R   0.362910 0.069020 0.520540 -0.524525
O8    O     O_R   0.637090 0.930980 0.479460 -0.528053
Cl1   Cl    Cl    0.463368 0.357719 0.795531 -0.632181
Cl2   Cl    Cl    0.430027 0.637873 0.182732 -0.618505
N3    N     N_2   0.450444 0.948015 0.826447 -0.422673
H11   H     H_    0.387294 0.970581 0.760358 0.267471
C43   C     C_3   0.446738 0.988917 0.898606 -0.703555
H12   H     H_    0.365548 0.954421 0.933182 0.238367
H13   H     H_    0.443681 0.071398 0.858026 0.251957
H14   H     H_    0.528253 0.976204 0.959019 0.234515
N4    N     N_2   0.465507 0.048445 0.148789 -0.422301
H15   H     H_    0.410629 0.025399 0.093735 0.248217
C44   C     C_3   0.582394 0.016015 0.177034 -0.623863
H16   H     H_    0.629350 0.053339 0.110914 0.215273
H17   H     H_    0.572768 0.933227 0.200702 0.236890
H18   H     H_    0.636713 0.034107 0.242194 0.229131
Cl3   Cl    Cl    0.608935 0.717655 0.589551 -0.630947
Cl4   Cl    Cl    0.389866 0.281189 0.412355 -0.631824
N5    N     N_2   0.265334 0.880324 0.308439 -0.360901
H19   H     H_    0.271680 0.910189 0.232310 0.267112
C45   C     C_3   0.146774 0.877674 0.323945 -0.542563
H20   H     H_    0.077603 0.859601 0.264838 0.244868
H21   H     H_    0.135731 0.953235 0.316051 0.210476
H22   H     H_    0.132103 0.821777 0.401141 0.227858
N6    N     N_2   0.746157 0.125870 0.677477 -0.365058
H23   H     H_    0.831470 0.139360 0.663120 0.277015
C46   C     C_3   0.742181 0.074062 0.785343 -0.569221
H24   H     H_    0.770785 0.998333 0.814593 0.221454
H25   H     H_    0.650429 0.064917 0.798427 0.254678
H26   H     H_    0.802799 0.116553 0.828798 0.248183
Cl5   Cl    Cl    0.879591 0.315050 0.700938 -0.618333
Cl6   Cl    Cl    0.148807 0.697222 0.261001 -0.598178

loop_
_geom_bond_atom_site_label_1
_geom_bond_atom_site_label_2
_ccdc_geom_bond_type
C40   H3    S    
C14   N2    A    
N6    H23   S    
C4    C36   A    
N4    H15   S    
C21   C26   A    
N5    H19   S    
C1    C33   S    
C39   C41   A    
C11   C19   A    
C33   C39   A    
C12   C20   A    
C45   H20   S    
C34   C40   A    
C23   C29   S    
C35   C37   A    
C1    O3    A    
C5    C6    A    
C2    O4    A    
Cu2   O3    S    
C7    C9    A    
C43   H13   S    
C5    C41   A    
C31   C32   S    
Cu2   O2    S    
C22   C25   A    
C35   H5    S    
C46   H25   S    
C19   C27   A    
C8    H8    S    
C2    C34   S    
C23   O7    A    
C24   O8    A    
C34   C38   A    
C21   C22   A    
N4    C44   S    
C12   Cl6   S    
N5    C45   S    
Cu1   O8    S    
C9    Cl1   S    
C10   Cl2   S    
Cu2   O7    S    
N3    H11   S    
C28   H10   S    
C20   C28   A    
Cu2   O6    S    
C33   C37   A    
N3    C43   S    
C15   N1    A    
C43   H14   S    
C44   H16   S    
C16   N2    A    
C3    C9    A    
C1    O1    A    
C15   Cl4   S    
C3    C35   A    
C13   N6    S    
C27   H9    S    
C46   H26   S    
C44   H17   S    
Cu1   O4    S    
C16   C18   A    
C45   H21   S    
C12   C14   A    
N6    C46   S    
Cu1   Cu2   S    
C4    C10   A    
C25   H1    S    
C36   H6    S    
Cu1   O5    S    
C15   C17   A    
C37   N4    S    
C3    C41   A    
C24   O6    A    
C18   C22   A    
C5    C8    A    
C2    O2    A    
C6    C7    A    
C25   C27   A    
C26   C28   A    
C16   Cl3   S    
C36   C38   A    
C7    H7    S    
C29   C31   T    
C30   C32   T    
C11   C13   A    
Cu2   N1    S    
C11   Cl5   S    
C4    C42   A    
C40   C42   A    
C17   C19   A    
C18   C20   A    
C43   H12   S    
C44   H18   S    
C24   C30   S    
Cu1   O1    S    
Cu1   N2    S    
C23   O5    A    
C45   H22   S    
C38   N3    S    
C8    C10   A    
C6    C42   A    
C14   N5    S    
C46   H24   S    
C26   H2    S    
C39   H4    S    
C13   N1    A    
C17   C21   A    
