data_mof_unit_20704.cif
_audit_creation_date              2012-10-26T21:08:10-0400
_audit_creation_method            fapswitch 2.2
_symmetry_space_group_name_H-M    P1
_symmetry_Int_Tables_number       1
_space_group_crystal_system       triclinic
_cell_length_a                    15.839453
_cell_length_b                    10.848357
_cell_length_c                    9.629245
_cell_angle_alpha                 91.273091
_cell_angle_beta                  90.838298
_cell_angle_gamma                 93.043554
_cell_volume                      1651.66391684

loop_
_atom_site_label
_atom_site_type_symbol
_atom_type_description
_atom_site_fract_x
_atom_site_fract_y
_atom_site_fract_z
_atom_type_partial_charge
C1    C     C_R   0.503524 0.263481 0.498414 0.531260
C2    C     C_R   0.654475 0.086916 0.796498 -0.113924
C3    C     C_R   0.629661 0.966723 0.829234 -0.116784
C4    C     C_R   0.339961 0.499820 0.499105 0.557725
C5    C     C_R   0.573475 0.897550 0.741730 -0.103062
C6    C     C_R   0.542586 0.945515 0.616144 0.011774
C7    C     C_R   0.557361 0.073259 0.597035 0.027666
C8    C     C_R   0.509925 0.130884 0.495152 -0.020850
C9    C     C_R   0.459470 0.061438 0.399390 -0.120256
C10   C     C_R   0.453681 0.933931 0.404119 0.080240
C11   C     C_R   0.496345 0.873521 0.510597 0.017203
C12   C     C_3   0.082633 0.502055 0.498237 0.050340
C13   C     C_R   0.643011 0.610163 0.144309 0.148607
C14   C     C_R   0.718463 0.615207 0.071139 -0.138858
C15   C     C_R   0.713864 0.631683 0.929385 -0.184254
C16   C     C_R   0.497911 0.738035 0.502802 0.580754
C17   C     C_R   0.635751 0.617985 0.862412 -0.095227
C18   C     C_R   0.566304 0.559228 0.928064 0.130673
C19   C     C_R   0.567534 0.558660 0.076999 0.171448
C20   C     C_R   0.436237 0.444059 0.070871 0.007865
C21   C     C_R   0.436496 0.443527 0.923267 0.011237
C22   C     C_R   0.660012 0.500434 0.500893 0.546741
C23   C     C_3   0.976534 0.591856 0.587384 -0.099412
C24   C     C_3   0.968482 0.392220 0.542384 -0.101582
C25   C     C_3   0.023336 0.412552 0.412248 -0.099853
C26   C     C_1   0.250101 0.500676 0.497372 -0.014194
C27   C     C_1   0.749844 0.501291 0.502591 -0.023299
C28   C     C_3   0.029280 0.481730 0.628365 -0.101421
C29   C     C_3   0.917285 0.502324 0.501398 0.049578
C30   C     C_3   0.031434 0.612201 0.457235 -0.093073
C31   C     C_3   0.970595 0.522677 0.371255 -0.096750
C32   C     C_1   0.174432 0.501432 0.497173 -0.049555
C33   C     C_1   0.825516 0.501953 0.502632 -0.056970
C34   C     C_R   0.617820 0.140907 0.682460 -0.081251
Cu1   Cu    Cu3+1 0.499990 0.499990 0.640660 0.935628
Cu2   Cu    Cu3+1 0.500010 0.500010 0.359340 1.001351
H1    H     H_    0.043880 0.338981 0.340310 0.111257
H2    H     H_    0.945029 0.539510 0.265790 0.107964
H3    H     H_    0.058645 0.702454 0.422199 0.121147
H4    H     H_    0.955889 0.665365 0.659324 0.108798
H5    H     H_    0.054719 0.464930 0.733904 0.110364
H6    H     H_    0.422315 0.107004 0.322381 0.149795
H7    H     H_    0.637262 0.235753 0.661802 0.137579
H8    H     H_    0.699418 0.140045 0.862674 0.119680
H9    H     H_    0.653244 0.927124 0.923514 0.147581
H10   H     H_    0.550159 0.811766 0.782043 0.152411
H11   H     H_    0.384179 0.397347 0.123179 0.117726
H12   H     H_    0.777985 0.640342 0.124090 0.138932
H13   H     H_    0.769171 0.665096 0.873922 0.127316
H14   H     H_    0.631556 0.656359 0.761621 0.172066
H15   H     H_    0.384628 0.396227 0.866243 0.124013
H16   H     H_    0.941256 0.301971 0.577421 0.110532
I1    I     I_    0.369459 0.843116 0.255129 -0.356620
I2    I     I_    0.650630 0.783097 0.253376 -0.393041
N1    N     N_R   0.500800 0.501210 0.147910 -0.234607
N2    N     N_R   0.500830 0.501290 0.852040 -0.243718
O1    O     O_R   0.499990 0.319640 0.618810 -0.501713
O2    O     O_R   0.500000 0.319660 0.381240 -0.506101
O3    O     O_R   0.379070 0.499980 0.618770 -0.500059
O4    O     O_R   0.379080 0.500000 0.381190 -0.489420
O5    O     O_R   0.500000 0.680340 0.618760 -0.536041
O6    O     O_R   0.500010 0.680360 0.381190 -0.431764
O7    O     O_R   0.620920 0.500000 0.618810 -0.528585
O8    O     O_R   0.620930 0.500020 0.381230 -0.485006

loop_
_geom_bond_atom_site_label_1
_geom_bond_atom_site_label_2
_ccdc_geom_bond_type
C17   H14   S    
C24   H16   S    
C21   N2    A    
C4    C26   S    
C24   C25   S    
C26   C32   T    
C6    C7    A    
C1    O1    A    
C1    C8    S    
C9    C10   A    
Cu1   Cu2   S    
C31   H2    S    
C18   N2    A    
C12   C25   S    
Cu1   O1    S    
C12   C30   S    
C4    O4    A    
Cu1   O7    S    
C17   C18   A    
C22   O7    A    
C3    C5    A    
C7    C8    A    
Cu1   O5    S    
Cu2   N1    S    
C1    O2    A    
C27   C33   T    
C24   C29   S    
C2    C34   A    
C9    H6    S    
C30   C31   S    
C5    H10   S    
C16   O6    A    
C12   C28   S    
C20   N1    A    
Cu2   O6    S    
C23   C29   S    
C4    O3    A    
Cu1   O3    S    
C30   H3    S    
C2    C3    A    
Cu2   O2    S    
C22   C27   S    
C15   H13   S    
C5    C6    A    
C7    C34   A    
C20   H11   S    
C23   C28   S    
C10   C11   A    
C13   C19   A    
C22   O8    A    
C23   H4    S    
C23   C30   S    
C29   C33   S    
C28   H5    S    
C21   H15   S    
C20   C21   A    
C29   C31   S    
C13   I2    S    
C16   O5    A    
C19   N1    A    
C6    C11   A    
C15   C17   A    
C10   I1    S    
C14   C15   A    
C18   C19   A    
C14   H12   S    
C13   C14   A    
C25   H1    S    
Cu1   N2    S    
Cu2   O8    S    
C25   C31   S    
C3    H9    S    
C11   C16   S    
C12   C32   S    
C34   H7    S    
C24   C28   S    
C2    H8    S    
C8    C9    A    
Cu2   O4    S    
