data_mof_unit_22928.cif
_audit_creation_date              2012-12-10T18:41:22-0500
_audit_creation_method            fapswitch 2.2
_symmetry_space_group_name_H-M    P1
_symmetry_Int_Tables_number       1
_space_group_crystal_system       triclinic
_cell_length_a                    15.205776
_cell_length_b                    13.891323
_cell_length_c                    10.8359
_cell_angle_alpha                 89.999775
_cell_angle_beta                  90.650535
_cell_angle_gamma                 90.000163
_cell_volume                      2288.70170371

loop_
_atom_site_label
_atom_site_type_symbol
_atom_type_description
_atom_site_fract_x
_atom_site_fract_y
_atom_site_fract_z
_atom_type_partial_charge
C1    C     C_R   0.330004 0.500061 0.502888 0.781714
C2    C     C_R   0.669996 0.500062 0.497111 0.781745
C3    C     C_R   0.188408 0.413252 0.525232 -0.260285
C4    C     C_R   0.811591 0.413255 0.474740 -0.260374
C5    C     C_R   0.096938 0.411568 0.525819 -0.176798
C6    C     C_R   0.903061 0.411571 0.474146 -0.176851
C7    C     C_R   0.048710 0.495659 0.500013 0.073542
C8    C     C_R   0.951290 0.495659 0.499963 0.073540
C9    C     C_R   0.528704 0.107153 0.603483 0.392086
C10   C     C_R   0.471296 0.107156 0.396511 0.392059
C11   C     C_R   0.535915 0.208565 0.597574 0.402711
C12   C     C_R   0.464083 0.208568 0.402426 0.402754
C13   C     C_R   0.500001 0.054282 0.499995 -0.244916
C14   C     C_R   0.426896 0.891760 0.453641 0.362773
C15   C     C_R   0.573107 0.891760 0.546349 0.362768
C16   C     C_R   0.430871 0.790476 0.449846 -0.045214
C17   C     C_R   0.569130 0.790477 0.550151 -0.045201
C18   C     C_R   0.500002 0.945151 0.499994 0.047461
C19   C     C_R   0.499745 0.499930 0.262688 0.783397
C20   C     C_R   0.500252 0.499929 0.737311 0.783383
C21   C     C_R   0.498551 0.583534 0.062260 -0.109867
C22   C     C_R   0.501454 0.583533 0.937738 -0.109863
C23   C     C_R   0.499352 0.498927 0.130147 -0.092973
C24   C     C_R   0.500641 0.498927 0.869853 -0.092980
C25   C     C_R   0.500051 0.411217 0.064570 -0.198376
C26   C     C_R   0.499925 0.411217 0.935430 -0.198386
C27   C     C_3   0.501471 0.691800 0.928602 0.267872
C28   C     C_3   0.498554 0.691801 0.071395 0.267863
C29   C     C_R   0.094603 0.581593 0.477686 -0.254087
C30   C     C_R   0.905398 0.581591 0.522304 -0.254076
C31   C     C_R   0.185245 0.585966 0.491839 0.449937
C32   C     C_R   0.814755 0.585966 0.508157 0.449947
C33   C     C_R   0.233580 0.500034 0.506588 -0.142900
C34   C     C_R   0.766419 0.500034 0.493403 -0.142861
Cu1   Cu    Cu3+1 0.500000 0.596430 0.500000 0.955791
Cu2   Cu    Cu3+1 0.500000 0.403570 0.500000 0.989831
H1    H     H_    0.500667 0.342733 0.112123 0.213713
H2    H     H_    0.499297 0.342733 0.887878 0.213712
H3    H     H_    0.376975 0.750906 0.408686 0.198406
H4    H     H_    0.623025 0.750906 0.591313 0.198411
H5    H     H_    0.440379 0.719415 0.883774 0.125284
H6    H     H_    0.559650 0.719403 0.116222 0.125276
H7    H     H_    0.061108 0.647520 0.452886 0.137732
H8    H     H_    0.938894 0.647516 0.547111 0.137730
H9    H     H_    0.223664 0.346748 0.542115 0.166406
H10   H     H_    0.776335 0.346754 0.457846 0.166401
H11   H     H_    0.064801 0.344269 0.547119 0.135776
H12   H     H_    0.935198 0.344275 0.452834 0.135802
N1    N     N_R   0.500000 0.258690 0.500000 -0.292275
N2    N     N_R   0.500000 0.741330 0.500000 -0.238798
O1    O     O_R   0.371460 0.581430 0.500010 -0.564769
O2    O     O_R   0.628540 0.581430 0.499990 -0.564773
O3    O     O_R   0.371470 0.418560 0.500010 -0.578453
O4    O     O_R   0.628530 0.418560 0.499990 -0.578477
O5    O     O_R   0.499990 0.581450 0.319660 -0.581292
O6    O     O_R   0.500010 0.581450 0.680340 -0.581287
O7    O     O_R   0.500010 0.418580 0.319660 -0.528897
O8    O     O_R   0.499990 0.418580 0.680340 -0.528894
O9    O     O_3   0.353032 0.936148 0.404116 -0.553220
C35   C     C_3   0.299844 0.971478 0.500140 0.072706
H13   H     H_    0.331041 0.034958 0.545027 0.140415
H14   H     H_    0.288166 0.915563 0.571490 0.127930
C36   C     C_3   0.211130 0.002356 0.445540 -0.316134
H15   H     H_    0.221861 0.053418 0.368247 0.223314
H16   H     H_    0.176192 0.938122 0.408353 0.220740
C37   C     C_3   0.153934 0.051206 0.541990 -0.956757
H17   H     H_    0.142455 0.002079 0.621022 0.268572
H18   H     H_    0.089440 0.070648 0.499872 0.256069
H19   H     H_    0.186208 0.118025 0.576058 0.253569
O10   O     O_3   0.646971 0.936148 0.595873 -0.553208
C38   C     C_3   0.700156 0.971482 0.499847 0.072722
H20   H     H_    0.668955 0.034961 0.454959 0.140405
H21   H     H_    0.711838 0.915566 0.428498 0.127923
C39   C     C_3   0.788870 0.002367 0.554448 -0.316106
H22   H     H_    0.778137 0.053433 0.631739 0.223295
H23   H     H_    0.823813 0.938134 0.591639 0.220728
C40   C     C_3   0.846063 0.051218 0.457995 -0.956714
H24   H     H_    0.857539 0.002089 0.378961 0.268564
H25   H     H_    0.910560 0.070659 0.500111 0.256064
H26   H     H_    0.813788 0.118039 0.423930 0.253566
O11   O     O_3   0.577633 0.738537 0.880911 -0.578794
C41   C     C_3   0.655316 0.682268 0.885156 0.073797
H27   H     H_    0.650700 0.623183 0.816141 0.157786
H28   H     H_    0.667005 0.651596 0.978815 0.116692
C42   C     C_3   0.733852 0.745768 0.852883 -0.290095
H29   H     H_    0.722703 0.779682 0.761214 0.256528
H30   H     H_    0.740758 0.803976 0.922715 0.226647
C43   C     C_3   0.818879 0.687456 0.849456 -0.926033
H31   H     H_    0.832995 0.655160 0.941334 0.247704
H32   H     H_    0.874413 0.735257 0.824376 0.261213
H33   H     H_    0.813528 0.629158 0.779628 0.269266
O12   O     O_3   0.422400 0.738555 0.119084 -0.578791
C44   C     C_3   0.344707 0.682300 0.114840 0.073793
H34   H     H_    0.349311 0.623220 0.183862 0.157799
H35   H     H_    0.333014 0.651625 0.021184 0.116692
C45   C     C_3   0.266181 0.745819 0.147103 -0.290092
H36   H     H_    0.277336 0.779742 0.238764 0.256538
H37   H     H_    0.259283 0.804019 0.077259 0.226650
C46   C     C_3   0.181145 0.687522 0.150543 -0.926053
H38   H     H_    0.167024 0.655216 0.058674 0.247704
H39   H     H_    0.125618 0.735337 0.175613 0.261217
H40   H     H_    0.186487 0.629234 0.220386 0.269274
O13   O     O_3   0.225139 0.675387 0.492166 -0.623345
C47   C     C_3   0.236917 0.706220 0.616202 0.095450
H41   H     H_    0.296210 0.752552 0.620059 0.158298
H42   H     H_    0.250546 0.646026 0.682127 0.118232
C48   C     C_3   0.157497 0.764670 0.659444 -0.395641
H43   H     H_    0.142110 0.821855 0.590955 0.231443
H44   H     H_    0.099221 0.716939 0.666943 0.214574
C49   C     C_3   0.175271 0.810599 0.785233 -0.921163
H45   H     H_    0.189795 0.754158 0.855140 0.258421
H46   H     H_    0.116387 0.851529 0.814609 0.260772
H47   H     H_    0.231873 0.860933 0.780351 0.257359
O14   O     O_3   0.774862 0.675387 0.507837 -0.623348
C50   C     C_3   0.763084 0.706225 0.383803 0.095442
H48   H     H_    0.703789 0.752555 0.379948 0.158296
H49   H     H_    0.749456 0.646033 0.317874 0.118234
C51   C     C_3   0.842503 0.764679 0.340566 -0.395640
H50   H     H_    0.857884 0.821865 0.409055 0.231441
H51   H     H_    0.900782 0.716951 0.333072 0.214577
C52   C     C_3   0.824731 0.810605 0.214775 -0.921169
H52   H     H_    0.810217 0.754162 0.144867 0.258422
H53   H     H_    0.883612 0.851541 0.185404 0.260773
H54   H     H_    0.768124 0.860932 0.219648 0.257362
F1    F     F_    0.548705 0.061441 0.710942 -0.604029
F2    F     F_    0.451293 0.061447 0.289050 -0.604047
O15   O     O_3   0.574364 0.257930 0.694634 -0.557188
C53   C     C_3   0.665847 0.240030 0.697627 0.114293
H55   H     H_    0.694890 0.243304 0.603575 0.108932
H56   H     H_    0.679059 0.167989 0.738476 0.194698
C54   C     C_3   0.710628 0.316154 0.778536 -0.329261
H57   H     H_    0.699109 0.388705 0.738259 0.218450
H58   H     H_    0.681661 0.314759 0.872262 0.226291
C55   C     C_3   0.809447 0.298370 0.789549 -0.928138
H59   H     H_    0.822369 0.228012 0.834990 0.258312
H60   H     H_    0.840220 0.356223 0.846030 0.261192
H61   H     H_    0.839981 0.298393 0.696986 0.264195
O16   O     O_3   0.425613 0.257936 0.305382 -0.557199
C56   C     C_3   0.334137 0.239997 0.302383 0.114295
H62   H     H_    0.305102 0.243190 0.396441 0.108870
H63   H     H_    0.320949 0.167984 0.261455 0.194769
C57   C     C_3   0.289313 0.316157 0.221578 -0.329385
H64   H     H_    0.300802 0.388678 0.261943 0.218508
H65   H     H_    0.318272 0.314857 0.127849 0.226277
C58   C     C_3   0.190503 0.298330 0.210559 -0.928069
H66   H     H_    0.177615 0.228065 0.164873 0.258331
H67   H     H_    0.159674 0.356290 0.154308 0.261197
H68   H     H_    0.159995 0.298120 0.303143 0.264133

loop_
_geom_bond_atom_site_label_1
_geom_bond_atom_site_label_2
_ccdc_geom_bond_type
C15   C18   A    
C37   H18   S    
C36   H16   S    
C44   H34   S    
C7    C29   A    
C14   C18   A    
C19   C23   S    
Cu1   Cu2   S    
C20   O6    A    
C54   C55   S    
C53   H55   S    
C55   H61   S    
C47   H42   S    
C12   N1    A    
C1    C33   S    
C7    C8    S    
C4    H10   S    
C40   H24   S    
C19   O7    A    
C14   O9    S    
C5    H11   S    
C6    H12   S    
C13   C18   S    
C35   C36   S    
C16   N2    A    
Cu2   O8    S    
C58   H66   S    
C56   C57   S    
C42   C43   S    
C37   H19   S    
C3    C33   A    
C50   H48   S    
C45   C46   S    
C35   H14   S    
C9    C13   A    
C51   H50   S    
C52   H54   S    
C1    O3    A    
Cu2   O3    S    
C25   H1    S    
C49   H45   S    
C20   C24   S    
C50   H49   S    
C39   C40   S    
C45   H37   S    
C48   H43   S    
C31   C33   A    
O10   C38   S    
C2    C34   S    
C40   H25   S    
C37   H17   S    
C36   C37   S    
O9    C35   S    
C44   H35   S    
C21   C22   A    
C29   H7    S    
C48   H44   S    
C57   C58   S    
C30   H8    S    
C10   C12   A    
C47   H41   S    
C58   H67   S    
O14   C50   S    
C49   H46   S    
C42   H30   S    
C4    C34   A    
C39   H22   S    
Cu1   O5    S    
C27   O11   S    
C4    C6    A    
Cu2   O7    S    
C2    O4    A    
C5    C7    A    
C26   H2    S    
C12   O16   S    
C6    C8    A    
C3    C5    A    
C25   C26   A    
C42   H29   S    
C3    H9    S    
O11   C41   S    
C35   H13   S    
C51   C52   S    
C31   O13   S    
C11   O15   S    
C11   N1    A    
C9    C11   A    
C27   H5    S    
C46   H38   S    
C43   H33   S    
C50   C51   S    
C45   H36   S    
Cu1   N2    S    
C28   O12   S    
C1    O1    A    
C49   H47   S    
C52   H52   S    
C2    O2    A    
C51   H51   S    
C46   H39   S    
C21   C28   S    
C43   H32   S    
C44   C45   S    
C41   H28   S    
C22   C27   S    
C21   C23   A    
Cu1   O1    S    
C48   C49   S    
C14   C16   A    
C39   H23   S    
C20   O8    A    
C54   H57   S    
C53   C54   S    
O13   C47   S    
C58   H68   S    
C38   H21   S    
C40   H26   S    
C19   O5    A    
C15   C17   A    
C15   O10   S    
Cu1   O6    S    
C24   C26   A    
C54   H58   S    
C10   C13   A    
C53   H56   S    
C17   N2    A    
C38   C39   S    
C55   H60   S    
C56   H62   S    
C55   H59   S    
C41   C42   S    
C8    C30   A    
C38   H20   S    
C29   C31   A    
C30   C32   A    
C56   H63   S    
C28   H6    S    
O12   C44   S    
C22   C24   A    
C23   C25   A    
C9    F1    S    
C52   H53   S    
Cu2   O4    S    
O16   C56   S    
C16   H3    S    
C36   H15   S    
C46   H40   S    
C43   H31   S    
C41   H27   S    
Cu1   O2    S    
C57   H64   S    
C32   O14   S    
C10   F2    S    
C17   H4    S    
C47   C48   S    
C57   H65   S    
Cu2   N1    S    
O15   C53   S    
C32   C34   A    
C27   C28   S    
