data_mof_unit_53790.cif
_audit_creation_date              2012-12-11T14:44:21-0500
_audit_creation_method            fapswitch 2.2
_symmetry_space_group_name_H-M    P1
_symmetry_Int_Tables_number       1
_space_group_crystal_system       triclinic
_cell_length_a                    24.965401
_cell_length_b                    16.804352
_cell_length_c                    15.727397
_cell_angle_alpha                 90.087491
_cell_angle_beta                  49.2177
_cell_angle_gamma                 90.251973
_cell_volume                      4995.98463716

loop_
_atom_site_label
_atom_site_type_symbol
_atom_type_description
_atom_site_fract_x
_atom_site_fract_y
_atom_site_fract_z
_atom_type_partial_charge
C1    C     C_R   0.332165 0.103071 0.808656 -0.001128
C2    C     C_3   0.780299 0.822245 0.577339 -0.288729
C3    C     C_3   0.812538 0.926998 0.261651 -0.269112
C4    C     C_3   0.273781 0.616595 0.258211 -0.337493
C5    C     C_3   0.704965 0.461052 0.710628 -0.230168
C6    C     C_3   0.724309 0.662099 0.764571 -0.309316
C7    C     C_3   0.312541 0.426978 0.261639 -0.269163
C8    C     C_3   0.891572 0.955981 0.427024 -0.339780
C9    C     C_3   0.160821 0.140466 0.579303 -0.281436
C10   C     C_3   0.184621 0.964192 0.419340 -0.290328
C11   C     C_3   0.765002 0.127657 0.576418 -0.212690
C12   C     C_3   0.391572 0.455982 0.427020 -0.339798
C13   C     C_3   0.699375 0.290216 0.606207 -0.342835
C14   C     C_3   0.660825 0.640468 0.579272 -0.281378
C15   C     C_3   0.684633 0.464193 0.419311 -0.290340
C16   C     C_3   0.265000 0.627650 0.576427 -0.212626
C17   C     C_3   0.442356 0.658438 0.836509 -0.318768
C18   C     C_3   0.662081 0.129791 0.907237 -0.265180
C19   C     C_3   0.556851 0.659026 0.162074 -0.320747
C20   C     C_3   0.332926 0.120352 0.099057 -0.244656
C21   C     C_3   0.942414 0.158408 0.836348 -0.318856
C22   C     C_3   0.162004 0.630119 0.907329 -0.265320
C23   C     C_3   0.056857 0.159025 0.162062 -0.320753
C24   C     C_3   0.243635 0.798435 0.396381 -0.282573
C25   C     C_3   0.832908 0.620337 0.099083 -0.244663
C26   C     C_3   0.776394 0.771504 0.417668 -0.311244
C27   C     C_3   0.280302 0.322247 0.577336 -0.288724
C28   C     C_3   0.199380 0.790206 0.606207 -0.342869
C29   C     C_3   0.743635 0.298436 0.396379 -0.282610
C30   C     C_2   0.696360 0.143841 0.009089 0.586017
C31   C     C_2   0.365293 0.730507 0.838377 0.599873
C32   C     C_2   0.301912 0.139000 0.993542 0.583415
C33   C     C_R   0.645471 0.851001 0.247471 -0.167666
C34   C     C_2   0.634435 0.731161 0.160000 0.598497
C35   C     C_2   0.196343 0.643922 0.009124 0.586046
C36   C     C_2   0.865311 0.230493 0.838333 0.599842
C37   C     C_2   0.801911 0.638996 0.993544 0.583418
C38   C     C_2   0.134435 0.231160 0.159999 0.598496
C39   C     C_2   0.766851 0.137138 0.946680 -0.250872
C40   C     C_2   0.315058 0.688723 0.849021 -0.271234
C41   C     C_2   0.231394 0.136209 0.053575 -0.257682
C42   C     C_2   0.684331 0.689233 0.149643 -0.269148
C43   C     C_2   0.266832 0.637152 0.946690 -0.250862
C44   C     C_R   0.667222 0.107524 0.193117 -0.068436
C45   C     C_2   0.815056 0.188722 0.849016 -0.271319
C46   C     C_2   0.731393 0.636208 0.053575 -0.257718
C47   C     C_2   0.184331 0.189233 0.149644 -0.269147
C48   C     C_R   0.584783 0.150385 0.592963 -0.153445
C49   C     C_R   0.384696 0.891605 0.409021 -0.239268
C50   C     C_R   0.409921 0.145332 0.405538 -0.194242
C51   C     C_R   0.617328 0.898286 0.589979 -0.240185
C52   C     C_R   0.084784 0.650385 0.592963 -0.153452
C53   C     C_R   0.884696 0.391606 0.409021 -0.239270
C54   C     C_R   0.909917 0.645330 0.405539 -0.194229
C55   C     C_R   0.354164 0.850880 0.752136 -0.174776
C56   C     C_R   0.117328 0.398285 0.589979 -0.240185
C57   C     C_R   0.660988 0.149515 0.407582 0.621058
C58   C     C_R   0.309702 0.893587 0.594971 0.551792
C59   C     C_R   0.333797 0.145932 0.592499 0.611489
C60   C     C_R   0.692005 0.900639 0.404289 0.563238
C61   C     C_R   0.160991 0.649514 0.407581 0.621038
C62   C     C_R   0.809702 0.393590 0.594970 0.551796
C63   C     C_R   0.833795 0.645930 0.592500 0.611476
C64   C     C_R   0.192005 0.400637 0.404288 0.563233
C65   C     C_R   0.577585 0.106514 0.196342 -0.084486
C66   C     C_R   0.832164 0.603071 0.808656 -0.001138
C67   C     C_R   0.442824 0.855260 0.754104 -0.074133
C68   C     C_R   0.421635 0.104382 0.805214 -0.094254
C69   C     C_R   0.557265 0.855658 0.244851 -0.073935
C70   C     C_R   0.077576 0.606538 0.196358 -0.084501
C71   C     C_R   0.942830 0.355254 0.754089 -0.074111
C72   C     C_R   0.921635 0.604381 0.805214 -0.094254
C73   C     C_R   0.057265 0.355658 0.244851 -0.073913
C74   C     C_R   0.350386 0.119646 0.872792 -0.081799
C75   C     C_R   0.612418 0.808777 0.217053 -0.065252
C76   C     C_R   0.648439 0.124194 0.129647 -0.066978
C77   C     C_R   0.145470 0.351000 0.247471 -0.167661
C78   C     C_R   0.387368 0.808354 0.781845 -0.059312
C79   C     C_R   0.850386 0.619645 0.872793 -0.081801
C80   C     C_R   0.112417 0.308776 0.217053 -0.065255
C81   C     C_R   0.148426 0.624238 0.129670 -0.066894
C82   C     C_R   0.887377 0.308347 0.781821 -0.059297
C83   C     C_R   0.634689 0.195730 0.499487 -0.067698
C84   C     C_R   0.316735 0.873901 0.503388 -0.021333
C85   C     C_R   0.359107 0.189314 0.498545 -0.020762
C86   C     C_R   0.686762 0.885882 0.495772 -0.027842
C87   C     C_R   0.134691 0.695728 0.499487 -0.067690
C88   C     C_R   0.167216 0.607548 0.193126 -0.068503
C89   C     C_R   0.816734 0.373905 0.503387 -0.021335
C90   C     C_R   0.859104 0.689312 0.498546 -0.020760
C91   C     C_R   0.186762 0.385879 0.495771 -0.027836
C92   C     C_3   0.344195 0.298794 0.394837 -0.399587
C93   C     C_3   0.712574 0.795294 0.599631 -0.394943
C94   C     C_3   0.655083 0.324626 0.577673 -0.399371
C95   C     C_3   0.287415 0.764066 0.425444 -0.381845
C96   C     C_3   0.844194 0.798795 0.394840 -0.399589
C97   C     C_3   0.212576 0.295294 0.599631 -0.394947
C98   C     C_3   0.155085 0.824617 0.577679 -0.399362
C99   C     C_R   0.854170 0.350876 0.752122 -0.174842
C100  C     C_3   0.787412 0.264070 0.425447 -0.381899
C101  C     C_3   0.803652 0.870346 0.474366 0.732002
C102  C     C_3   0.252574 0.224638 0.520003 0.716896
C103  C     C_3   0.221554 0.869073 0.475738 0.717115
C104  C     C_3   0.722123 0.220515 0.526736 0.719471
C105  C     C_3   0.303654 0.370346 0.474362 0.732001
C106  C     C_3   0.752572 0.724639 0.520001 0.716889
C107  C     C_3   0.721555 0.369077 0.475731 0.717141
C108  C     C_3   0.222129 0.720508 0.526731 0.719473
C109  C     C_3   0.737002 0.843602 0.496252 0.034688
C110  C     C_3   0.276394 0.271501 0.417669 -0.311224
C111  C     C_3   0.319420 0.250670 0.498004 0.028202
C112  C     C_3   0.264679 0.835136 0.504278 0.033705
C113  C     C_3   0.678079 0.253572 0.498705 0.047206
C114  C     C_3   0.237002 0.343599 0.496251 0.034680
C115  C     C_3   0.819418 0.750669 0.498006 0.028210
C116  C     C_3   0.764677 0.335142 0.504277 0.033704
C117  C     C_3   0.178082 0.753567 0.498706 0.047202
C118  C     C_3   0.773788 0.116639 0.258204 -0.337550
C119  C     C_3   0.204964 0.961046 0.710630 -0.230167
C120  C     C_3   0.224312 0.162096 0.764571 -0.309310
H1    H     H_    0.279394 0.091868 0.841443 0.115009
H2    H     H_    0.479793 0.840189 0.765529 0.115364
H3    H     H_    0.625051 0.080378 0.961655 0.128571
H4    H     H_    0.714294 0.105330 0.833781 0.129853
H5    H     H_    0.639953 0.161727 0.874586 0.180815
H6    H     H_    0.540551 0.643689 0.113182 0.177593
H7    H     H_    0.510728 0.687209 0.241860 0.131510
H8    H     H_    0.571067 0.602592 0.180020 0.145792
H9    H     H_    0.367946 0.069627 0.045877 0.126298
H10   H     H_    0.279329 0.098071 0.172155 0.133403
H11   H     H_    0.355662 0.149875 0.132479 0.179504
H12   H     H_    0.959241 0.143757 0.884587 0.175429
H13   H     H_    0.450977 0.099331 0.833553 0.113816
H14   H     H_    0.988419 0.186339 0.755836 0.124921
H15   H     H_    0.927494 0.101662 0.819758 0.146374
H16   H     H_    0.124626 0.580999 0.961905 0.128820
H17   H     H_    0.214113 0.605259 0.834182 0.129674
H18   H     H_    0.140257 0.662266 0.874211 0.180821
H19   H     H_    0.010727 0.187213 0.241833 0.131523
H20   H     H_    0.071066 0.102598 0.180032 0.145786
H21   H     H_    0.040571 0.143673 0.113154 0.177597
H22   H     H_    0.867932 0.569608 0.045913 0.126298
H23   H     H_    0.779309 0.598055 0.172159 0.133390
H24   H     H_    0.520763 0.840858 0.232245 0.116011
H25   H     H_    0.855628 0.649858 0.132531 0.179501
H26   H     H_    0.048243 0.601388 0.167996 0.106842
H27   H     H_    0.979801 0.340180 0.765508 0.115386
H28   H     H_    0.950976 0.599329 0.833555 0.113826
H29   H     H_    0.020763 0.340858 0.232246 0.116004
H30   H     H_    0.398915 0.299339 0.312500 0.153198
H31   H     H_    0.658606 0.794065 0.683325 0.147115
H32   H     H_    0.600664 0.348915 0.637666 0.158304
H33   H     H_    0.690935 0.833165 0.236382 0.180806
H34   H     H_    0.341695 0.739368 0.364945 0.149590
H35   H     H_    0.898914 0.799341 0.312504 0.153205
H36   H     H_    0.158608 0.294066 0.683326 0.147122
H37   H     H_    0.100665 0.848904 0.637676 0.158301
H38   H     H_    0.841691 0.239370 0.364952 0.149587
H39   H     H_    0.273105 0.250030 0.354368 0.169614
H40   H     H_    0.783888 0.841873 0.640899 0.170834
H41   H     H_    0.682133 0.285448 0.691338 0.187852
H42   H     H_    0.260980 0.803466 0.311240 0.191924
H43   H     H_    0.773107 0.750036 0.354363 0.169610
H44   H     H_    0.720512 0.100856 0.159959 0.143917
H45   H     H_    0.283892 0.341877 0.640894 0.170835
H46   H     H_    0.182140 0.785437 0.691336 0.187770
H47   H     H_    0.760982 0.303464 0.311236 0.191916
H48   H     H_    0.300255 0.704670 0.800029 0.136039
H49   H     H_    0.788331 0.105646 0.978557 0.139468
H50   H     H_    0.699252 0.705029 0.198597 0.139894
H51   H     H_    0.209668 0.106929 0.020519 0.139609
H52   H     H_    0.800229 0.204685 0.800064 0.136076
H53   H     H_    0.288306 0.605595 0.978536 0.139374
H54   H     H_    0.199249 0.205027 0.198601 0.139895
H55   H     H_    0.308409 0.833569 0.763016 0.168189
H56   H     H_    0.709667 0.606932 0.020517 0.139614
H57   H     H_    0.557117 0.165535 0.679527 0.141707
H58   H     H_    0.405727 0.891825 0.323253 0.145968
H59   H     H_    0.437233 0.158851 0.318621 0.137592
H60   H     H_    0.595582 0.898972 0.676120 0.138605
H61   H     H_    0.057117 0.665534 0.679527 0.141701
H62   H     H_    0.905727 0.391828 0.323253 0.145967
H63   H     H_    0.937226 0.658848 0.318623 0.137589
H64   H     H_    0.095582 0.398971 0.676119 0.138608
H65   H     H_    0.759921 0.056577 0.248727 0.169431
H66   H     H_    0.779394 0.591867 0.841442 0.115011
H67   H     H_    0.786994 0.115211 0.313505 0.174849
H68   H     H_    0.821685 0.136908 0.173908 0.194015
H69   H     H_    0.175130 0.936477 0.687045 0.169630
H70   H     H_    0.235892 0.013852 0.657204 0.159825
H71   H     H_    0.164990 0.980874 0.799007 0.151909
H72   H     H_    0.213150 0.099788 0.794055 0.133966
H73   H     H_    0.203184 0.173933 0.722332 0.168863
H74   H     H_    0.194827 0.200561 0.840106 0.213173
H75   H     H_    0.846234 0.878233 0.249868 0.183712
H76   H     H_    0.803002 0.972364 0.321644 0.177052
H77   H     H_    0.190936 0.333164 0.236379 0.180820
H78   H     H_    0.843710 0.956292 0.178403 0.155704
H79   H     H_    0.259884 0.556541 0.248760 0.169436
H80   H     H_    0.286992 0.615156 0.313507 0.174870
H81   H     H_    0.321686 0.636841 0.173902 0.193985
H82   H     H_    0.675133 0.436487 0.687036 0.169629
H83   H     H_    0.735894 0.513859 0.657205 0.159819
H84   H     H_    0.664990 0.480878 0.799006 0.151905
H85   H     H_    0.713143 0.599794 0.794069 0.133971
H86   H     H_    0.703184 0.673928 0.722326 0.168863
H87   H     H_    0.694825 0.700572 0.840098 0.213167
H88   H     H_    0.220509 0.600895 0.159960 0.143975
H89   H     H_    0.346237 0.378207 0.249843 0.183720
H90   H     H_    0.303014 0.472337 0.321633 0.177065
H91   H     H_    0.343709 0.456278 0.178396 0.155709
H92   H     H_    0.933634 0.923249 0.348701 0.156725
H93   H     H_    0.887365 0.934467 0.498056 0.151387
H94   H     H_    0.907787 0.019451 0.412636 0.166910
H95   H     H_    0.158130 0.166140 0.516999 0.136753
H96   H     H_    0.122425 0.170233 0.661999 0.117454
H97   H     H_    0.144581 0.077134 0.592194 0.199936
H98   H     H_    0.127978 0.949626 0.489658 0.131212
H99   H     H_    0.808418 0.333564 0.762993 0.168155
H100  H     H_    0.204917 0.930600 0.342523 0.145269
H101  H     H_    0.188003 0.028334 0.399732 0.172496
H102  H     H_    0.751457 0.166879 0.645017 0.107454
H103  H     H_    0.821203 0.136439 0.499496 0.136269
H104  H     H_    0.758624 0.065458 0.605217 0.206539
H105  H     H_    0.433634 0.423245 0.348705 0.156720
H106  H     H_    0.387361 0.434476 0.498058 0.151389
H107  H     H_    0.407789 0.519451 0.412623 0.166919
H108  H     H_    0.658153 0.666125 0.516941 0.136749
H109  H     H_    0.622422 0.670251 0.661953 0.117436
H110  H     H_    0.548256 0.101353 0.167974 0.106998
H111  H     H_    0.644580 0.577136 0.592182 0.199927
H112  H     H_    0.627990 0.449620 0.489617 0.131217
H113  H     H_    0.704941 0.430606 0.342485 0.145268
H114  H     H_    0.688011 0.528336 0.399710 0.172486
H115  H     H_    0.251427 0.666851 0.645061 0.107374
H116  H     H_    0.321202 0.636463 0.499527 0.136234
H117  H     H_    0.258638 0.565444 0.605189 0.206572
H118  H     H_    0.459147 0.643800 0.884804 0.175424
H119  H     H_    0.488383 0.686357 0.755996 0.124888
H120  H     H_    0.427444 0.601685 0.819911 0.146337
N1    N     N_R   0.389620 0.081040 0.705440 -0.039746
N2    N     N_R   0.417680 0.920160 0.443370 -0.073644
N3    N     N_R   0.417680 0.079840 0.443370 -0.070101
N4    N     N_R   0.582320 0.920160 0.556630 -0.073181
N5    N     N_R   0.082320 0.579840 0.556630 -0.069454
N6    N     N_R   0.917680 0.420160 0.443370 -0.073645
N7    N     N_R   0.917680 0.579840 0.443370 -0.070101
N8    N     N_R   0.082320 0.420160 0.556630 -0.073181
N9    N     N_R   0.627920 0.078930 0.443400 -0.113099
N10   N     N_R   0.372080 0.921070 0.556600 -0.099294
N11   N     N_R   0.372080 0.078930 0.556600 -0.108436
N12   N     N_R   0.610380 0.918960 0.294560 -0.035574
N13   N     N_R   0.627920 0.921070 0.443400 -0.097502
N14   N     N_R   0.127920 0.578930 0.443400 -0.113108
N15   N     N_R   0.872080 0.421070 0.556600 -0.099292
N16   N     N_R   0.872080 0.578930 0.556600 -0.108436
N17   N     N_R   0.127920 0.421070 0.443400 -0.097502
N18   N     N_R   0.555090 0.077730 0.294590 -0.048828
N19   N     N_R   0.444910 0.922270 0.705410 -0.047107
N20   N     N_R   0.444910 0.077730 0.705410 -0.052998
N21   N     N_R   0.555090 0.922270 0.294590 -0.046020
N22   N     N_R   0.055090 0.577730 0.294590 -0.048806
N23   N     N_R   0.610380 0.081040 0.294560 -0.050080
N24   N     N_R   0.944910 0.422270 0.705410 -0.047112
N25   N     N_R   0.944910 0.577730 0.705410 -0.052998
N26   N     N_R   0.055090 0.422270 0.294590 -0.046017
N27   N     N_R   0.389620 0.918960 0.705440 -0.038291
N28   N     N_R   0.889620 0.581040 0.705440 -0.039744
N29   N     N_R   0.110380 0.418960 0.294560 -0.035575
N30   N     N_R   0.110380 0.581040 0.294560 -0.050096
N31   N     N_R   0.889620 0.418960 0.705440 -0.038280
N32   N     N_R   0.582320 0.079840 0.556630 -0.069459
Ni1   Ni    Ni4+2 0.382970 1.000000 0.629840 0.239135
Ni2   Ni    Ni4+2 0.617030 1.000000 0.370160 0.231658
Ni3   Ni    Ni4+2 0.882970 0.500000 0.629840 0.239135
Ni4   Ni    Ni4+2 0.117030 0.500000 0.370160 0.231643
Ni5   Ni    Ni4+2 0.514540 1.000000 0.629840 0.194469
Ni6   Ni    Ni4+2 0.485460 1.000000 0.370160 0.195003
Ni7   Ni    Ni4+2 0.014540 0.500000 0.629840 0.194468
Ni8   Ni    Ni4+2 0.985460 0.500000 0.370160 0.195009
O1    O     O_3   0.718410 0.169681 0.298400 -0.636419
O2    O     O_3   0.229979 0.144415 0.540686 -0.624391
O3    O     O_3   0.225938 0.950318 0.449468 -0.604566
O4    O     O_3   0.719625 0.139656 0.553649 -0.624993
O5    O     O_3   0.326247 0.450382 0.452083 -0.636745
O6    O     O_3   0.729976 0.644417 0.540685 -0.624404
O7    O     O_3   0.725941 0.450322 0.449456 -0.604569
O8    O     O_3   0.219635 0.639647 0.553634 -0.624997
O9    O     O_3   0.384489 0.710883 0.900791 -0.594900
O10   O     O_3   0.668742 0.184014 0.968431 -0.596986
O11   O     O_3   0.615081 0.711567 0.097678 -0.607132
O12   O     O_3   0.247704 0.902657 0.704957 -0.648342
O13   O     O_3   0.329742 0.176416 0.035870 -0.598299
O14   O     O_3   0.884545 0.210845 0.900688 -0.594934
O15   O     O_3   0.168752 0.684230 0.968517 -0.596936
O16   O     O_3   0.115085 0.211568 0.097672 -0.607130
O17   O     O_3   0.829743 0.676404 0.035875 -0.598293
O18   O     O_3   0.296991 0.179412 0.697289 -0.633770
O19   O     O_3   0.750043 0.896100 0.290081 -0.655982
O20   O     O_3   0.218424 0.669672 0.298402 -0.636410
O21   O     O_3   0.747703 0.402661 0.704956 -0.648339
O22   O     O_3   0.796989 0.679410 0.697290 -0.633768
O23   O     O_3   0.250040 0.396090 0.290080 -0.655987
O24   O     O_3   0.826245 0.950382 0.452091 -0.636743

loop_
_geom_bond_atom_site_label_1
_geom_bond_atom_site_label_2
_ccdc_geom_bond_type
C35   O15   S    
C8    O24   S    
C15   H112  S    
C51   N4    A    
C34   C42   D    
C5    H84   S    
C32   O13   S    
C66   C79   A    
C56   N8    A    
C84   C112  S    
C65   H110  S    
C72   C79   A    
C8    H94   S    
C18   H5    S    
N6    N15   A    
C94   H32   S    
C26   H43   S    
C100  C104  S    
N3    Ni6   S    
C6    H87   S    
N7    Ni8   S    
C6    H85   S    
C42   H50   S    
C57   O1    S    
C40   C43   S    
C27   C97   S    
N21   Ni6   S    
C57   C83   A    
C15   O7    S    
C28   H46   S    
C34   C75   S    
C71   C82   A    
C36   O14   S    
C61   O20   S    
C20   O13   S    
C102  C111  S    
C11   O4    S    
C88   H88   S    
C22   O15   S    
C37   O17   S    
C11   H103  S    
C68   N20   A    
C60   C86   A    
C12   H107  S    
C69   N21   A    
C56   H64   S    
C3    H75   S    
C103  C112  S    
C21   H12   S    
C30   C76   S    
C98   H37   S    
N23   Ni2   S    
C54   N7    A    
C3    O19   S    
C27   H45   S    
C17   H119  S    
N24   N31   A    
C66   H66   S    
C53   C89   A    
N2    Ni6   S    
C57   N9    A    
C23   O16   S    
C45   H52   S    
C7    H90   S    
C71   N24   A    
C29   C113  S    
N27   Ni1   S    
N14   Ni4   S    
C62   O21   S    
C92   C111  S    
C106  C115  S    
C13   C94   S    
C39   H49   S    
N20   Ni5   S    
C43   H53   S    
C4    H81   S    
C28   C108  S    
N4    Ni5   S    
C47   H54   S    
C73   N26   A    
C54   H63   S    
C23   H21   S    
C4    O20   S    
C64   C91   A    
C5    O21   S    
C21   H15   S    
C7    O23   S    
C71   H27   S    
C25   H22   S    
N24   Ni7   S    
C44   N23   A    
C9    H95   S    
C69   H24   S    
C41   H51   S    
C22   H17   S    
C1    C74   A    
C49   C84   A    
C68   H13   S    
C54   C90   A    
N13   Ni2   S    
C32   C74   S    
C33   H33   S    
C68   C74   A    
C97   H36   S    
C44   C76   A    
C60   N13   A    
C61   C87   A    
C33   C75   A    
N8    Ni7   S    
C32   C41   D    
C70   H26   S    
C35   C43   D    
C110  C114  S    
C39   C45   S    
N7    N16   A    
C27   C111  S    
C64   O23   S    
C38   O16   S    
N9    N32   A    
C94   C113  S    
C4    H79   S    
C26   C96   S    
C62   N15   A    
C94   C107  S    
N3    N11   A    
C81   C88   A    
C23   H20   S    
C50   N3    A    
C95   C108  S    
C55   C78   A    
C16   H115  S    
C105  O5    S    
C33   N12   A    
C107  O7    S    
C59   C85   A    
C14   H108  S    
C108  O8    S    
C93   C106  S    
C59   O18   S    
C12   H106  S    
C63   N16   A    
C120  O18   S    
C41   C47   S    
C26   C109  S    
C59   N11   A    
C77   N29   A    
N19   Ni5   S    
C64   N17   A    
C34   O11   S    
C9    H97   S    
C70   N22   A    
N29   Ni4   S    
C108  C117  S    
N26   N29   A    
C5    H83   S    
C7    H91   S    
C118  H67   S    
C31   O9    S    
C120  H73   S    
C91   C114  S    
C24   C103  S    
C50   H59   S    
C53   H62   S    
C92   C110  S    
N12   Ni2   S    
C14   O6    S    
C15   H114  S    
C99   N31   A    
C30   C39   D    
C1    H1    S    
C107  C116  S    
C6    H86   S    
C104  C113  S    
C4    H80   S    
C48   N32   A    
C63   O22   S    
C2    H40   S    
C25   O17   S    
N9    Ni2   S    
C29   C107  S    
C97   C114  S    
C8    H92   S    
C67   N19   A    
C93   C109  S    
N1    N20   A    
C82   C99   A    
C83   C113  S    
C100  C116  S    
C119  H70   S    
C20   H9    S    
C52   N5    A    
C26   C106  S    
C28   C112  S    
C24   C117  S    
C61   N14   A    
C65   C76   A    
C87   C117  S    
C95   C112  S    
C101  C109  S    
C98   C103  S    
C62   C89   A    
C19   H8    S    
C3    H78   S    
C31   C40   D    
C42   C46   S    
N1    Ni1   S    
C53   N6    A    
C101  O24   S    
C6    O22   S    
C50   C85   A    
C56   C91   A    
N18   Ni6   S    
C97   C102  S    
C18   H3    S    
C58   O12   S    
C17   H118  S    
C19   O11   S    
C96   C101  S    
C51   C86   A    
C7    H89   S    
C118  H65   S    
C2    C93   S    
N2    N10   A    
C119  H69   S    
C86   C109  S    
C52   H61   S    
C118  O1    S    
C8    H93   S    
C24   C95   S    
C60   O19   S    
N15   Ni3   S    
C10   O3    S    
N22   N30   A    
C18   O10   S    
C2    C115  S    
N22   Ni8   S    
N5    Ni7   S    
C90   C115  S    
C13   C104  S    
N6    Ni8   S    
C14   H111  S    
C88   N30   A    
C99   H99   S    
N4    N13   A    
C92   H30   S    
C93   H31   S    
C20   H11   S    
C21   H14   S    
C66   N28   A    
C31   C78   S    
C49   H58   S    
C77   C80   A    
C28   C98   S    
N17   Ni4   S    
C29   C100  S    
C73   H29   S    
C106  O6    S    
C85   C111  S    
C11   H104  S    
C48   C83   A    
N5    N14   A    
C22   H18   S    
C19   H6    S    
C3    H76   S    
C95   H34   S    
C29   H47   S    
C65   N18   A    
C104  O4    S    
C72   N25   A    
C69   C75   A    
C13   C116  S    
N19   N27   A    
C17   H120  S    
C100  H38   S    
C92   C105  S    
C22   H16   S    
C27   C105  S    
C44   H44   S    
C37   C46   D    
C77   H77   S    
C119  O12   S    
N32   Ni5   S    
C102  O2    S    
N18   N23   A    
C49   N2    A    
C35   C81   S    
C10   H100  S    
N31   Ni3   S    
C37   C79   S    
C38   C80   S    
C23   H19   S    
C119  H71   S    
C120  H72   S    
C96   H35   S    
C16   H116  S    
N28   Ni3   S    
N10   Ni1   S    
C70   C81   A    
C14   H109  S    
C10   H101  S    
C36   C82   S    
C9    O2    S    
C96   C115  S    
C16   O8    S    
C89   C116  S    
C25   H23   S    
C67   C78   A    
C11   H102  S    
C103  O3    S    
C48   H57   S    
C9    H96   S    
N30   Ni4   S    
C105  C114  S    
C55   N27   A    
C5    H82   S    
C118  H68   S    
N25   Ni7   S    
C2    C101  S    
N26   Ni8   S    
C72   H28   S    
C120  H74   S    
C58   C84   A    
C12   O5    S    
C15   H113  S    
C36   C45   D    
N16   Ni3   S    
C55   H55   S    
C38   C47   D    
C1    N1    A    
N12   N21   A    
C16   H117  S    
C46   H56   S    
C58   N10   A    
C51   H60   S    
C67   H2    S    
C10   H98   S    
C98   C117  S    
C52   C87   A    
C24   H42   S    
C21   O14   S    
N11   Ni1   S    
C20   H10   S    
C13   H41   S    
C12   H105  S    
C17   O9    S    
C63   C90   A    
C19   H7    S    
C73   C80   A    
N25   N28   A    
C40   H48   S    
C102  C110  S    
C30   O10   S    
N8    N17   A    
C25   H25   S    
C110  H39   S    
C18   H4    S    
