data_mof_unit_26968.cif
_audit_creation_date              2012-12-10T18:13:37-0500
_audit_creation_method            fapswitch 2.2
_symmetry_space_group_name_H-M    P1
_symmetry_Int_Tables_number       1
_space_group_crystal_system       triclinic
_cell_length_a                    12.611575
_cell_length_b                    12.972443
_cell_length_c                    16.708786
_cell_angle_alpha                 90.570496
_cell_angle_beta                  98.120013
_cell_angle_gamma                 97.466983
_cell_volume                      2682.13513963

loop_
_atom_site_label
_atom_site_type_symbol
_atom_type_description
_atom_site_fract_x
_atom_site_fract_y
_atom_site_fract_z
_atom_type_partial_charge
C1    C     C_R   0.560303 0.692156 0.508038 0.939988
C2    C     C_R   0.475604 0.493943 0.736316 -0.028366
C3    C     C_R   0.322867 0.068679 0.364015 -0.201039
C4    C     C_R   0.511510 0.492393 0.349225 0.854240
C5    C     C_R   0.408184 0.199010 0.465844 -0.076038
C6    C     C_R   0.688994 0.842749 0.569975 0.397257
C7    C     C_R   0.724284 0.950810 0.575470 0.436721
C8    C     C_R   0.668827 0.018318 0.524716 -0.085150
C9    C     C_R   0.566802 0.978445 0.480322 -0.021884
C10   C     C_R   0.544527 0.871670 0.461675 -0.007686
C11   C     C_R   0.484682 0.039744 0.455012 0.128804
C12   C     C_R   0.601873 0.464817 0.230455 -0.198904
C13   C     C_R   0.400714 0.004006 0.391682 0.173764
C14   C     C_R   0.395370 0.903712 0.358999 -0.263568
C15   C     C_R   0.464887 0.836848 0.395204 -0.146665
C16   C     C_R   0.440272 0.307967 0.489131 0.859614
C17   C     C_R   0.478078 0.130703 0.497292 -0.249895
C18   C     C_R   0.328812 0.167822 0.399474 -0.197465
C19   C     C_R   0.600258 0.803417 0.511452 -0.303678
C20   C     C_R   0.902496 0.356311 0.619448 -0.438894
C21   C     C_R   0.212141 0.630482 0.406033 -0.006816
C22   C     C_R   0.115191 0.670596 0.393795 -0.289165
C23   C     C_R   0.555355 0.467286 0.873029 -0.105086
C24   C     C_R   0.030161 0.630608 0.434992 0.127064
C25   C     C_R   0.041238 0.539599 0.482770 -0.011324
C26   C     C_R   0.145136 0.506873 0.496495 0.161605
C27   C     C_R   0.957952 0.481312 0.519566 -0.030466
C28   C     C_R   0.486542 0.502408 0.650980 0.869992
C29   C     C_R   0.983447 0.404176 0.577179 0.071067
C30   C     C_R   0.087717 0.373609 0.589426 0.060913
C31   C     C_R   0.166004 0.426611 0.548770 -0.229304
C32   C     C_R   0.848405 0.490548 0.497516 -0.193570
C33   C     C_R   0.797568 0.381696 0.603149 0.692516
C34   C     C_R   0.567169 0.490243 0.793692 -0.226414
C35   C     C_R   0.507255 0.458280 0.265765 -0.074570
C36   C     C_R   0.410353 0.405043 0.225292 -0.292077
C37   C     C_R   0.405645 0.363860 0.146772 0.521470
C38   C     C_R   0.500785 0.374474 0.111048 -0.049145
C39   C     C_R   0.598506 0.423306 0.153219 -0.265126
C40   C     C_3   0.845264 0.778807 0.626983 -0.192087
C41   C     C_3   0.728228 0.124231 0.507327 -0.348430
C42   C     C_3   0.746980 0.129043 0.418555 -0.365528
C43   C     C_3   0.805371 0.234734 0.400045 -0.864428
C44   C     C_3   0.777927 0.022101 0.701119 -0.351818
C45   C     C_R   0.372428 0.481893 0.760347 -0.222877
C46   C     C_3   0.743916 0.326229 0.724839 -0.376774
C47   C     C_3   0.112971 0.282137 0.643110 -0.424957
C48   C     C_3   0.222139 0.242413 0.639237 -0.364628
C49   C     C_3   0.233429 0.146515 0.690291 -0.843617
C50   C     C_3   0.941610 0.699577 0.434722 -0.432344
C51   C     C_3   0.870648 0.696598 0.351670 -0.342580
C52   C     C_3   0.770130 0.749277 0.355686 -0.889388
C53   C     C_3   0.575982 0.209896 0.032005 -0.313522
C54   C     C_3   0.220398 0.358637 0.110481 -0.358440
C55   C     C_R   0.360714 0.459103 0.839834 -0.173521
C56   C     C_R   0.451750 0.447936 0.895442 0.219048
C57   C     C_2   0.494127 0.359690 0.023171 0.556838
C58   C     C_2   0.438423 0.425831 0.978817 -0.306637
H1    H     H_    0.339633 0.393534 0.255722 0.158842
H2    H     H_    0.819104 0.529986 0.444527 0.180319
H3    H     H_    0.278610 0.664518 0.376516 0.140495
H4    H     H_    0.109187 0.737752 0.356178 0.145867
H5    H     H_    0.244938 0.405752 0.558930 0.217222
H6    H     H_    0.300510 0.486544 0.717389 0.164832
H7    H     H_    0.386115 0.471784 0.006343 0.118808
H8    H     H_    0.670911 0.433862 0.124551 0.165330
H9    H     H_    0.626990 0.465369 0.916888 0.154130
H10   H     H_    0.677795 0.503120 0.262203 0.153735
H11   H     H_    0.888401 0.821183 0.682620 0.194219
H12   H     H_    0.280697 0.447915 0.857561 0.134016
H13   H     H_    0.876194 0.815187 0.573204 0.139784
H14   H     H_    0.865367 0.698017 0.629515 0.156899
H15   H     H_    0.754889 0.296753 0.409026 0.277968
H16   H     H_    0.884324 0.251443 0.439788 0.265832
H17   H     H_    0.820147 0.234716 0.336100 0.245235
H18   H     H_    0.796236 0.067456 0.405390 0.222385
H19   H     H_    0.668469 0.115371 0.377915 0.236772
H20   H     H_    0.685504 0.189313 0.521621 0.234701
H21   H     H_    0.808491 0.139255 0.545505 0.241412
H22   H     H_    0.738975 0.954371 0.731519 0.193374
H23   H     H_    0.274757 0.220954 0.373457 0.154560
H24   H     H_    0.721334 0.081053 0.688926 0.172532
H25   H     H_    0.848971 0.058620 0.743393 0.184582
H26   H     H_    0.669636 0.312777 0.753794 0.214004
H27   H     H_    0.793055 0.398627 0.752669 0.155291
H28   H     H_    0.787437 0.257992 0.738081 0.155450
H29   H     H_    0.228804 0.165338 0.754612 0.264672
H30   H     H_    0.168575 0.082292 0.667801 0.263253
H31   H     H_    0.312893 0.120064 0.686420 0.250519
H32   H     H_    0.228657 0.221392 0.575600 0.231666
H33   H     H_    0.289875 0.303330 0.662569 0.222930
H34   H     H_    0.333577 0.874982 0.309181 0.135094
H35   H     H_    0.108801 0.304604 0.706871 0.200830
H36   H     H_    0.049416 0.215240 0.624214 0.222162
H37   H     H_    0.717307 0.704737 0.394472 0.269624
H38   H     H_    0.792868 0.830205 0.380417 0.258988
H39   H     H_    0.724091 0.751371 0.294097 0.244264
H40   H     H_    0.917741 0.737451 0.307256 0.216685
H41   H     H_    0.845395 0.615116 0.328956 0.210598
H42   H     H_    0.893262 0.682554 0.484164 0.201380
H43   H     H_    0.979961 0.781173 0.448682 0.195072
H44   H     H_    0.498254 0.167418 0.045588 0.179864
H45   H     H_    0.259854 0.043810 0.314025 0.139352
H46   H     H_    0.633267 0.229549 0.088563 0.167058
H47   H     H_    0.612642 0.156597 0.994961 0.185550
H48   H     H_    0.237337 0.444749 0.106289 0.150121
H49   H     H_    0.187382 0.337231 0.167140 0.173047
H50   H     H_    0.156836 0.330558 0.059319 0.196327
H51   H     H_    0.529727 0.151148 0.554106 0.162340
H52   H     H_    0.456091 0.758250 0.370717 0.146503
H53   H     H_    0.647587 0.503872 0.777072 0.162268
H54   H     H_    0.919519 0.299045 0.664080 0.155909
N1    N     N_R   0.774070 0.445420 0.541180 -0.138719
N2    N     N_R   0.226730 0.554050 0.459240 -0.122583
O1    O     O_R   0.631480 0.627510 0.519670 -0.579073
O2    O     O_3   0.813813 0.990117 0.629833 -0.624923
O3    O     O_3   0.713187 0.334288 0.640768 -0.595143
O4    O     O_3   0.559941 0.299837 0.987547 -0.621743
O5    O     O_3   0.312172 0.308873 0.104225 -0.616881
O6    O     O_R   0.455770 0.662400 0.493360 -0.613421
O7    O     O_R   0.598240 0.480510 0.398910 -0.626198
O8    O     O_R   0.422540 0.515400 0.372600 -0.632521
O9    O     O_R   0.544230 0.337600 0.506640 -0.569929
O10   O     O_R   0.368520 0.372490 0.480330 -0.649905
O11   O     O_R   0.577460 0.484600 0.627400 -0.554023
O12   O     O_R   0.401760 0.519490 0.601090 -0.641870
O13   O     O_3   0.732572 0.775372 0.625871 -0.601734
Zn1   Zn    Zn3+2 0.617320 0.476700 0.517570 0.981437
Zn2   Zn    Zn3+2 0.382680 0.523300 0.482430 0.915524

loop_
_geom_bond_atom_site_label_1
_geom_bond_atom_site_label_2
_ccdc_geom_bond_type
C43   H15   S    
C55   C56   A    
C33   O3    S    
C40   H13   S    
C27   C29   A    
C41   C42   S    
C49   H29   S    
C35   C36   A    
C15   H52   S    
C44   H25   S    
C42   H18   S    
C57   C58   D    
C7    C8    A    
N1    Zn1   S    
C6    C19   A    
C12   H10   S    
C29   C30   A    
C54   H49   S    
C3    C18   A    
C21   C22   A    
C36   C37   A    
C16   O9    A    
C6    O13   S    
C44   H24   S    
C10   C15   A    
C30   C31   A    
C5    C17   A    
C53   H46   S    
C52   H39   S    
C18   H23   S    
C52   H37   S    
C23   H9    S    
C5    C16   S    
C20   H54   S    
C8    C9    A    
C48   H33   S    
O10   Zn2   S    
O11   Zn1   S    
C32   N1    A    
C9    C10   A    
C53   H44   S    
O8    Zn2   S    
C21   H3    S    
C3    C13   A    
C46   H27   S    
C36   H1    S    
C51   H40   S    
C4    C35   S    
C26   C31   A    
C48   H32   S    
C13   C14   A    
C24   C50   S    
C34   H53   S    
C49   H30   S    
C28   O12   A    
C20   C29   A    
C2    C45   A    
C51   H41   S    
C1    C19   S    
C40   H11   S    
C54   H48   S    
C51   C52   S    
C31   H5    S    
C30   C47   S    
C44   H22   S    
C8    C41   S    
O7    Zn1   S    
C41   H20   S    
C53   O4    S    
C5    C18   A    
O12   Zn2   S    
C25   C26   A    
C40   O13   S    
O1    Zn1   S    
O6    Zn2   S    
C46   O3    S    
C1    O6    A    
C7    O2    S    
C26   N2    A    
C37   C38   A    
C45   C55   A    
C22   H4    S    
C38   C57   S    
C58   H7    S    
C47   C48   S    
C37   O5    S    
C10   C19   A    
C23   C34   A    
C14   H34   S    
C50   C51   S    
C47   H35   S    
C4    O8    A    
C24   C25   A    
C12   C35   A    
C9    C11   A    
C23   C56   A    
C50   H43   S    
C46   H26   S    
C20   C33   A    
C48   C49   S    
C39   H8    S    
C22   C24   A    
C42   C43   S    
C32   H2    S    
C28   O11   A    
C43   H17   S    
C3    H45   S    
C11   C17   A    
C40   H14   S    
C27   C32   A    
C50   H42   S    
C49   H31   S    
C21   N2    A    
C17   H51   S    
C41   H21   S    
C6    C7    A    
C25   C27   A    
C45   H6    S    
C33   N1    A    
C54   H50   S    
C12   C39   A    
C16   O10   A    
C11   C13   A    
C2    C34   A    
O9    Zn1   S    
C38   C39   A    
C43   H16   S    
N2    Zn2   S    
C47   H36   S    
C56   C58   S    
C4    O7    A    
C52   H38   S    
C55   H12   S    
C53   H47   S    
C44   O2    S    
C42   H19   S    
C14   C15   A    
C2    C28   S    
C1    O1    A    
C54   O5    S    
C57   O4    S    
C46   H28   S    
