data_mof_unit_37893.cif
_audit_creation_date              2012-12-10T18:51:33-0500
_audit_creation_method            fapswitch 2.2
_symmetry_space_group_name_H-M    P1
_symmetry_Int_Tables_number       1
_space_group_crystal_system       triclinic
_cell_length_a                    10.732579
_cell_length_b                    9.912853
_cell_length_c                    10.506039
_cell_angle_alpha                 89.955008
_cell_angle_beta                  91.600721
_cell_angle_gamma                 90.002305
_cell_volume                      1117.30598196

loop_
_atom_site_label
_atom_site_type_symbol
_atom_type_description
_atom_site_fract_x
_atom_site_fract_y
_atom_site_fract_z
_atom_type_partial_charge
C1    C     C_R   0.872463 0.501319 0.496950 -0.008708
C2    C     C_R   0.127545 0.501341 0.503311 -0.008866
C3    C     C_R   0.260108 0.500251 0.501592 0.852076
C4    C     C_R   0.739894 0.500250 0.498475 0.852058
C5    C     C_R   0.501778 0.499745 0.257474 0.857581
C6    C     C_R   0.498490 0.499633 0.742535 0.858242
C7    C     C_3   0.557620 0.610342 0.041984 -0.170644
C8    C     C_3   0.443134 0.384901 0.957837 -0.159907
C9    C     C_3   0.617930 0.500862 0.959573 -0.189888
C10   C     C_3   0.382682 0.494248 0.040422 -0.189338
C11   C     C_3   0.437617 0.606874 0.957513 -0.173213
C12   C     C_3   0.562886 0.388398 0.042681 -0.161308
C13   C     C_3   0.498237 0.497897 0.877651 0.043573
C14   C     C_3   0.502357 0.498222 0.122357 0.042154
C15   C     C_R   0.572608 0.072644 0.586460 0.166240
C16   C     C_R   0.427066 0.927737 0.413851 0.161908
C17   C     C_R   0.427418 0.072722 0.413555 0.166332
C18   C     C_R   0.572786 0.927601 0.586321 0.162571
C19   C     C_R   0.063650 0.378970 0.505279 -0.216558
C20   C     C_R   0.936048 0.624509 0.498684 -0.200615
C21   C     C_R   0.936385 0.378926 0.496461 -0.215947
C22   C     C_R   0.063934 0.624512 0.500310 -0.200174
H1    H     H_    0.384625 0.694664 0.919028 0.131740
H2    H     H_    0.613972 0.299517 0.081822 0.130396
H3    H     H_    0.606696 0.700850 0.079918 0.133215
H4    H     H_    0.396461 0.293118 0.919172 0.129914
H5    H     H_    0.713481 0.503495 0.921756 0.127069
H6    H     H_    0.287140 0.491576 0.078259 0.127572
H7    H     H_    0.111421 0.283412 0.512816 0.162808
H8    H     H_    0.887581 0.720389 0.498233 0.148001
H9    H     H_    0.888641 0.283289 0.490039 0.163307
H10   H     H_    0.112377 0.720388 0.499686 0.147708
N1    N     N_R   0.500000 0.857200 0.500000 -0.135564
N2    N     N_R   0.500000 0.142800 0.500000 -0.138208
O1    O     O_R   0.316770 0.614620 0.499990 -0.618505
O2    O     O_R   0.683230 0.385380 0.500010 -0.602333
O3    O     O_R   0.683230 0.614620 0.500010 -0.618538
O4    O     O_R   0.316770 0.385380 0.499990 -0.602382
O5    O     O_R   0.499970 0.614650 0.313950 -0.595089
O6    O     O_R   0.500030 0.385350 0.686050 -0.618666
O7    O     O_R   0.500030 0.614650 0.686050 -0.595147
O8    O     O_R   0.499970 0.385350 0.313950 -0.616976
Zn1   Zn    Zn3+2 0.500000 0.653120 0.500000 0.965851
Zn2   Zn    Zn3+2 0.500000 0.346880 0.500000 0.965731
N3    N     N_2   0.640857 0.146920 0.680697 -0.238831
H11   H     H_    0.600561 0.152740 0.768404 0.220237
C23   C     C_3   0.775435 0.138058 0.682776 -0.794914
H12   H     H_    0.809063 0.073695 0.762990 0.216437
H13   H     H_    0.814836 0.240296 0.698304 0.249572
H14   H     H_    0.809887 0.096153 0.592202 0.219905
N4    N     N_2   0.348384 0.853995 0.328192 -0.239385
H15   H     H_    0.254427 0.865089 0.342698 0.212108
C24   C     C_3   0.381519 0.856236 0.195726 -0.762688
H16   H     H_    0.340088 0.944371 0.145634 0.206559
H17   H     H_    0.343432 0.764590 0.148843 0.242507
H18   H     H_    0.484269 0.858428 0.186307 0.236662
N5    N     N_2   0.359146 0.146934 0.319196 -0.238298
H19   H     H_    0.398218 0.150061 0.230752 0.220203
C25   C     C_3   0.224515 0.139530 0.318896 -0.791701
H20   H     H_    0.189260 0.075465 0.239264 0.215009
H21   H     H_    0.185877 0.242176 0.303704 0.249719
H22   H     H_    0.190797 0.097939 0.409965 0.219543
N6    N     N_2   0.650759 0.853590 0.672540 -0.239304
H23   H     H_    0.744837 0.865011 0.658971 0.212324
C26   C     C_3   0.616432 0.855597 0.804667 -0.761807
H24   H     H_    0.652200 0.946967 0.853746 0.206723
H25   H     H_    0.659169 0.767289 0.853367 0.239523
H26   H     H_    0.513648 0.851072 0.813081 0.240422

loop_
_geom_bond_atom_site_label_1
_geom_bond_atom_site_label_2
_ccdc_geom_bond_type
C17   N5    S    
O3    Zn1   S    
C15   C18   A    
C7    C11   S    
C5    O8    A    
C4    O2    A    
C1    C21   A    
C8    C13   S    
C17   N2    A    
C16   N1    A    
O7    Zn1   S    
C3    O4    A    
C22   H10   S    
C15   N2    A    
C23   H12   S    
C7    H3    S    
C16   N4    S    
C3    O1    A    
C8    C12   S    
C26   H26   S    
O1    Zn1   S    
C1    C4    S    
N6    C26   S    
C2    C3    S    
C5    C14   S    
C25   H20   S    
C23   H13   S    
C20   H8    S    
C2    C22   A    
C6    C13   S    
O4    Zn2   S    
C21   H9    S    
N5    H19   S    
C9    C13   S    
O8    Zn2   S    
C11   H1    S    
C19   C21   A    
C20   C22   A    
C23   H14   S    
O6    Zn2   S    
C10   C11   S    
C24   H17   S    
C8    H4    S    
C18   N1    A    
C6    O6    A    
C18   N6    S    
O2    Zn2   S    
N5    C25   S    
C9    C12   S    
C15   N3    S    
N4    C24   S    
C10   H6    S    
N6    H23   S    
N1    Zn1   S    
C11   C13   S    
N2    Zn2   S    
C4    O3    A    
C9    H5    S    
C8    C10   S    
C26   H24   S    
C10   C14   S    
N3    C23   S    
C24   H18   S    
C7    C9    S    
C5    O5    A    
C12   H2    S    
C1    C20   A    
O5    Zn1   S    
C25   H22   S    
C26   H25   S    
C2    C19   A    
N3    H11   S    
C7    C14   S    
N4    H15   S    
C24   H16   S    
C12   C14   S    
C16   C17   A    
C25   H21   S    
C6    O7    A    
C19   H7    S    
