data_mof_unit_11590.cif
_audit_creation_date              2012-12-10T16:58:28-0500
_audit_creation_method            fapswitch 2.2
_symmetry_space_group_name_H-M    P1
_symmetry_Int_Tables_number       1
_space_group_crystal_system       triclinic
_cell_length_a                    7.819306
_cell_length_b                    8.557528
_cell_length_c                    23.09487
_cell_angle_alpha                 91.636827
_cell_angle_beta                  86.390272
_cell_angle_gamma                 93.35146
_cell_volume                      1539.18452355

loop_
_atom_site_label
_atom_site_type_symbol
_atom_type_description
_atom_site_fract_x
_atom_site_fract_y
_atom_site_fract_z
_atom_type_partial_charge
C1    C     C_R   0.545320 0.794389 0.498636 0.986806
C2    C     C_R   0.454682 0.205617 0.501467 0.983735
C3    C     C_R   0.665183 0.390120 0.750874 -0.107871
C4    C     C_R   0.697441 0.627969 0.246278 -0.110450
C5    C     C_R   0.635109 0.394937 0.692839 -0.163204
C6    C     C_R   0.652171 0.623029 0.305043 -0.186207
C7    C     C_R   0.515015 0.493965 0.673577 -0.141401
C8    C     C_R   0.510497 0.527963 0.326164 -0.133850
C9    C     C_R   0.416949 0.585526 0.713932 -0.124159
C10   C     C_R   0.402683 0.448314 0.286645 -0.090458
C11   C     C_R   0.444582 0.576054 0.773752 0.179979
C12   C     C_R   0.434864 0.474592 0.226648 0.183135
C13   C     C_R   0.573243 0.481432 0.791149 0.271315
C14   C     C_R   0.592254 0.550964 0.206719 0.242642
C15   C     C_2   0.569231 0.957836 0.497872 -0.340734
C16   C     C_2   0.430773 0.042180 0.502448 -0.321991
C17   C     C_R   0.503257 0.500696 0.610807 0.917644
C18   C     C_R   0.499160 0.502469 0.388996 0.921306
C19   C     C_R   0.644748 0.386119 0.121753 0.554943
C20   C     C_R   0.696282 0.614951 0.873318 0.547987
C21   C     C_R   0.706592 0.660797 0.114831 0.506648
C22   C     C_R   0.579997 0.351500 0.881770 0.499905
C23   C     C_R   0.733909 0.644779 0.054521 -0.044366
C24   C     C_R   0.610374 0.353145 0.940624 -0.041125
C25   C     C_R   0.686661 0.500775 0.027416 -0.053159
C26   C     C_R   0.676216 0.492490 0.966869 -0.050947
C27   C     C_R   0.642510 0.367426 0.061164 -0.080685
C28   C     C_R   0.724922 0.625098 0.932982 -0.088650
C29   C     C_R   0.795975 0.771718 0.020831 -0.220022
C30   C     C_R   0.568782 0.220427 0.973831 -0.214850
C31   C     C_R   0.796216 0.762832 0.960112 0.204938
C32   C     C_R   0.584957 0.224769 0.033921 0.204460
H1    H     H_    0.840678 0.879516 0.041875 0.186934
H2    H     H_    0.520867 0.113602 0.952852 0.192895
H3    H     H_    0.763023 0.317251 0.764675 0.168371
H4    H     H_    0.818484 0.686538 0.231940 0.182123
H5    H     H_    0.708981 0.322453 0.662523 0.194677
H6    H     H_    0.737044 0.684068 0.334612 0.183512
H7    H     H_    0.700273 0.008207 0.493458 0.210764
H8    H     H_    0.299735 0.991808 0.506899 0.208897
N1    N     N_R   0.652761 0.533134 0.146819 -0.335827
N2    N     N_R   0.617335 0.482768 0.850229 -0.341857
N3    N     N_2   0.950330 0.457950 0.484560 -0.201374
N4    N     N_2   0.049670 0.542050 0.515440 -0.203040
O1    O     O_R   0.389250 0.738570 0.503790 -0.620052
O2    O     O_R   0.610750 0.261430 0.496210 -0.629250
O3    O     O_R   0.678390 0.711620 0.493890 -0.604331
O4    O     O_R   0.321610 0.288380 0.506110 -0.600822
O5    O     O_R   0.355400 0.513520 0.588790 -0.598288
O6    O     O_R   0.644600 0.486480 0.411210 -0.613189
O7    O     O_R   0.644550 0.486570 0.578900 -0.630841
O8    O     O_R   0.355450 0.513430 0.421100 -0.615757
O9    O     O_2   0.632593 0.260290 0.155975 -0.534458
O10   O     O_2   0.743851 0.735666 0.838432 -0.515834
O11   O     O_2   0.727117 0.803174 0.140815 -0.573192
O12   O     O_2   0.509248 0.221239 0.856368 -0.567573
Zn1   Zn    Zn3+2 0.306930 0.518000 0.506610 1.023558
Zn2   Zn    Zn3+2 0.693070 0.482000 0.493390 1.008046
N5    N     N_2   0.855622 0.895378 0.926822 -0.249621
H9    H     H_    0.759509 0.964674 0.916124 0.261367
C33   C     C_3   0.010631 0.982048 0.943080 -0.756399
H10   H     H_    0.062507 0.054844 0.906281 0.268296
H11   H     H_    0.109741 0.900734 0.953242 0.242186
H12   H     H_    0.982440 0.061222 0.980993 0.218164
N6    N     N_2   0.536345 0.089837 0.067512 -0.250436
H13   H     H_    0.637605 0.038975 0.084385 0.292480
C34   C     C_3   0.400984 0.980409 0.049042 -0.750452
H14   H     H_    0.357365 0.903072 0.085499 0.257892
H15   H     H_    0.448975 0.905619 0.012145 0.221587
H16   H     H_    0.289605 0.044184 0.036643 0.244743
C35   C     C_2   0.294168 0.695432 0.693879 0.949586
O13   O     O_2   0.148099 0.695712 0.716113 -0.589086
O14   O     O_R   0.346296 0.799391 0.649698 -0.802727
H17   H     H_    0.251207 0.867423 0.639482 0.350061
C36   C     C_2   0.280238 0.318868 0.305714 0.952098
O15   O     O_2   0.325873 0.221622 0.338404 -0.647837
O16   O     O_R   0.116406 0.303100 0.284359 -0.773211
H18   H     H_    0.048405 0.205317 0.298202 0.349025
N7    N     N_2   0.353661 0.668257 0.816514 -0.293428
H19   H     H_    0.324289 0.777238 0.803531 0.266281
C37   C     C_3   0.211789 0.585122 0.847773 -0.690439
H20   H     H_    0.154308 0.663818 0.881750 0.245498
H21   H     H_    0.256405 0.482032 0.869347 0.236828
H22   H     H_    0.111481 0.545667 0.817751 0.271531
N8    N     N_2   0.321188 0.411249 0.184911 -0.287430
H23   H     H_    0.271835 0.298321 0.191026 0.281554
C38   C     C_3   0.198477 0.518208 0.167665 -0.706344
H24   H     H_    0.122722 0.462563 0.132739 0.234902
H25   H     H_    0.266017 0.626898 0.150669 0.234781
H26   H     H_    0.109358 0.548188 0.205184 0.264833
C39   C     C_2   0.019383 0.377207 0.435802 1.127590
O17   O     O_2   0.029580 0.440284 0.388939 -0.623405
O18   O     O_R   0.045631 0.217961 0.439880 -0.803804
H27   H     H_    0.064405 0.163199 0.400850 0.346876
C40   C     C_2   0.978709 0.602685 0.568524 1.125951
O19   O     O_2   0.978315 0.525623 0.612274 -0.620655
O20   O     O_R   0.923680 0.755143 0.571839 -0.807032
H28   H     H_    0.879236 0.786388 0.612460 0.342793

loop_
_geom_bond_atom_site_label_1
_geom_bond_atom_site_label_2
_ccdc_geom_bond_type
C38   H24   S    
C4    H4    S    
O18   H27   S    
C5    H5    S    
O14   H17   S    
C40   O19   D    
N3    N4    D    
C17   O7    A    
O20   H28   S    
C18   O8    A    
O4    Zn1   S    
N8    H23   S    
C2    O2    A    
O1    Zn1   S    
C12   N8    S    
C6    C8    A    
C23   C29   A    
C24   C26   A    
C15   C16   D    
C29   H1    S    
O5    Zn1   S    
C31   N5    S    
C33   H11   S    
N3    Zn2   S    
C7    C17   S    
C6    H6    S    
C1    C15   S    
C2    C16   S    
C3    C13   A    
C19   O9    S    
N5    H9    S    
O2    Zn2   S    
C10   C12   A    
C13   N2    S    
C37   H21   S    
C37   H20   S    
N8    C38   S    
N5    C33   S    
C30   H2    S    
C34   H14   S    
O6    Zn2   S    
C20   O10   S    
C17   O5    A    
C39   O17   D    
C35   O14   S    
C1    O3    A    
C22   O12   S    
C20   C28   A    
N6    C34   S    
C25   C26   A    
O16   H18   S    
N3    C39   S    
C34   H15   S    
C33   H12   S    
C36   O15   D    
C39   O18   S    
C9    C11   A    
C10   C36   S    
C3    H3    S    
N4    Zn1   S    
C8    C18   S    
O7    Zn2   S    
C36   O16   S    
C15   H7    S    
C11   N7    S    
C16   H8    S    
C14   N1    S    
C21   N1    A    
C4    C6    A    
C12   C14   A    
C21   C23   A    
C22   C24   A    
C37   H22   S    
C19   C27   A    
C18   O6    A    
C5    C7    A    
C7    C9    A    
C21   O11   S    
C27   C32   A    
C26   C28   A    
C28   C31   A    
C9    C35   S    
C3    C5    A    
C20   N2    A    
C40   O20   S    
C25   C27   A    
N7    C37   S    
C34   H16   S    
C2    O4    A    
C38   H25   S    
C35   O13   D    
C29   C31   A    
N4    C40   S    
O3    Zn2   S    
C30   C32   A    
C11   C13   A    
C1    O1    A    
C22   N2    A    
C23   C25   A    
C4    C14   A    
C33   H10   S    
C24   C30   A    
O8    Zn1   S    
N7    H19   S    
C8    C10   A    
N6    H13   S    
C38   H26   S    
C19   N1    A    
C32   N6    S    
