data_mof_unit_7345.cif
_audit_creation_date              2012-10-26T20:39:26-0400
_audit_creation_method            fapswitch 2.2
_symmetry_space_group_name_H-M    P1
_symmetry_Int_Tables_number       1
_space_group_crystal_system       triclinic
_cell_length_a                    14.327612
_cell_length_b                    13.027787
_cell_length_c                    11.748552
_cell_angle_alpha                 100.482598
_cell_angle_beta                  92.746371
_cell_angle_gamma                 91.131653
_cell_volume                      2152.96888857

loop_
_atom_site_label
_atom_site_type_symbol
_atom_type_description
_atom_site_fract_x
_atom_site_fract_y
_atom_site_fract_z
_atom_type_partial_charge
C1    C     C_R   0.498067 0.298911 0.477740 0.549816
C2    C     C_R   0.444885 0.484618 0.850363 0.402546
C3    C     C_R   0.543365 0.517176 0.029848 -0.088726
C4    C     C_R   0.459936 0.475776 0.969558 -0.080937
C5    C     C_R   0.331160 0.500341 0.500724 0.541287
C6    C     C_R   0.668839 0.500330 0.499153 0.525145
C7    C     C_1   0.228888 0.501450 0.501351 -0.050417
C8    C     C_1   0.771089 0.501009 0.497622 -0.054436
C9    C     C_1   0.143408 0.502063 0.500385 -0.062170
C10   C     C_1   0.856531 0.501602 0.497546 -0.058012
C11   C     C_1   0.042712 0.502246 0.499215 -0.016235
C12   C     C_R   0.503069 0.701108 0.522186 0.546376
C13   C     C_1   0.957227 0.502087 0.498287 -0.016005
C14   C     C_R   0.507043 0.815345 0.536247 -0.035072
C15   C     C_R   0.495341 0.184742 0.463539 -0.039883
C16   C     C_R   0.472550 0.011394 0.345635 0.150010
C17   C     C_R   0.537112 0.988522 0.652477 0.149041
C18   C     C_R   0.483113 0.119637 0.353514 0.277724
C19   C     C_R   0.542829 0.879362 0.639769 0.292785
C20   C     C_R   0.507115 0.140466 0.562731 -0.188638
C21   C     C_R   0.477685 0.860264 0.441994 -0.204025
C22   C     C_3   0.681463 0.853916 0.734865 0.001864
C23   C     C_R   0.509763 0.032668 0.554921 -0.032806
C24   C     C_3   0.731472 0.759021 0.761897 -0.377926
C25   C     C_3   0.569884 0.158088 0.209400 0.020949
C26   C     C_3   0.566659 0.195268 0.093895 -0.367741
C27   C     C_3   0.357909 0.934272 0.195410 -0.286513
C28   C     C_3   0.646362 0.111055 0.779056 -0.330172
C29   C     C_3   0.294897 0.535157 0.826559 0.039358
C30   C     C_3   0.195529 0.490459 0.800671 -0.356969
C31   C     C_3   0.617668 0.686737 0.224850 0.036887
C32   C     C_3   0.687442 0.744123 0.317609 -0.358965
C33   C     C_3   0.345428 0.263922 0.935536 0.007324
C34   C     C_R   0.486573 0.967554 0.446638 -0.035753
C35   C     C_3   0.268162 0.204879 0.855166 -0.365030
C36   C     C_3   0.755367 0.476970 0.007000 0.010188
C37   C     C_3   0.849946 0.501090 0.071813 -0.355657
C38   C     C_R   0.395049 0.424605 0.029494 0.198107
C39   C     C_R   0.616718 0.546148 0.964597 0.189436
C40   C     C_R   0.408548 0.429299 0.149459 0.004384
C41   C     C_R   0.600581 0.547331 0.846179 0.009930
C42   C     C_R   0.551326 0.525571 0.153012 0.394286
Cu1   Cu    Cu3+1 0.506360 0.507730 0.615930 0.971148
Cu2   Cu    Cu3+1 0.493640 0.492270 0.384070 0.972371
H1    H     H_    0.448288 0.810586 0.364395 0.136999
H2    H     H_    0.596969 0.077385 0.194581 0.136479
H3    H     H_    0.619560 0.210349 0.270633 0.127755
H4    H     H_    0.637635 0.193263 0.059745 0.081104
H5    H     H_    0.518543 0.143732 0.030394 0.155395
H6    H     H_    0.542439 0.276537 0.105172 0.152714
H7    H     H_    0.493009 0.881128 0.217362 0.223680
H8    H     H_    0.351722 0.889574 0.105278 0.135005
H9    H     H_    0.325555 0.011236 0.196438 0.181062
H10   H     H_    0.319827 0.890352 0.252358 0.126230
H11   H     H_    0.502791 0.093151 0.798866 0.234061
H12   H     H_    0.516575 0.191058 0.646253 0.158108
H13   H     H_    0.683057 0.100173 0.861085 0.137000
H14   H     H_    0.633873 0.195777 0.785992 0.121825
H15   H     H_    0.692608 0.085599 0.706409 0.138357
H16   H     H_    0.305569 0.598555 0.776288 0.138463
H17   H     H_    0.301521 0.570724 0.920522 0.113815
H18   H     H_    0.145425 0.554920 0.806323 0.085479
H19   H     H_    0.188588 0.441885 0.712718 0.164410
H20   H     H_    0.177594 0.440794 0.864293 0.182472
H21   H     H_    0.546174 0.711310 0.247078 0.113018
H22   H     H_    0.631997 0.711884 0.141956 0.158058
H23   H     H_    0.658439 0.567411 0.798793 0.144885
H24   H     H_    0.678243 0.829686 0.327451 0.083049
H25   H     H_    0.676639 0.720059 0.402023 0.159186
H26   H     H_    0.759844 0.725849 0.292478 0.153962
H27   H     H_    0.356032 0.224729 0.011663 0.137589
H28   H     H_    0.410669 0.259723 0.886860 0.128561
H29   H     H_    0.256951 0.241769 0.777665 0.178161
H30   H     H_    0.288104 0.122608 0.826592 0.093199
H31   H     H_    0.202098 0.205883 0.901042 0.146947
H32   H     H_    0.767051 0.442730 0.914960 0.109858
H33   H     H_    0.717469 0.418381 0.047494 0.138578
H34   H     H_    0.357949 0.391113 0.194376 0.161596
H35   H     H_    0.840185 0.534344 0.164340 0.179706
H36   H     H_    0.889867 0.428343 0.066790 0.088610
H37   H     H_    0.890416 0.558194 0.032704 0.148762
H38   H     H_    0.699680 0.919391 0.807307 0.159220
H39   H     H_    0.709815 0.872522 0.653672 0.096016
H40   H     H_    0.714971 0.691118 0.691524 0.162630
H41   H     H_    0.808205 0.774590 0.768124 0.090729
H42   H     H_    0.709784 0.741990 0.846132 0.169769
N1    N     N_R   0.515930 0.519350 0.790130 -0.251619
N2    N     N_R   0.484070 0.480650 0.209870 -0.259293
N3    N     N_2   0.455425 0.948318 0.233758 -0.501868
N4    N     N_2   0.558363 0.051754 0.763644 -0.499208
O1    O     O_R   0.504510 0.354460 0.582000 -0.496364
O2    O     O_3   0.479348 0.160891 0.252802 -0.533729
O3    O     O_3   0.359133 0.454870 0.794141 -0.494782
O4    O     O_3   0.627278 0.577743 0.216749 -0.491849
O5    O     O_3   0.318897 0.368112 0.971963 -0.547474
O6    O     O_3   0.705800 0.570297 0.013841 -0.557004
O7    O     O_R   0.495490 0.645540 0.418000 -0.509189
O8    O     O_R   0.493770 0.341410 0.386200 -0.457534
O9    O     O_R   0.506230 0.658590 0.613800 -0.447265
O10   O     O_R   0.381420 0.506530 0.597920 -0.442928
O11   O     O_R   0.618580 0.493470 0.402080 -0.428362
O12   O     O_R   0.370680 0.493470 0.402120 -0.500196
O13   O     O_R   0.629320 0.506530 0.597880 -0.520639
O14   O     O_3   0.583332 0.834622 0.727845 -0.522075

loop_
_geom_bond_atom_site_label_1
_geom_bond_atom_site_label_2
_ccdc_geom_bond_type
C31   H22   S    
C38   C40   A    
C35   H30   S    
C30   H20   S    
C15   C18   A    
C20   H12   S    
C27   H10   S    
C3    C42   A    
C28   H13   S    
C37   H35   S    
C35   H31   S    
C17   C23   A    
C22   H38   S    
C14   C21   A    
C36   C37   S    
Cu1   O9    S    
H11   N4    S    
C36   H33   S    
C26   H6    S    
C22   O14   S    
C7    C9    T    
Cu2   O7    S    
C6    O11   A    
C12   O9    A    
C36   H32   S    
C33   H28   S    
C16   C34   A    
C29   H16   S    
Cu2   O8    S    
C38   O5    S    
C5    O10   A    
C1    C15   S    
C24   H41   S    
C25   H3    S    
C26   H4    S    
C32   H24   S    
C3    C39   A    
C16   N3    S    
C1    O1    A    
C30   H19   S    
C37   H37   S    
C33   O5    S    
C21   H1    S    
C15   C20   A    
C41   N1    A    
C37   H36   S    
C29   H17   S    
Cu1   O10   S    
C41   H23   S    
C26   H5    S    
C5    C7    S    
Cu2   O12   S    
C17   C19   A    
C6    C8    S    
C21   C34   A    
C25   C26   S    
Cu1   O1    S    
C2    C4    A    
Cu1   Cu2   S    
C29   C30   S    
C19   O14   S    
C36   O6    S    
C31   C32   S    
C20   C23   A    
C23   C34   A    
C2    N1    A    
C6    O13   A    
C9    C11   S    
C12   O7    A    
C8    C10   T    
C4    C38   A    
C30   H18   S    
C22   C24   S    
C42   N2    A    
C3    C4    A    
C27   H8    S    
C28   H15   S    
C31   H21   S    
C5    O12   A    
C35   H29   S    
C25   O2    S    
C42   O4    S    
C14   C19   A    
C2    O3    S    
C17   N4    S    
C12   C14   S    
C10   C13   S    
C1    O8    A    
C32   H26   S    
Cu2   O11   S    
C27   H9    S    
C32   H25   S    
C28   H14   S    
C31   O4    S    
Cu1   N1    S    
C22   H39   S    
C40   N2    A    
C24   H40   S    
C18   O2    S    
H7    N3    S    
C29   O3    S    
C11   C13   T    
C33   C35   S    
C27   N3    S    
C40   H34   S    
Cu1   O13   S    
C39   O6    S    
C33   H27   S    
C39   C41   A    
C16   C18   A    
C28   N4    S    
Cu2   N2    S    
C24   H42   S    
C25   H2    S    
