data_mof_unit_56592.cif
_audit_creation_date              2012-12-10T17:03:38-0500
_audit_creation_method            fapswitch 2.2
_symmetry_space_group_name_H-M    P1
_symmetry_Int_Tables_number       1
_space_group_crystal_system       triclinic
_cell_length_a                    10.095751
_cell_length_b                    10.643791
_cell_length_c                    12.950956
_cell_angle_alpha                 90.766555
_cell_angle_beta                  72.56196
_cell_angle_gamma                 91.532049
_cell_volume                      1327.21703352

loop_
_atom_site_label
_atom_site_type_symbol
_atom_type_description
_atom_site_fract_x
_atom_site_fract_y
_atom_site_fract_z
_atom_type_partial_charge
C1    C     C_R   0.502152 0.737221 0.500112 0.894942
C2    C     C_R   0.379171 0.455251 0.817580 -0.198829
C3    C     C_2   0.621983 0.063752 0.426903 0.247110
C4    C     C_R   0.424520 0.489265 0.703146 0.923457
C5    C     C_2   0.506535 0.133087 0.456902 0.381352
C6    C     C_2   0.600031 0.930068 0.414831 0.235414
C7    C     C_2   0.511904 0.869882 0.499508 0.410780
C8    C     C_2   0.106420 0.530659 0.418002 0.720576
C9    C     C_2   0.961137 0.501149 0.413894 0.652604
C10   C     C_R   0.502318 0.262780 0.489897 0.795102
C11   C     C_R   0.575410 0.492605 0.295991 1.009546
C12   C     C_R   0.428756 0.393307 0.979768 -0.050941
C13   C     C_R   0.766827 0.341279 0.028681 0.713845
C14   C     C_R   0.614883 0.452808 0.182264 -0.322376
C15   C     C_R   0.242622 0.481764 0.880341 -0.300260
C16   C     C_R   0.194371 0.444657 0.988200 0.686377
C17   C     C_R   0.285913 0.392449 0.037117 0.393917
C18   C     C_R   0.469819 0.398093 0.866889 0.004144
C19   C     C_R   0.533141 0.393151 0.030629 -0.065063
C20   C     C_R   0.665186 0.346853 0.974979 -0.100495
C21   C     C_R   0.693424 0.314134 0.865523 -0.020118
C22   C     C_R   0.599018 0.345198 0.810305 -0.044619
C23   C     C_R   0.514745 0.457030 0.128235 0.655947
C24   C     C_R   0.740201 0.391792 0.133213 -0.216092
F1    F     F_    0.383210 0.080926 0.452325 -0.603543
F2    F     F_    0.449957 0.929988 0.594705 -0.624889
F3    F     F_    0.194486 0.595251 0.334771 -0.504037
F4    F     F_    0.943916 0.481622 0.314987 -0.554513
F5    F     F_    0.890974 0.288087 0.980178 -0.588724
F6    F     F_    0.405431 0.534447 0.165093 -0.550152
F7    F     F_    0.059129 0.459796 0.044499 -0.566794
H1    H     H_    0.817000 0.383260 0.175496 0.306202
H2    H     H_    0.084612 0.435714 0.551849 0.154220
H3    H     H_    0.792256 0.275159 0.820656 0.212638
H4    H     H_    0.171231 0.525498 0.844624 0.230343
H5    H     H_    0.627467 0.324619 0.724697 0.186017
H6    H     H_    0.793687 0.921016 0.127285 0.408465
H7    H     H_    0.004552 0.732133 0.644030 0.404880
H8    H     H_    0.285396 0.110209 0.192738 0.407509
H9    H     H_    0.000178 0.042838 0.359662 0.408216
N1    N     N_2   0.148270 0.498670 0.498870 -0.230091
N2    N     N_2   0.852610 0.498640 0.498840 -0.055595
O1    O     O_R   0.386950 0.680940 0.500020 -0.557467
O2    O     O_2   0.568820 0.783926 0.253016 -0.279467
O3    O     O_3   0.748924 0.968310 0.194547 -0.469601
O4    O     O_2   0.733660 0.664727 0.656602 -0.195757
O5    O     O_2   0.883990 0.509393 0.696082 -0.352519
O6    O     O_3   0.993074 0.701372 0.574617 -0.547948
O7    O     O_2   0.221816 0.349701 0.251783 -0.251300
O8    O     O_2   0.075538 0.244996 0.154738 -0.157718
O9    O     O_3   0.323209 0.162150 0.127067 -0.535753
O10   O     O_2   0.831213 0.227052 0.339612 -0.244904
O11   O     O_2   0.802557 0.158258 0.525457 -0.296035
O12   O     O_R   0.613110 0.680900 0.499980 -0.570766
O13   O     O_3   0.907700 0.002799 0.368737 -0.429058
O14   O     O_R   0.330780 0.500000 0.653640 -0.612925
O15   O     O_R   0.556930 0.499960 0.653610 -0.572734
O16   O     O_R   0.386890 0.319100 0.500020 -0.573166
O17   O     O_R   0.613050 0.319060 0.499980 -0.606147
O18   O     O_R   0.443070 0.500040 0.346390 -0.517172
O19   O     O_R   0.669220 0.500000 0.346360 -0.557208
O20   O     O_2   0.788539 0.770470 0.296210 -0.210202
S1    S     S_3+6 0.677660 0.857542 0.287458 0.093758
S2    S     S_3+6 0.863484 0.592318 0.609370 0.075671
S3    S     S_3+6 0.221041 0.287992 0.147371 0.128851
S4    S     S_3+6 0.793882 0.117833 0.415937 0.096872
Zn1   Zn    Zn3+2 0.349000 0.500030 0.500020 1.127846
Zn2   Zn    Zn3+2 0.651000 0.499970 0.499980 1.168379

loop_
_geom_bond_atom_site_label_1
_geom_bond_atom_site_label_2
_ccdc_geom_bond_type
C4    O15   A    
C12   C17   A    
C2    C4    S    
C1    O12   A    
C24   H1    S    
O1    Zn1   S    
C6    C7    D    
C2    C15   A    
H6    O3    S    
O17   Zn2   S    
C2    C18   A    
O14   Zn1   S    
C22   H5    S    
H7    O6    S    
C19   C20   A    
H9    O13   S    
H2    N1    S    
C3    C6    S    
C10   O17   A    
C9    F4    S    
C5    C10   S    
N1    Zn1   S    
C18   C22   A    
C21   C22   A    
C20   C21   A    
C16   F7    S    
N2    Zn2   S    
O11   S4    D    
O19   Zn2   S    
C9    N2    D    
O20   S1    D    
C7    F2    S    
O7    S3    D    
C14   C24   A    
C5    F1    S    
C12   C19   A    
C15   H4    S    
C10   O16   A    
C14   C23   A    
O3    S1    S    
O2    S1    D    
O8    S3    D    
O6    S2    S    
C3    S4    S    
O12   Zn2   S    
O15   Zn2   S    
C12   C18   A    
C15   C16   A    
C23   F6    S    
N2    S2    S    
O16   Zn1   S    
O5    S2    D    
O13   S4    S    
O10   S4    D    
C8    N1    D    
O18   Zn1   S    
C6    S1    S    
O9    S3    S    
C13   F5    S    
C11   C14   S    
C8    F3    S    
C19   C23   A    
C16   C17   A    
C21   H3    S    
C13   C20   A    
C3    C5    D    
H8    O9    S    
C1    C7    S    
C17   S3    S    
C1    O1    A    
C4    O14   A    
C11   O18   A    
C13   C24   A    
O4    S2    D    
C8    C9    S    
C11   O19   A    
