data_mof_unit_22563.cif
_audit_creation_date              2012-12-10T16:51:33-0500
_audit_creation_method            fapswitch 2.2
_symmetry_space_group_name_H-M    P1
_symmetry_Int_Tables_number       1
_space_group_crystal_system       triclinic
_cell_length_a                    7.829738
_cell_length_b                    8.56978
_cell_length_c                    12.05615
_cell_angle_alpha                 92.238616
_cell_angle_beta                  101.300627
_cell_angle_gamma                 94.244314
_cell_volume                      789.910452156

loop_
_atom_site_label
_atom_site_type_symbol
_atom_type_description
_atom_site_fract_x
_atom_site_fract_y
_atom_site_fract_z
_atom_type_partial_charge
C1    C     C_R   0.045931 0.794865 0.501066 0.966531
C2    C     C_R   0.163400 0.525090 0.832317 -0.067407
C3    C     C_2   0.068278 0.958963 0.501859 -0.498562
C4    C     C_R   0.106849 0.509033 0.710479 0.821179
C5    C     C_2   0.943373 0.045898 0.528021 0.332184
C6    C     C_R   0.957657 0.206182 0.507575 0.866368
C7    C     C_R   0.891882 0.484674 0.289732 0.910495
C8    C     C_R   0.768903 0.242295 0.019118 -0.262151
C9    C     C_R   0.828747 0.443395 0.170735 -0.155012
C10   C     C_R   0.098242 0.641866 0.893019 -0.201732
C11   C     C_R   0.183951 0.689131 0.002358 -0.172952
C12   C     C_R   0.406336 0.507624 0.987827 0.088587
C13   C     C_R   0.339911 0.626950 0.048483 -0.204462
C14   C     C_3   0.156469 0.249900 0.130556 -0.294858
C15   C     C_3   0.852917 0.995671 0.691620 -0.224460
C16   C     C_3   0.432728 0.971728 0.858046 -0.348226
C17   C     C_R   0.305226 0.445638 0.884062 -0.006363
C18   C     C_R   0.568437 0.446545 0.027065 0.015402
C19   C     C_R   0.612947 0.308324 0.973814 -0.029087
C20   C     C_R   0.497309 0.235006 0.879501 0.533602
C21   C     C_R   0.348237 0.307069 0.832866 -0.314189
C22   C     C_R   0.686616 0.518690 0.119212 -0.309342
C23   C     C_R   0.875901 0.307195 0.119348 0.509111
H1    H     H_    0.469424 0.374995 0.416211 0.196031
H2    H     H_    0.210626 0.373686 0.148949 0.189611
H3    H     H_    0.130984 0.219207 0.037821 0.148339
H4    H     H_    0.257337 0.174955 0.171901 0.183801
H5    H     H_    0.873060 0.119769 0.725527 0.160390
H6    H     H_    0.972597 0.934040 0.720921 0.108205
H7    H     H_    0.746702 0.936184 0.727081 0.218459
H8    H     H_    0.291341 0.980314 0.823711 0.157791
H9    H     H_    0.456431 0.962692 0.951649 0.171012
H10   H     H_    0.469474 0.861622 0.820924 0.200185
H11   H     H_    0.530569 0.625067 0.583746 0.201332
H12   H     H_    0.802166 0.134387 0.981819 0.183731
H13   H     H_    0.664506 0.628643 0.158664 0.160965
H14   H     H_    0.986479 0.701646 0.853977 0.144735
H15   H     H_    0.401505 0.669970 0.133174 0.143148
H16   H     H_    0.134062 0.779468 0.049504 0.154050
H17   H     H_    0.264062 0.251422 0.757420 0.165958
H18   H     H_    0.182483 0.008150 0.472448 0.177447
N1    N     N_2   0.434800 0.456690 0.470850 -0.161683
N2    N     N_2   0.565200 0.543310 0.529150 -0.156329
O1    O     O_R   0.893060 0.738880 0.507150 -0.545848
O2    O     O_3   0.802606 0.986772 0.572456 -0.569801
O3    O     O_3   0.535910 0.098849 0.827666 -0.624625
O4    O     O_R   0.172250 0.711130 0.488470 -0.625313
O5    O     O_R   0.944700 0.520730 0.667600 -0.618945
O6    O     O_R   0.223890 0.492980 0.648920 -0.612746
O7    O     O_R   0.827750 0.288870 0.511530 -0.590122
O8    O     O_R   0.106940 0.261120 0.492850 -0.631673
O9    O     O_R   0.776110 0.507020 0.351080 -0.627991
O10   O     O_R   0.055300 0.479270 0.332400 -0.584233
O11   O     O_3   0.005628 0.222204 0.176473 -0.614179
Zn1   Zn    Zn3+2 0.813580 0.518530 0.512470 0.979408
Zn2   Zn    Zn3+2 0.186420 0.481470 0.487530 0.964233

loop_
_geom_bond_atom_site_label_1
_geom_bond_atom_site_label_2
_ccdc_geom_bond_type
C12   C17   A    
O5    Zn1   S    
C2    C4    S    
C16   H10   S    
C16   H9    S    
O6    Zn2   S    
H1    N1    S    
N1    N2    D    
C1    O1    A    
C19   C20   A    
O9    Zn1   S    
C4    O6    A    
C20   C21   A    
C13   H15   S    
C14   H3    S    
C2    C17   A    
C11   H16   S    
C11   C13   A    
O1    Zn1   S    
C15   H5    S    
C21   H17   S    
C23   O11   S    
C10   H14   S    
N2    Zn1   S    
C14   O11   S    
C7    O9    A    
C15   H6    S    
C14   H2    S    
C5    C6    S    
C14   H4    S    
C20   O3    S    
C9    C22   A    
O10   Zn2   S    
C8    C19   A    
C3    H18   S    
C10   C11   A    
C7    O10   A    
C12   C18   A    
C2    C10   A    
C3    C5    D    
C8    C23   A    
C22   H13   S    
C12   C13   A    
C15   H7    S    
C18   C19   A    
C4    O5    A    
C6    O8    A    
C16   O3    S    
C7    C9    S    
C15   O2    S    
C16   H8    S    
C1    O4    A    
C9    C23   A    
C6    O7    A    
N1    Zn2   S    
C18   C22   A    
C5    O2    S    
C17   C21   A    
H11   N2    S    
O7    Zn1   S    
O4    Zn2   S    
C1    C3    S    
C8    H12   S    
O8    Zn2   S    
