data_mof_unit_58382.cif
_audit_creation_date              2012-12-10T17:43:33-0500
_audit_creation_method            fapswitch 2.2
_symmetry_space_group_name_H-M    P1
_symmetry_Int_Tables_number       1
_space_group_crystal_system       triclinic
_cell_length_a                    14.894509
_cell_length_b                    10.720382
_cell_length_c                    9.982342
_cell_angle_alpha                 88.949053
_cell_angle_beta                  90.303112
_cell_angle_gamma                 94.484788
_cell_volume                      1588.76912395

loop_
_atom_site_label
_atom_site_type_symbol
_atom_type_description
_atom_site_fract_x
_atom_site_fract_y
_atom_site_fract_z
_atom_type_partial_charge
C1    C     C_R   0.505383 0.260371 0.502029 0.864611
C2    C     C_R   0.179404 0.378826 0.508907 0.363875
C3    C     C_R   0.231944 0.493826 0.498837 -0.152806
C4    C     C_R   0.327451 0.498784 0.499808 0.854293
C5    C     C_R   0.194028 0.607206 0.484318 -0.283609
C6    C     C_R   0.524436 0.106131 0.756244 -0.144403
C7    C     C_R   0.498847 0.040764 0.873826 -0.156038
C8    C     C_R   0.449511 0.925648 0.866573 -0.183044
C9    C     C_R   0.434188 0.870440 0.742495 -0.122785
C10   C     C_R   0.468108 0.930714 0.623557 0.064257
C11   C     C_R   0.500498 0.056454 0.628928 0.096551
C12   C     C_R   0.914293 0.619564 0.488056 0.134571
C13   C     C_R   0.506574 0.125967 0.506441 -0.151139
C14   C     C_R   0.495956 0.065902 0.383692 -0.279358
C15   C     C_R   0.479412 0.938408 0.378948 0.107014
C16   C     C_R   0.489217 0.737712 0.499251 0.877763
C17   C     C_R   0.472912 0.869119 0.499650 -0.148697
C18   C     C_R   0.379076 0.313815 0.129296 0.124031
C19   C     C_R   0.330778 0.224113 0.048908 0.053802
C20   C     C_R   0.334459 0.233968 0.911926 -0.239097
C21   C     C_R   0.387130 0.329446 0.852794 -0.140781
C22   C     C_R   0.443364 0.414311 0.926337 0.056082
C23   C     C_R   0.935747 0.273442 0.501103 -0.250056
C24   C     C_R   0.441846 0.411186 0.070891 0.081314
C25   C     C_R   0.556239 0.581339 0.068615 0.099136
C26   C     C_R   0.555876 0.580334 0.925512 0.156238
C27   C     C_R   0.672553 0.501748 0.500265 0.870218
C28   C     C_R   0.819843 0.619701 0.492956 0.037466
C29   C     C_R   0.767994 0.504901 0.500508 -0.092408
C30   C     C_R   0.805970 0.391224 0.504320 -0.246879
C31   C     C_R   0.898280 0.388629 0.500203 0.048541
C32   C     C_R   0.953106 0.501982 0.492225 -0.003038
C33   C     C_R   0.028223 0.267478 0.494440 0.469691
C34   C     C_R   0.085422 0.379798 0.496352 -0.031746
C35   C     C_R   0.046722 0.497221 0.490047 -0.061814
C36   C     C_R   0.101700 0.610194 0.483311 0.128602
C37   C     C_R   0.064331 0.725315 0.476443 -0.259298
C38   C     C_R   0.971401 0.731649 0.479066 0.094476
H1    H     H_    0.564883 0.193350 0.767503 0.169180
H2    H     H_    0.107545 0.811528 0.470389 0.166777
H3    H     H_    0.499778 0.117533 0.289235 0.173626
H4    H     H_    0.737372 0.738131 0.577485 0.192289
H5    H     H_    0.733685 0.735980 0.407474 0.181789
H6    H     H_    0.409681 0.914983 0.206317 0.175715
H7    H     H_    0.521928 0.909911 0.191068 0.165945
H8    H     H_    0.604741 0.758249 0.105817 0.155362
H9    H     H_    0.615151 0.661456 0.235145 0.259734
H10   H     H_    0.285396 0.322867 0.270625 0.195875
H11   H     H_    0.359583 0.216821 0.303708 0.200631
H12   H     H_    0.515303 0.081030 0.970428 0.136992
H13   H     H_    0.293634 0.039919 0.076400 0.186289
H14   H     H_    0.207378 0.133654 0.074464 0.199712
H15   H     H_    0.603217 0.756142 0.871080 0.178466
H16   H     H_    0.682452 0.650730 0.880781 0.185915
H17   H     H_    0.104275 0.156687 0.408947 0.358816
H18   H     H_    0.283068 0.279352 0.546069 0.318055
H19   H     H_    0.959586 0.898161 0.384612 0.205591
H20   H     H_    0.962667 0.904341 0.553811 0.224699
H21   H     H_    0.425639 0.877131 0.957067 0.136124
H22   H     H_    0.395393 0.780822 0.740424 0.162437
H23   H     H_    0.294635 0.168068 0.850356 0.185432
H24   H     H_    0.382472 0.332450 0.747308 0.225062
H25   H     H_    0.762995 0.304585 0.509343 0.136132
H26   H     H_    0.892760 0.186923 0.502792 0.170501
H27   H     H_    0.237082 0.693699 0.477090 0.146294
N1    N     N_R   0.499150 0.498800 0.142780 -0.125927
N2    N     N_R   0.499120 0.498720 0.857170 -0.130812
N3    N     N_3   0.776303 0.734754 0.490938 -0.432318
N4    N     N_3   0.466664 0.880793 0.251063 -0.430181
N5    N     N_3   0.620461 0.667887 0.132270 -0.463137
N6    N     N_3   0.353858 0.307456 0.265928 -0.356648
N7    N     N_3   0.273079 0.125307 0.109034 -0.485301
N8    N     N_3   0.616641 0.664304 0.850180 -0.391235
N9    N     N_3   0.936498 0.852531 0.472804 -0.421969
O1    O     O_R   0.500000 0.316780 0.614690 -0.660014
O2    O     O_3   0.216980 0.266690 0.536102 -0.771822
O3    O     O_R   0.499990 0.316750 0.385360 -0.605383
O4    O     O_R   0.367850 0.499980 0.614680 -0.645105
O5    O     O_R   0.367840 0.499960 0.385350 -0.593741
O6    O     O_R   0.500010 0.683250 0.614640 -0.614100
O7    O     O_R   0.500000 0.683220 0.385310 -0.611358
O8    O     O_R   0.632160 0.500040 0.614650 -0.596566
O9    O     O_R   0.632150 0.500020 0.385320 -0.629108
O10   O     O_3   0.059451 0.150700 0.482303 -0.748820
Zn1   Zn    Zn3+2 0.500010 0.500020 0.653130 0.934392
Zn2   Zn    Zn3+2 0.499990 0.499980 0.346870 0.950180

loop_
_geom_bond_atom_site_label_1
_geom_bond_atom_site_label_2
_ccdc_geom_bond_type
H18   O2    S    
C27   C29   S    
C1    O3    A    
C35   C36   A    
C7    C8    A    
C29   C30   A    
C12   C28   A    
C18   C24   A    
C26   N2    A    
C21   C22   A    
C36   C37   A    
C28   N3    S    
C37   C38   A    
C18   C19   A    
C37   H2    S    
C8    H21   S    
C30   C31   A    
C10   C17   A    
C5    C36   A    
C26   N8    S    
C34   C35   A    
C20   H23   S    
O1    Zn1   S    
C19   C20   A    
C8    C9    A    
C23   C33   A    
C9    C10   A    
O7    Zn2   S    
C24   N1    A    
C2    C34   A    
C13   C14   A    
C12   C32   A    
H4    N3    S    
C19   N7    S    
C15   N4    S    
N2    Zn1   S    
H7    N4    S    
C1    O1    A    
C32   C35   A    
C4    O5    A    
C5    H27   S    
C6    C11   A    
C16   C17   S    
C25   C26   A    
C16   O6    A    
C23   C31   A    
H19   N9    S    
H9    N5    S    
C4    O4    A    
O6    Zn1   S    
H14   N7    S    
H16   N8    S    
C31   C32   A    
C33   C34   A    
H6    N4    S    
C21   H24   S    
C14   H3    S    
O4    Zn1   S    
C23   H26   S    
O3    Zn2   S    
C22   C24   A    
C1    C13   S    
H13   N7    S    
H10   N6    S    
C3    C4    S    
C2    O2    S    
H20   N9    S    
C38   N9    S    
C18   N6    S    
C15   C17   A    
C28   C29   A    
C6    H1    S    
C27   O8    A    
H15   N8    S    
C25   N1    A    
C7    H12   S    
C3    C5    A    
N1    Zn2   S    
C6    C7    A    
O8    Zn1   S    
H5    N3    S    
C9    H22   S    
C27   O9    A    
C2    C3    A    
C11   C13   A    
C16   O7    A    
C12   C38   A    
C33   O10   S    
C22   N2    A    
H8    N5    S    
C10   C11   A    
O9    Zn2   S    
C20   C21   A    
H11   N6    S    
C14   C15   A    
C25   N5    S    
H17   O10   S    
C30   H25   S    
O5    Zn2   S    
