data_mof_unit_30776.cif
_audit_creation_date              2012-12-10T16:53:30-0500
_audit_creation_method            fapswitch 2.2
_symmetry_space_group_name_H-M    P1
_symmetry_Int_Tables_number       1
_space_group_crystal_system       triclinic
_cell_length_a                    7.861403
_cell_length_b                    8.597709
_cell_length_c                    13.577548
_cell_angle_alpha                 92.485357
_cell_angle_beta                  79.493638
_cell_angle_gamma                 92.749201
_cell_volume                      900.722941726

loop_
_atom_site_label
_atom_site_type_symbol
_atom_type_description
_atom_site_fract_x
_atom_site_fract_y
_atom_site_fract_z
_atom_type_partial_charge
C1    C     C_R   0.544232 0.793967 0.498117 0.926837
C2    C     C_1   0.555207 0.445715 0.121939 -0.023058
C3    C     C_2   0.560062 0.955772 0.513365 0.097402
C4    C     C_2   0.439881 0.044252 0.486700 0.098805
C5    C     C_2   0.239361 0.461400 0.042888 0.421836
C6    C     C_2   0.732123 0.385367 0.956427 0.427327
C7    C     C_2   0.039050 0.407423 0.378137 0.751566
C8    C     C_2   0.960742 0.593626 0.621665 0.721810
C9    C     C_R   0.455759 0.206041 0.501907 0.935251
C10   C     C_R   0.471456 0.502029 0.686831 0.897944
C11   C     C_R   0.528112 0.495181 0.313115 0.893582
C12   C     C_1   0.543608 0.471016 0.209393 -0.060157
C13   C     C_1   0.449253 0.485093 0.790304 -0.060413
C14   C     C_2   0.559751 0.419206 0.018003 -0.013066
C15   C     C_2   0.414595 0.441941 0.981103 -0.001745
C16   C     C_1   0.429502 0.465443 0.877541 -0.026917
Cl1   Cl    Cl    0.714398 0.020910 0.588798 -0.462632
Cl2   Cl    Cl    0.285399 0.979184 0.411352 -0.483898
H1    H     H_    0.141160 0.516383 0.011182 0.053743
H2    H     H_    0.846519 0.397166 0.990867 0.063766
H3    H     H_    0.091087 0.492344 0.322653 0.058801
H4    H     H_    0.909354 0.509555 0.677924 0.054124
N1    N     N_2   0.954190 0.457600 0.473930 -0.187058
N2    N     N_2   0.045810 0.542400 0.526070 -0.180068
O1    O     O_R   0.388300 0.738660 0.506400 -0.579011
O2    O     O_2   0.748527 0.339180 0.869030 -0.539744
O3    O     O_2   0.043189 0.268720 0.355366 -0.496436
O4    O     O_2   0.955546 0.732626 0.643460 -0.519138
O5    O     O_R   0.611700 0.261340 0.493600 -0.578985
O6    O     O_R   0.679920 0.711490 0.489690 -0.585891
O7    O     O_R   0.320080 0.288510 0.510310 -0.583574
O8    O     O_R   0.333200 0.515510 0.649910 -0.643708
O9    O     O_R   0.666800 0.484490 0.350090 -0.642498
O10   O     O_R   0.624820 0.488340 0.633200 -0.626913
O11   O     O_R   0.375180 0.511660 0.366800 -0.633470
O12   O     O_2   0.200256 0.411367 0.127126 -0.557393
Zn1   Zn    Zn3+2 0.305280 0.518140 0.511160 1.040138
Zn2   Zn    Zn3+2 0.694720 0.481860 0.488840 1.042841

loop_
_geom_bond_atom_site_label_1
_geom_bond_atom_site_label_2
_ccdc_geom_bond_type
O5    Zn2   S    
C8    H4    S    
N1    N2    D    
C5    H1    S    
C6    C14   S    
N1    Zn2   S    
C6    H2    S    
O9    Zn2   S    
C9    O5    A    
C11   C12   S    
C4    Cl2   S    
C11   O11   A    
N2    Zn1   S    
C2    C12   T    
C10   O10   A    
O10   Zn2   S    
O8    Zn1   S    
C1    O1    A    
C6    O2    D    
C7    N1    S    
C1    O6    A    
C8    N2    S    
C3    Cl1   S    
O7    Zn1   S    
C2    C14   S    
C5    C15   S    
C9    O7    A    
C3    C4    D    
C5    O12   D    
C10   O8    A    
C11   O9    A    
C7    O3    D    
O6    Zn2   S    
C8    O4    D    
C13   C16   T    
C14   C15   D    
O11   Zn1   S    
C4    C9    S    
C7    H3    S    
C15   C16   S    
O1    Zn1   S    
C1    C3    S    
C10   C13   S    
