data_mof_unit_22921.cif
_audit_creation_date              2012-12-10T19:00:46-0500
_audit_creation_method            fapswitch 2.2
_symmetry_space_group_name_H-M    P1
_symmetry_Int_Tables_number       1
_space_group_crystal_system       triclinic
_cell_length_a                    15.051099
_cell_length_b                    10.833927
_cell_length_c                    9.568069
_cell_angle_alpha                 90.391619
_cell_angle_beta                  90.502413
_cell_angle_gamma                 90.633582
_cell_volume                      1560.00046812

loop_
_atom_site_label
_atom_site_type_symbol
_atom_type_description
_atom_site_fract_x
_atom_site_fract_y
_atom_site_fract_z
_atom_type_partial_charge
C1    C     C_R   0.497679 0.262324 0.499389 0.845140
C2    C     C_R   0.908651 0.571764 0.598983 -0.009026
C3    C     C_R   0.950332 0.359844 0.298615 -0.176911
C4    C     C_R   0.042974 0.359919 0.297056 -0.130394
C5    C     C_R   0.091798 0.428981 0.396491 -0.025257
C6    C     C_R   0.046782 0.498754 0.498503 0.019430
C7    C     C_R   0.094901 0.567676 0.600056 0.115330
C8    C     C_R   0.049854 0.638188 0.699464 -0.185324
C9    C     C_R   0.957343 0.640915 0.698408 -0.131134
C10   C     C_R   0.184728 0.429695 0.396222 0.576438
C11   C     C_R   0.232184 0.497705 0.498214 -0.182510
C12   C     C_R   0.328841 0.498660 0.499402 0.872262
C13   C     C_R   0.187372 0.565435 0.600124 -0.298847
C14   C     C_R   0.490448 0.064607 0.624212 0.067962
C15   C     C_R   0.488126 0.128947 0.498321 -0.311139
C16   C     C_R   0.473263 0.062076 0.373029 0.674607
C17   C     C_R   0.473672 0.933411 0.374465 -0.281220
C18   C     C_R   0.489089 0.870440 0.500141 -0.179403
C19   C     C_R   0.491364 0.937444 0.625049 -0.007391
C20   C     C_3   0.557222 0.933994 0.742480 -0.386525
C21   C     C_3   0.555690 0.073921 0.742400 0.496376
C22   C     C_R   0.548733 0.585529 0.075023 -0.062581
C23   C     C_R   0.498360 0.737564 0.500254 0.838899
C24   C     C_R   0.445593 0.423003 0.072925 0.687022
C25   C     C_R   0.445829 0.422620 0.924256 0.642462
C26   C     C_R   0.547432 0.587320 0.927829 -0.044292
C27   C     C_3   0.645229 0.609651 0.923242 0.474831
C28   C     C_3   0.647032 0.603708 0.080956 0.372737
C29   C     C_R   0.671227 0.500746 0.500311 0.849804
C30   C     C_R   0.815912 0.573650 0.597139 0.538363
C31   C     C_R   0.768021 0.501106 0.500217 -0.185662
C32   C     C_R   0.812623 0.429992 0.400868 -0.262015
C33   C     C_R   0.905247 0.429514 0.398817 0.099730
C34   C     C_R   0.953535 0.499777 0.498962 0.015665
Cu1   Cu    Cu3+1 0.500000 0.499980 0.640670 1.056870
Cu2   Cu    Cu3+1 0.500000 0.500020 0.359330 1.091447
H1    H     H_    0.466144 0.883851 0.276293 0.201564
H2    H     H_    0.622158 0.896359 0.709155 0.222231
H3    H     H_    0.682882 0.535064 0.871020 0.163913
H4    H     H_    0.224718 0.618263 0.677903 0.181031
H5    H     H_    0.086200 0.691680 0.777627 0.159297
N1    N     N_R   0.500570 0.500930 0.147930 -0.257952
N2    N     N_R   0.500570 0.500890 0.852020 -0.300051
O1    O     O_R   0.500000 0.319640 0.618810 -0.536026
O2    O     O_R   0.500010 0.319680 0.381230 -0.479396
O3    O     O_R   0.370250 0.499950 0.618800 -0.558158
O4    O     O_R   0.370260 0.499990 0.381220 -0.517509
O5    O     O_R   0.499990 0.680320 0.618770 -0.555372
O6    O     O_R   0.500000 0.680360 0.381190 -0.609085
O7    O     O_R   0.629740 0.500010 0.618780 -0.571436
O8    O     O_R   0.629750 0.500050 0.381200 -0.534063
F1    F     F_    0.772465 0.650394 0.684778 -0.642391
H6    H     H_    0.528704 0.892298 0.838268 0.256215
F2    F     F_    0.517220 0.121839 0.861616 -0.558068
H7    H     H_    0.619824 0.118791 0.714196 0.052033
F3    F     F_    0.391484 0.343192 0.140771 -0.506623
F4    F     F_    0.392110 0.342164 0.853672 -0.561150
F5    F     F_    0.664952 0.727172 0.876986 -0.640441
F6    F     F_    0.691008 0.499563 0.125910 -0.667772
H8    H     H_    0.775092 0.374256 0.326037 0.221118
H9    H     H_    0.668251 0.690597 0.134602 0.126117
H10   H     H_    0.913927 0.305661 0.221131 0.165639
H11   H     H_    0.076202 0.305680 0.218084 0.212127
F7    F     F_    0.228914 0.361837 0.299660 -0.599223
H12   H     H_    0.924090 0.696520 0.776132 0.210687
F8    F     F_    0.463250 0.119550 0.248407 -0.552998

loop_
_geom_bond_atom_site_label_1
_geom_bond_atom_site_label_2
_ccdc_geom_bond_type
C2    C9    A    
C11   C12   S    
Cu2   O6    S    
C6    C7    A    
C1    C15   S    
C24   F3    S    
C20   H2    S    
C1    O1    A    
Cu2   N1    S    
C19   C20   S    
C21   F2    S    
C2    C30   A    
C6    C34   A    
C32   C33   A    
C25   N2    A    
Cu1   O7    S    
C17   C18   A    
C21   H7    S    
C5    C10   A    
C29   C31   S    
C17   H1    S    
C4    C5    A    
C24   C25   A    
C8    H5    S    
Cu1   O1    S    
C11   C13   A    
C4    H11   S    
C1    O2    A    
C26   C27   S    
C22   N1    A    
Cu2   O8    S    
C25   F4    S    
C12   O4    A    
Cu2   O2    S    
Cu1   O5    S    
C14   C21   S    
C22   C28   S    
C28   F6    S    
C26   N2    A    
C33   C34   A    
C29   O7    A    
C22   C26   A    
C30   C31   A    
C9    H12   S    
C23   O6    A    
C16   F8    S    
C10   C11   A    
C3    C33   A    
C28   H9    S    
C15   C16   A    
Cu1   N2    S    
C7    C13   A    
C24   N1    A    
C20   C21   S    
Cu2   O4    S    
C12   O3    A    
C7    C8    A    
C29   O8    A    
C3    H10   S    
C27   C28   S    
C5    C6    A    
C18   C19   A    
C32   H8    S    
C14   C15   A    
C20   H6    S    
C13   H4    S    
C30   F1    S    
C23   O5    A    
C2    C34   A    
Cu1   O3    S    
C14   C19   A    
C27   F5    S    
C31   C32   A    
C10   F7    S    
C3    C4    A    
C18   C23   S    
C16   C17   A    
C27   H3    S    
C8    C9    A    
Cu1   Cu2   S    
