data_mof_unit_27347.cif
_audit_creation_date              2012-12-10T17:24:46-0500
_audit_creation_method            fapswitch 2.2
_symmetry_space_group_name_H-M    P1
_symmetry_Int_Tables_number       1
_space_group_crystal_system       triclinic
_cell_length_a                    23.585279
_cell_length_b                    10.869789
_cell_length_c                    9.623238
_cell_angle_alpha                 89.609153
_cell_angle_beta                  88.311141
_cell_angle_gamma                 95.238108
_cell_volume                      2455.59860327

loop_
_atom_site_label
_atom_site_type_symbol
_atom_type_description
_atom_site_fract_x
_atom_site_fract_y
_atom_site_fract_z
_atom_type_partial_charge
C1    C     C_R   0.504206 0.262996 0.500725 0.838921
C2    C     C_R   0.964084 0.283692 0.395033 -0.013180
C3    C     C_R   0.023332 0.286469 0.401413 -0.105856
C4    C     C_R   0.056356 0.394077 0.437883 -0.031082
C5    C     C_R   0.030165 0.503550 0.463722 -0.071060
C6    C     C_R   0.064194 0.613973 0.490419 -0.149105
C7    C     C_R   0.038080 0.724983 0.508284 0.484768
C8    C     C_R   0.978154 0.723754 0.513731 -0.152433
C9    C     C_R   0.115625 0.394954 0.445909 0.541697
C10   C     C_R   0.123774 0.609805 0.498009 0.563940
C11   C     C_R   0.241930 0.493915 0.369530 -0.070687
C12   C     C_R   0.390839 0.501445 0.502106 0.794528
C13   C     C_R   0.300587 0.495925 0.376399 -0.201746
C14   C     C_R   0.327708 0.504174 0.504622 -0.103985
C15   C     C_R   0.293706 0.511581 0.629195 -0.054788
C16   C     C_R   0.233379 0.506448 0.621654 -0.032246
C17   C     C_R   0.208219 0.498811 0.490295 0.253169
C18   C     C_R   0.760111 0.451603 0.365694 0.508489
C19   C     C_R   0.699917 0.442091 0.371296 -0.143463
C20   C     C_R   0.670986 0.483068 0.492065 -0.180183
C21   C     C_R   0.702435 0.517115 0.609427 -0.184456
C22   C     C_R   0.761360 0.517890 0.606617 -0.123133
C23   C     C_R   0.495171 0.736342 0.500328 0.846755
C24   C     C_R   0.790665 0.487507 0.485167 0.208401
C25   C     C_R   0.516363 0.111451 0.764606 -0.068982
C26   C     C_R   0.487679 0.057170 0.882086 -0.298009
C27   C     C_R   0.456558 0.942417 0.873424 0.566187
C28   C     C_R   0.456635 0.879259 0.746789 -0.217808
C29   C     C_R   0.484264 0.934685 0.626925 -0.004028
C30   C     C_R   0.504783 0.060238 0.631396 0.034509
C31   C     C_R   0.509486 0.128571 0.503609 -0.167349
C32   C     C_R   0.510208 0.064406 0.376464 0.493697
C33   C     C_R   0.500883 0.936257 0.377068 -0.276010
C34   C     C_R   0.608678 0.493843 0.497816 0.855057
C35   C     C_R   0.490554 0.870138 0.501408 -0.165767
C36   C     C_R   0.592516 0.642649 0.126966 0.427234
C37   C     C_R   0.641478 0.672718 0.039343 -0.057377
C38   C     C_R   0.633615 0.690864 0.899660 -0.276918
C39   C     C_R   0.582235 0.651273 0.843861 -0.191763
C40   C     C_R   0.541222 0.573920 0.920102 0.131840
C41   C     C_R   0.543624 0.571365 0.069387 0.073604
C42   C     C_R   0.460692 0.429885 0.079067 -0.012341
C43   C     C_R   0.461009 0.426425 0.931342 0.050326
C44   C     C_R   0.883095 0.602514 0.500809 0.536019
C45   C     C_R   0.877227 0.385587 0.459757 0.588617
C46   C     C_R   0.936694 0.389038 0.438078 -0.110381
C47   C     C_R   0.970073 0.501622 0.464047 -0.007914
C48   C     C_R   0.943482 0.611108 0.492860 -0.142995
Cu1   Cu    Cu3+1 0.500000 0.499990 0.640660 0.949264
Cu2   Cu    Cu3+1 0.500000 0.500010 0.359340 0.992817
H1    H     H_    0.681441 0.543783 0.704238 0.191384
H2    H     H_    0.784530 0.543784 0.699056 0.190730
H3    H     H_    0.490994 0.102000 0.981747 0.202064
H4    H     H_    0.432241 0.790592 0.740680 0.213628
H5    H     H_    0.503106 0.888368 0.279341 0.187578
H6    H     H_    0.429124 0.372628 0.140060 0.195065
H7    H     H_    0.044047 0.204912 0.372739 0.209095
H8    H     H_    0.667654 0.733228 0.832302 0.211355
H9    H     H_    0.578909 0.675623 0.737627 0.220234
H10   H     H_    0.222334 0.488852 0.269081 0.169784
H11   H     H_    0.324751 0.490594 0.279503 0.181461
N1    N     N_R   0.851908 0.491758 0.483210 -0.438443
N2    N     N_R   0.147763 0.501201 0.477697 -0.481923
N3    N     N_R   0.500540 0.501210 0.147910 -0.213560
N4    N     N_R   0.500560 0.501290 0.852040 -0.233879
O1    O     O_R   0.500000 0.319640 0.618810 -0.617601
O2    O     O_2   0.844672 0.276905 0.463164 -0.517809
O3    O     O_2   0.141007 0.290092 0.423949 -0.530401
O4    O     O_2   0.157697 0.712446 0.527493 -0.454231
O5    O     O_R   0.500000 0.319660 0.381240 -0.533862
O6    O     O_R   0.417880 0.499950 0.618810 -0.590936
O7    O     O_R   0.417880 0.499980 0.381240 -0.594579
O8    O     O_R   0.500000 0.680340 0.618760 -0.613172
O9    O     O_R   0.500000 0.680360 0.381190 -0.526600
O10   O     O_R   0.582120 0.500020 0.618760 -0.577764
O11   O     O_R   0.582120 0.500050 0.381190 -0.551535
O12   O     O_2   0.855109 0.702857 0.527082 -0.561809
C49   C     C_2   0.933290 0.174485 0.329480 0.449005
H12   H     H_    0.892915 0.181830 0.280644 0.141555
O13   O     O_2   0.953967 0.075643 0.323647 -0.582712
C50   C     C_2   0.667947 0.382669 0.254642 0.417384
H13   H     H_    0.626365 0.333926 0.274350 0.086791
O14   O     O_2   0.687634 0.386252 0.135761 -0.518696
O15   O     O_3   0.518073 0.127802 0.251009 -0.558536
C51   C     C_3   0.570269 0.102309 0.187011 -0.356929
H14   H     H_    0.564317 0.016175 0.125953 0.163787
H15   H     H_    0.605022 0.097033 0.262378 0.163468
H16   H     H_    0.584129 0.178251 0.112840 0.195144
C52   C     C_2   0.564346 0.206393 0.788414 0.460715
H17   H     H_    0.566264 0.256853 0.885296 0.057526
O16   O     O_2   0.602920 0.226797 0.701536 -0.540061
O17   O     O_3   0.425538 0.895128 0.989142 -0.536707
C53   C     C_3   0.448138 0.786796 0.035008 -0.229441
H18   H     H_    0.495108 0.801545 0.046591 0.120739
H19   H     H_    0.437155 0.708564 0.964261 0.188494
H20   H     H_    0.428803 0.760542 0.138693 0.202169
O18   O     O_3   0.590501 0.689177 0.260733 -0.542637
C54   C     C_3   0.620921 0.806347 0.278637 -0.359052
H21   H     H_    0.621845 0.866420 0.184674 0.156018
H22   H     H_    0.664427 0.796145 0.314429 0.172213
H23   H     H_    0.600669 0.854281 0.364882 0.186711
C55   C     C_2   0.699949 0.687868 0.093138 0.427929
H24   H     H_    0.707915 0.654747 0.196454 0.070274
O19   O     O_2   0.740016 0.734689 0.021843 -0.541277
C56   C     C_2   0.418267 0.337503 0.866701 0.335530
H25   H     H_    0.417757 0.322882 0.756721 0.141362
O20   O     O_2   0.382217 0.276176 0.937887 -0.556594
O21   O     O_3   0.070998 0.836060 0.523715 -0.502169
C57   C     C_3   0.081502 0.891466 0.391196 -0.135659
H26   H     H_    0.105357 0.832226 0.320856 0.155633
H27   H     H_    0.108130 0.980036 0.403416 0.219393
H28   H     H_    0.041317 0.912916 0.342533 0.150733
C58   C     C_2   0.953815 0.843311 0.538456 0.556512
H29   H     H_    0.921233 0.872990 0.472127 0.140135
O22   O     O_2   0.971010 0.911111 0.631849 -0.465551
C59   C     C_2   0.319716 0.522861 0.767018 0.484824
H30   H     H_    0.308169 0.453174 0.846620 0.103619
O23   O     O_2   0.351427 0.613718 0.795042 -0.537749
C60   C     C_2   0.195124 0.509318 0.747874 0.410616
H31   H     H_    0.151146 0.470539 0.744048 0.083176
O24   O     O_2   0.211180 0.557947 0.855519 -0.519507
O25   O     O_3   0.788506 0.414995 0.246867 -0.536858
C61   C     C_3   0.819958 0.517622 0.181451 -0.194067
H32   H     H_    0.808170 0.609528 0.217424 0.148271
H33   H     H_    0.812958 0.512857 0.068047 0.217787
H34   H     H_    0.866089 0.512135 0.197024 0.147620

loop_
_geom_bond_atom_site_label_1
_geom_bond_atom_site_label_2
_ccdc_geom_bond_type
C33   H5    S    
C53   H18   S    
Cu2   N3    S    
C19   C20   A    
C10   N2    A    
O18   C54   S    
C61   H32   S    
C51   H14   S    
C2    C46   A    
C56   O20   D    
C26   C27   A    
C37   C38   A    
Cu1   N4    S    
C18   C24   A    
C28   C29   A    
Cu2   O9    S    
C30   C31   A    
C49   O13   D    
C61   H33   S    
C15   C16   A    
C45   N1    A    
C1    C31   S    
O21   C57   S    
C18   C19   A    
C43   C56   S    
Cu2   O7    S    
C42   H6    S    
C38   H8    S    
C31   C32   A    
C16   C17   A    
C45   O2    S    
Cu1   O10   S    
C36   O18   S    
C52   O16   D    
C34   O10   A    
C20   C34   S    
C60   O24   D    
C12   O7    A    
C53   H19   S    
C13   C14   A    
C36   C41   A    
C23   O8    A    
C50   O14   D    
C50   H13   S    
C51   H15   S    
C38   C39   A    
C32   O15   S    
Cu1   O1    S    
C7    C8    A    
O15   C51   S    
C16   C60   S    
C39   C40   A    
C28   H4    S    
C49   H12   S    
C61   H34   S    
C44   N1    A    
C25   C26   A    
C45   C46   A    
C37   C55   S    
C8    C48   A    
C29   C30   A    
C2    C49   S    
Cu2   O11   S    
C5    C47   A    
C47   C48   A    
C14   C15   A    
C43   N4    A    
C39   H9    S    
C1    O1    A    
C27   O17   S    
C55   O19   D    
C8    C58   S    
C18   O25   S    
C3    H7    S    
C40   C41   A    
C12   O6    A    
C12   C14   S    
Cu1   Cu2   S    
C53   H20   S    
C23   C35   S    
C40   N4    A    
Cu1   O8    S    
C57   H28   S    
C42   C43   A    
C23   O9    A    
C3    C4    A    
C52   H17   S    
C26   H3    S    
C42   N3    A    
C21   H1    S    
C22   H2    S    
C58   H29   S    
C51   H16   S    
C25   C30   A    
C46   C47   A    
C11   C17   A    
C24   N1    S    
C9    N2    A    
C4    C5    A    
C6    C10   A    
C60   H31   S    
C6    C7    A    
C54   H23   S    
C44   O12   S    
C56   H25   S    
C29   C35   A    
C25   C52   S    
C1    O5    A    
C32   C33   A    
C57   H27   S    
C2    C3    A    
Cu2   O5    S    
C9    O3    S    
C19   C50   S    
C57   H26   S    
C17   N2    S    
C11   C13   A    
C5    C6    A    
O17   C53   S    
C33   C35   A    
C59   O23   D    
C59   H30   S    
C22   C24   A    
C55   H24   S    
C54   H22   S    
C10   O4    S    
C44   C48   A    
C13   H11   S    
C20   C21   A    
C36   C37   A    
C54   H21   S    
Cu1   O6    S    
C27   C28   A    
O25   C61   S    
C15   C59   S    
C41   N3    A    
C4    C9    A    
C21   C22   A    
C7    O21   S    
C11   H10   S    
C34   O11   A    
C58   O22   D    
