data_mof_unit_51281.cif
_audit_creation_date              2013-03-05T15:51:18-0500
_audit_creation_method            fapswitch 2.2
_symmetry_space_group_name_H-M    P1
_symmetry_Int_Tables_number       1
_space_group_crystal_system       triclinic
_cell_length_a                    12.110125
_cell_length_b                    12.771029
_cell_length_c                    15.764714
_cell_angle_alpha                 91.500081
_cell_angle_beta                  85.197798
_cell_angle_gamma                 92.654613
_cell_volume                      2426.37589151

loop_
_atom_site_label
_atom_site_type_symbol
_atom_site_description
_atom_site_fract_x
_atom_site_fract_y
_atom_site_fract_z
_atom_type_partial_charge
O1    O     O_R   0.421700 0.658830 0.504150 -0.628647
O2    O     O_R   0.578300 0.341170 0.495850 -0.631541
O3    O     O_R   0.609310 0.646410 0.494170 -0.611108
O4    O     O_R   0.390690 0.353590 0.505830 -0.616647
C1    C     C_R   0.521675 0.699718 0.495843 0.872254
C2    C     C_R   0.478565 0.300218 0.503931 0.869470
O5    O     O_R   0.406210 0.506220 0.628210 -0.636051
O6    O     O_R   0.593790 0.493780 0.371790 -0.635972
O7    O     O_R   0.593830 0.493800 0.618230 -0.596757
O8    O     O_R   0.406170 0.506200 0.381770 -0.590337
C3    C     C_R   0.499295 0.500589 0.661823 0.873035
C4    C     C_R   0.500736 0.499491 0.338170 0.876019
Zn1   Zn    Zn3+2 0.374730 0.508290 0.506660 0.966942
Zn2   Zn    Zn3+2 0.625270 0.491710 0.493340 0.962447
C5    C     C_3   0.422474 0.565338 0.036807 -0.350682
C6    C     C_3   0.578407 0.435835 0.963128 -0.360756
C7    C     C_3   0.522042 0.597259 0.973260 0.257256
C8    C     C_3   0.478831 0.403913 0.026662 0.254488
H1    H     H_    0.359119 0.618024 0.066562 0.222710
H2    H     H_    0.641775 0.383158 0.933379 0.222713
C9    C     C_1   0.497671 0.500921 0.750509 -0.112203
C10   C     C_1   0.502574 0.499625 0.249474 -0.127064
C11   C     C_3   0.400845 0.467661 0.979274 0.259053
C12   C     C_3   0.600038 0.533524 0.020645 0.258090
C13   C     C_3   0.498528 0.501118 0.916108 -0.104833
C14   C     C_3   0.502370 0.500065 0.083833 -0.103188
C15   C     C_1   0.497418 0.501123 0.825573 0.168875
C16   C     C_1   0.503214 0.499805 0.174391 0.160990
C17   C     C_R   0.466406 0.189649 0.514608 -0.075857
C18   C     C_R   0.535457 0.810190 0.485277 -0.073088
C19   C     C_R   0.582938 0.961422 0.399560 -0.150291
C20   C     C_R   0.421971 0.038686 0.601267 -0.158358
C21   C     C_R   0.586384 0.853013 0.409071 0.129832
C22   C     C_R   0.414901 0.146505 0.590516 0.127024
C23   C     C_R   0.485821 0.871962 0.549869 -0.273120
C24   C     C_R   0.521103 0.128627 0.451694 -0.254604
C25   C     C_R   0.478668 0.977784 0.538465 0.130848
C26   C     C_R   0.527633 0.022680 0.462888 0.131742
H3    H     H_    0.560603 0.164699 0.394587 0.147694
H4    H     H_    0.449935 0.836303 0.608162 0.158326
H5    H     H_    0.620307 0.998861 0.342744 0.161418
H6    H     H_    0.385006 0.001236 0.658186 0.157287
N1    N     N_R   0.207800 0.519340 0.515560 -0.138861
N2    N     N_R   0.792200 0.480660 0.484440 -0.137875
C27   C     C_R   0.961003 0.407085 0.415194 0.247798
C28   C     C_R   0.038615 0.590806 0.586201 0.240754
C29   C     C_R   0.844014 0.416855 0.421696 0.174360
C30   C     C_R   0.156322 0.588373 0.574409 0.180719
C31   C     C_R   0.855211 0.535467 0.539339 -0.004436
C32   C     C_R   0.143990 0.458291 0.465038 -0.003865
C33   C     C_R   0.973046 0.530968 0.532365 -0.107905
C34   C     C_R   0.026380 0.465249 0.470261 -0.106685
H7    H     H_    0.185683 0.405003 0.420016 0.201864
H8    H     H_    0.812701 0.583504 0.587920 0.205876
N3    N     N_R   0.547943 0.704236 0.945587 0.254895
O9    O     O_R   0.566720 0.778054 0.001613 -0.318711
O10   O     O_R   0.552016 0.726762 0.865397 -0.347775
N4    N     N_R   0.452986 0.296924 0.054331 0.253785
O11   O     O_R   0.434108 0.223126 0.998313 -0.319134
O12   O     O_R   0.449312 0.274322 0.134489 -0.352055
N5    N     N_R   0.709901 0.571888 0.041530 0.248871
O13   O     O_R   0.784865 0.597546 0.980836 -0.274836
O14   O     O_R   0.733773 0.580789 0.120333 -0.408281
N6    N     N_R   0.290978 0.429497 0.958175 0.249873
O15   O     O_R   0.216160 0.402915 0.018707 -0.279890
O16   O     O_R   0.266537 0.422926 0.879401 -0.372692
C35   C     C_3   0.358628 0.217312 0.658993 -0.402157
C36   C     C_3   0.312892 0.164056 0.741201 -0.729314
H9    H     H_    0.247091 0.103770 0.727982 0.257012
H10   H     H_    0.380541 0.127977 0.772080 0.272307
H11   H     H_    0.275702 0.223547 0.786184 0.297932
H12   H     H_    0.419452 0.280260 0.676619 0.202958
H13   H     H_    0.288678 0.254696 0.632059 0.241303
C37   C     C_3   0.638623 0.781456 0.339273 -0.412351
C38   C     C_3   0.683710 0.834638 0.256874 -0.729077
H14   H     H_    0.616398 0.873432 0.227673 0.272008
H15   H     H_    0.751968 0.892658 0.269333 0.260483
H16   H     H_    0.717519 0.774634 0.210796 0.297898
H17   H     H_    0.708109 0.741554 0.364631 0.240505
H18   H     H_    0.575344 0.720470 0.322267 0.200285
C39   C     C_3   0.221088 0.668296 0.625825 -0.337844
C40   C     C_3   0.214770 0.778947 0.591904 -0.800864
H19   H     H_    0.255988 0.783978 0.526433 0.272721
H20   H     H_    0.127969 0.801881 0.590217 0.297928
H21   H     H_    0.256227 0.836257 0.634248 0.239316
H22   H     H_    0.188651 0.667291 0.693764 0.241789
H23   H     H_    0.308053 0.651737 0.627460 0.254715
C41   C     C_3   0.780199 0.357318 0.355526 -0.406637
C42   C     C_3   0.793014 0.412069 0.269836 -0.657451
H24   H     H_    0.777032 0.496762 0.278324 0.276111
H25   H     H_    0.877730 0.404262 0.238573 0.295209
H26   H     H_    0.733100 0.375661 0.226968 0.252717
H27   H     H_    0.808852 0.276198 0.346551 0.227607
H28   H     H_    0.692430 0.345141 0.375217 0.253472
N7    N     N_R   0.012981 0.338382 0.351882 0.186196
O17   O     O_R   0.075587 0.377154 0.288142 -0.348654
O18   O     O_R   0.010251 0.237977 0.364342 -0.368354
N8    N     N_R   0.986409 0.654208 0.653375 0.189132
O19   O     O_R   0.983770 0.624508 0.731851 -0.320235
O20   O     O_R   0.931495 0.734942 0.635547 -0.379871

loop_
_geom_bond_atom_site_label_1
_geom_bond_atom_site_label_2
_geom_bond_distance
_ccdc_geom_bond_type
N2    C31   1.360372 A    
N3    O9    1.300278 A    
C12   N5    1.457071 S    
N7    O17   1.301328 A    
C8    C14   1.534309 S    
O7    Zn2   1.973510 S    
C39   C40   1.531392 S    
C5    H1    1.110163 S    
C17   C24   1.388213 A    
C18   C23   1.385624 A    
O1    C1    1.293876 A    
C23   C25   1.375656 A    
C12   C14   1.533628 S    
N4    O12   1.300242 A    
C31   H8    1.080076 S    
C4    C10   1.396619 S    
C30   C39   1.517557 S    
C35   H12   1.110752 S    
O4    Zn1   1.993596 S    
N5    O14   1.299828 A    
C8    N4    1.457350 S    
C36   H9    1.110738 S    
C31   C33   1.425732 A    
C32   C34   1.426515 A    
C19   C21   1.399391 A    
C35   H13   1.110912 S    
C42   H25   1.107978 S    
N1    C30   1.392062 A    
C7    N3    1.457334 S    
C39   H22   1.109681 S    
N2    C29   1.391893 A    
C6    H2    1.110162 S    
C5    C11   1.548420 S    
C28   N8    1.437776 S    
C6    C12   1.548404 S    
C37   H18   1.110809 S    
O2    C2    1.291417 A    
C28   C30   1.423683 A    
C27   C29   1.422911 A    
C41   H28   1.087319 S    
C32   H7    1.080899 S    
C37   C38   1.529673 S    
C8    C11   1.527761 S    
C7    C12   1.527710 S    
O4    C2    1.287933 A    
C5    C14   1.551710 S    
C27   C34   1.399671 A    
N4    O11   1.300270 A    
C28   C33   1.399097 A    
C3    C9    1.396490 S    
C35   C36   1.529713 S    
C20   C22   1.399153 A    
O5    C3    1.290831 A    
C38   H14   1.110884 S    
C25   C26   1.409225 A    
C38   H15   1.110737 S    
O6    C4    1.290648 A    
C20   C25   1.397108 A    
C42   H26   1.110738 S    
O7    C3    1.290264 A    
C39   H23   1.086274 S    
O3    Zn2   1.993596 S    
O8    C4    1.290536 A    
C36   H10   1.110816 S    
C11   N6    1.457371 S    
N8    O19   1.300876 A    
N8    O20   1.301650 A    
C37   H17   1.110981 S    
N3    O10   1.300236 A    
O1    Zn1   1.979958 S    
C27   N7    1.436086 S    
Zn1   N1    2.025867 S    
Zn2   N2    2.025867 S    
C1    C18   1.425447 S    
C6    C13   1.551594 S    
C5    C7    1.548317 S    
C41   H27   1.109547 S    
O6    Zn2   1.985891 S    
C19   H5    1.081754 S    
C18   C21   1.414872 A    
C14   C16   1.428605 S    
C24   H3    1.086625 S    
O3    C1    1.285213 A    
O8    Zn1   1.973513 S    
C22   C35   1.526523 S    
N7    O18   1.300789 A    
N1    C32   1.361655 A    
C13   C15   1.428442 S    
C40   H21   1.108991 S    
C40   H20   1.106825 S    
C19   C26   1.397498 A    
C7    C13   1.533963 S    
C29   C41   1.517408 S    
C24   C26   1.375814 A    
C23   H4    1.085115 S    
C33   C34   1.407630 A    
N6    O15   1.300208 A    
C36   H11   1.110389 S    
C17   C22   1.415053 A    
C11   C13   1.533549 S    
C9    C15   1.183055 T    
N5    O13   1.300174 A    
O2    Zn2   1.979956 S    
C38   H16   1.110249 S    
C21   C37   1.526585 S    
O5    Zn1   1.985888 S    
C2    C17   1.425839 S    
C41   C42   1.530406 S    
C6    C8    1.548277 S    
C40   H19   1.110311 S    
C20   H6    1.081524 S    
C10   C16   1.183110 T    
C42   H24   1.110292 S    
N6    O16   1.300234 A    
