data_mof_unit_9791.cif
_audit_creation_date              2012-12-11T14:39:30-0500
_audit_creation_method            fapswitch 2.2
_symmetry_space_group_name_H-M    P1
_symmetry_Int_Tables_number       1
_space_group_crystal_system       triclinic
_cell_length_a                    7.208931
_cell_length_b                    14.03003
_cell_length_c                    16.41726
_cell_angle_alpha                 89.99996
_cell_angle_beta                  97.320357
_cell_angle_gamma                 90.000179
_cell_volume                      1646.93252691

loop_
_atom_site_label
_atom_site_type_symbol
_atom_type_description
_atom_site_fract_x
_atom_site_fract_y
_atom_site_fract_z
_atom_type_partial_charge
O1    O     O_R   0.525340 0.338340 0.164530 -0.492327
O2    O     O_R   0.474660 0.661660 0.835470 -0.492333
O3    O     O_R   0.974660 0.838340 0.835470 -0.492309
O4    O     O_R   0.025340 0.161660 0.164530 -0.492317
O5    O     O_R   0.253520 0.352000 0.336710 -0.548291
O6    O     O_R   0.746480 0.648000 0.663290 -0.548293
O7    O     O_R   0.246480 0.852000 0.663290 -0.548287
O8    O     O_R   0.753520 0.148000 0.336710 -0.548289
O9    O     O_R   0.083330 0.168380 0.337300 -0.545816
O10   O     O_R   0.916670 0.831620 0.662700 -0.545813
O11   O     O_R   0.416670 0.668380 0.662700 -0.545828
O12   O     O_R   0.583330 0.331620 0.337300 -0.545826
C1    C     C_R   0.432433 0.369375 0.363286 0.653666
C2    C     C_R   0.567567 0.630625 0.636714 0.653658
C3    C     C_R   0.067567 0.869378 0.636717 0.653660
C4    C     C_R   0.932432 0.130622 0.363284 0.653664
O13   O     O_R   0.195840 0.349670 0.165140 -0.530433
O14   O     O_R   0.804160 0.650330 0.834860 -0.530436
O15   O     O_R   0.304160 0.849670 0.834860 -0.530404
O16   O     O_R   0.695840 0.150330 0.165140 -0.530407
C5    C     C_R   0.357421 0.371563 0.137528 0.794163
C6    C     C_R   0.642579 0.628436 0.862472 0.794158
C7    C     C_R   0.142580 0.871561 0.862474 0.794189
C8    C     C_R   0.857421 0.128436 0.137528 0.794169
O17   O     O_3   0.387830 0.193120 0.250910 -0.370166
O18   O     O_3   0.612170 0.806880 0.749090 -0.370154
O19   O     O_3   0.112170 0.693120 0.749090 -0.370212
O20   O     O_3   0.887830 0.306880 0.250910 -0.370201
V1    V     V_3+5 0.113010 0.264540 0.250910 1.532128
V2    V     V_3+5 0.886990 0.735460 0.749090 1.532139
V3    V     V_3+5 0.386990 0.764540 0.749090 1.532186
V4    V     V_3+5 0.613010 0.235460 0.250910 1.532168
C9    C     C_R   0.868441 0.186401 0.525728 -0.247134
C10   C     C_R   0.131546 0.813599 0.474270 -0.247149
C11   C     C_R   0.631537 0.686403 0.474264 -0.247158
C12   C     C_R   0.368464 0.313598 0.525735 -0.247148
C13   C     C_R   0.835430 0.215793 0.603491 -0.154159
C14   C     C_R   0.164552 0.784206 0.396508 -0.154139
C15   C     C_R   0.664543 0.715793 0.396501 -0.154101
C16   C     C_R   0.335454 0.284208 0.603498 -0.154116
C17   C     C_R   0.868095 0.154965 0.670773 0.530478
C18   C     C_R   0.131903 0.845034 0.329224 0.530534
C19   C     C_R   0.631904 0.654963 0.329219 0.530553
C20   C     C_R   0.368086 0.345039 0.670780 0.530572
C21   C     C_R   0.930381 0.061097 0.658138 -0.255051
C22   C     C_R   0.069615 0.938903 0.341861 -0.255084
C23   C     C_R   0.569611 0.561093 0.341859 -0.255105
C24   C     C_R   0.430380 0.438909 0.658140 -0.255106
C25   C     C_R   0.964968 0.029591 0.579436 0.006385
C26   C     C_R   0.035030 0.970409 0.420564 0.006408
C27   C     C_R   0.535027 0.529590 0.420563 0.006430
C28   C     C_R   0.464970 0.470411 0.579436 0.006426
C29   C     C_R   0.933099 0.093315 0.512081 0.056857
C30   C     C_R   0.066898 0.906685 0.487918 0.056858
C31   C     C_R   0.566894 0.593316 0.487916 0.056839
C32   C     C_R   0.433106 0.406684 0.512084 0.056835
C33   C     C_R   0.032302 0.936357 0.567158 -0.114777
C34   C     C_R   0.967697 0.063644 0.432842 -0.114778
C35   C     C_R   0.467699 0.436354 0.432844 -0.114781
C36   C     C_R   0.532300 0.563646 0.567156 -0.114780
H1    H     H_    0.843285 0.238036 0.476632 0.142084
H2    H     H_    0.156697 0.761962 0.523366 0.142083
H3    H     H_    0.656685 0.738041 0.523359 0.142081
H4    H     H_    0.343318 0.261959 0.476641 0.142080
H5    H     H_    0.785135 0.287473 0.611716 0.146590
H6    H     H_    0.214838 0.712524 0.388283 0.146592
H7    H     H_    0.714823 0.787477 0.388275 0.146582
H8    H     H_    0.285171 0.212524 0.611723 0.146571
H9    H     H_    0.950353 0.012584 0.709525 0.105068
H10   H     H_    0.049633 0.987421 0.290478 0.105016
H11   H     H_    0.549617 0.512572 0.290480 0.104966
H12   H     H_    0.450366 0.487433 0.709517 0.104965
C37   C     C_2   0.147881 0.942280 0.929757 -0.400095
C38   C     C_2   0.852123 0.057713 0.070249 -0.400033
C39   C     C_2   0.352128 0.442296 0.070256 -0.400121
C40   C     C_2   0.647872 0.557704 0.929743 -0.400094
C41   C     C_2   0.996020 0.963021 0.967705 0.482813
C42   C     C_2   0.003987 0.036967 0.032305 0.482746
C43   C     C_2   0.503971 0.463015 0.032290 0.482766
C44   C     C_2   0.496032 0.536987 0.967712 0.482741
H13   H     H_    0.720493 0.021264 0.051846 0.168396
H14   H     H_    0.279509 0.978730 0.948159 0.168401
H15   H     H_    0.779470 0.521217 0.948114 0.168350
H16   H     H_    0.220529 0.478780 0.051883 0.168357
O21   O     O_3   0.175099 0.810346 0.254379 -0.554823
C45   C     C_3   0.062178 0.850246 0.186444 -0.193593
H17   H     H_    0.116826 0.921257 0.171656 0.147336
H18   H     H_    0.912223 0.854264 0.196175 0.151329
H19   H     H_    0.070347 0.803849 0.132301 0.181404
O22   O     O_3   0.824889 0.189636 0.745620 -0.554810
C46   C     C_3   0.938116 0.149870 0.813534 -0.193533
H20   H     H_    0.088034 0.145944 0.803722 0.151431
H21   H     H_    0.883724 0.078830 0.828408 0.147228
H22   H     H_    0.929974 0.196305 0.867654 0.181414
O23   O     O_3   0.324882 0.310338 0.745622 -0.554910
C47   C     C_3   0.437528 0.350375 0.813579 -0.193788
H23   H     H_    0.382626 0.421365 0.828287 0.147403
H24   H     H_    0.587525 0.354485 0.803924 0.151256
H25   H     H_    0.429346 0.304014 0.867742 0.181404
O24   O     O_3   0.675089 0.689662 0.254374 -0.554888
C48   C     C_3   0.562412 0.649662 0.186434 -0.193691
H26   H     H_    0.412442 0.645575 0.196102 0.151288
H27   H     H_    0.617235 0.578674 0.171720 0.147373
H28   H     H_    0.570619 0.696025 0.132277 0.181434
F1    F     F_    0.168978 0.083837 0.052593 -0.691889
F2    F     F_    0.831031 0.916148 0.947418 -0.691852
F3    F     F_    0.331100 0.583916 0.947474 -0.691926
F4    F     F_    0.668905 0.416088 0.052530 -0.691914

loop_
_geom_bond_atom_site_label_1
_geom_bond_atom_site_label_2
_ccdc_geom_bond_type
O1    C5    A    
C48   H26   S    
O13   V1    S    
O3    C7    A    
O23   C47   S    
C6    C40   S    
O15   V3    S    
C41   C42   S    
C44   F3    S    
C26   C30   A    
C42   F1    S    
O20   V1    S    
O9    C4    A    
C24   H12   S    
C14   C18   A    
O10   C3    A    
O4    C8    A    
O11   C2    A    
C45   H18   S    
C39   H16   S    
C46   H21   S    
C47   H25   S    
C10   H2    S    
C25   C33   A    
C18   C22   A    
C28   C36   A    
C14   H6    S    
C13   H5    S    
O2    C6    A    
O14   V2    S    
C16   C20   A    
O5    C1    A    
O4    V1    S    
O9    V1    S    
O17   V4    S    
O7    C3    A    
C17   O22   S    
O11   V3    S    
O18   V3    S    
C48   H27   S    
C10   C14   A    
C31   C36   A    
O12   V4    S    
O19   V2    S    
C3    C33   S    
C7    C37   S    
C40   H15   S    
O5    V1    S    
C9    C29   A    
O7    V3    S    
C21   H9    S    
C26   C34   A    
O16   C8    A    
C12   C16   A    
C19   O24   S    
C46   H20   S    
O15   C7    A    
C15   C19   A    
O21   C45   S    
C11   C31   A    
O1    V4    S    
C9    C13   A    
C47   H24   S    
O2    V3    S    
O8    V4    S    
O3    V2    S    
C11   C15   A    
C12   C32   A    
O6    C2    A    
O10   V2    S    
C21   C25   A    
C47   H23   S    
C18   O21   S    
C4    C34   S    
C23   H11   S    
O6    V2    S    
C10   C30   A    
C48   H28   S    
C16   H8    S    
C27   C35   A    
C38   H13   S    
C37   H14   S    
O16   V4    S    
C5    C39   S    
C41   F2    S    
C37   C41   D    
O8    C4    A    
C45   H17   S    
C15   H7    S    
C40   C44   D    
C45   H19   S    
C23   C27   A    
C29   C34   A    
C1    C35   S    
C2    C36   S    
C22   C26   A    
C32   C35   A    
O14   C6    A    
C20   O23   S    
C46   H22   S    
C8    C38   S    
O22   C46   S    
C39   C43   D    
C25   C29   A    
O24   C48   S    
C43   F4    S    
C27   C31   A    
C13   C17   A    
O13   C5    A    
C22   H10   S    
C43   C44   S    
C28   C32   A    
C24   C28   A    
O12   C1    A    
C9    H1    S    
C38   C42   D    
C17   C21   A    
C11   H3    S    
C12   H4    S    
C19   C23   A    
C20   C24   A    
C30   C33   A    
