data_mof_unit_10433.cif
_audit_creation_date              2012-12-11T14:24:43-0500
_audit_creation_method            fapswitch 2.2
_symmetry_space_group_name_H-M    P1
_symmetry_Int_Tables_number       1
_space_group_crystal_system       triclinic
_cell_length_a                    18.954655
_cell_length_b                    10.98862
_cell_length_c                    18.609923
_cell_angle_alpha                 90.298103
_cell_angle_beta                  91.501041
_cell_angle_gamma                 89.670519
_cell_volume                      3874.73346749

loop_
_atom_site_label
_atom_site_type_symbol
_atom_type_description
_atom_site_fract_x
_atom_site_fract_y
_atom_site_fract_z
_atom_type_partial_charge
C1    C     C_R   0.730239 0.375315 0.145850 0.548083
C2    C     C_R   0.270626 0.374244 0.854910 0.534753
C3    C     C_R   0.230229 0.875283 0.145832 0.535702
C4    C     C_R   0.770629 0.874240 0.854910 0.546779
C5    C     C_3   0.455787 0.082779 0.031125 -0.119171
C6    C     C_3   0.511405 0.050694 0.975041 -0.101212
C7    C     C_3   0.955751 0.582788 0.031152 -0.119250
C8    C     C_3   0.011367 0.550687 0.975067 -0.101545
C9    C     C_R   0.757008 0.900125 0.930768 -0.006401
C10   C     C_R   0.246723 0.905071 0.071418 -0.005420
C11   C     C_R   0.257009 0.400113 0.930771 -0.003865
C12   C     C_R   0.746745 0.405170 0.071450 -0.008918
C13   C     C_R   0.697757 0.853232 0.966697 0.020623
C14   C     C_R   0.301612 0.846091 0.033049 0.019464
C15   C     C_R   0.197761 0.353213 0.966708 0.021453
C16   C     C_R   0.801653 0.346235 0.033101 0.018822
C17   C     C_R   0.700541 0.846621 0.042737 0.023633
C18   C     C_R   0.297356 0.843927 0.956845 0.025782
C19   C     C_R   0.200550 0.346598 0.042749 0.022870
C20   C     C_R   0.797404 0.344038 0.956898 0.026985
C21   C     C_R   0.814694 0.944174 0.045247 -0.153773
C22   C     C_R   0.191952 0.969917 0.959913 -0.158338
C23   C     C_R   0.314698 0.444155 0.045249 -0.154622
C24   C     C_R   0.691972 0.469963 0.959932 -0.157352
C25   C     C_R   0.815343 0.941570 0.971714 -0.155862
C26   C     C_R   0.192973 0.965998 0.033198 -0.150913
C27   C     C_R   0.315347 0.441542 0.971715 -0.155303
C28   C     C_R   0.692989 0.466069 0.033218 -0.151984
C29   C     C_R   0.636790 0.809442 0.929992 -0.098627
C30   C     C_R   0.359593 0.786717 0.067302 -0.087705
C31   C     C_R   0.136793 0.309420 0.930010 -0.098364
C32   C     C_R   0.859635 0.286905 0.067381 -0.088031
C33   C     C_R   0.086342 0.243959 0.966334 -0.145726
C34   C     C_R   0.904841 0.213384 0.028394 -0.128955
C35   C     C_R   0.586331 0.743989 0.966309 -0.146686
C36   C     C_R   0.404807 0.713249 0.028283 -0.128888
C37   C     C_R   0.593611 0.726328 0.039991 -0.131364
C38   C     C_R   0.396470 0.703080 0.954196 -0.131830
C39   C     C_R   0.093630 0.226285 0.040017 -0.131776
C40   C     C_R   0.896512 0.203164 0.954310 -0.131285
C41   C     C_R   0.649537 0.778364 0.078247 -0.079842
C42   C     C_R   0.343618 0.768299 0.918454 -0.079997
C43   C     C_R   0.149556 0.278325 0.078267 -0.080569
C44   C     C_R   0.843680 0.268397 0.918538 -0.078989
C45   C     C_R   0.531202 0.155752 0.145079 0.549705
C46   C     C_R   0.467715 0.155369 0.855674 0.558863
C47   C     C_R   0.031182 0.655754 0.145094 0.542024
C48   C     C_R   0.967698 0.655367 0.855688 0.558733
C49   C     C_R   0.755173 0.906925 0.081134 -0.009098
C50   C     C_R   0.245994 0.916146 0.921110 -0.009285
C51   C     C_R   0.255177 0.406913 0.081140 -0.010637
C52   C     C_R   0.746022 0.416201 0.921140 -0.006316
C53   C     C_R   0.452337 0.146744 0.563492 0.002789
C54   C     C_R   0.509241 0.162100 0.427513 0.005918
C55   C     C_R   0.964486 0.649987 0.564256 0.004342
C56   C     C_R   0.994595 0.669532 0.418681 -0.001634
C57   C     C_R   0.491444 0.046425 0.535558 0.044794
C58   C     C_R   0.530249 0.067630 0.474916 0.021628
C59   C     C_R   0.947067 0.552648 0.515855 0.023368
C60   C     C_R   0.953014 0.572398 0.441568 0.024657
C61   C     C_R   0.458663 0.247312 0.448482 -0.149673
C62   C     C_R   0.434086 0.244592 0.518476 -0.150355
C63   C     C_R   0.021540 0.754182 0.468513 -0.137944
C64   C     C_R   0.005127 0.746126 0.540268 -0.142274
C65   C     C_R   0.496214 0.927111 0.566168 -0.086684
C66   C     C_R   0.586084 0.987461 0.460702 -0.071007
C67   C     C_R   0.931101 0.432640 0.537654 -0.108307
C68   C     C_R   0.926213 0.484878 0.392171 -0.072886
C69   C     C_R   0.921661 0.339940 0.487046 -0.160641
C70   C     C_R   0.914670 0.366941 0.414645 -0.105967
C71   C     C_R   0.543224 0.841127 0.542602 -0.146876
C72   C     C_R   0.586279 0.870395 0.488034 -0.111897
C73   C     C_R   0.793004 0.836940 0.557769 -0.010010
C74   C     C_R   0.261620 0.966609 0.408209 -0.007373
C75   C     C_R   0.237877 0.466580 0.590676 -0.008740
C76   C     C_R   0.708815 0.332529 0.441399 -0.010494
C77   C     C_R   0.846644 0.904532 0.521013 0.035850
C78   C     C_R   0.218196 0.059491 0.435966 0.040000
C79   C     C_R   0.282028 0.556709 0.563094 0.038615
C80   C     C_R   0.653196 0.389115 0.481143 0.024294
C81   C     C_R   0.840589 0.914769 0.445250 0.045521
C82   C     C_R   0.214601 0.074702 0.511445 0.030908
C83   C     C_R   0.284643 0.572230 0.487865 0.028596
C84   C     C_R   0.661873 0.399603 0.556686 0.035958
C85   C     C_R   0.738771 0.788450 0.440584 -0.167301
C86   C     C_R   0.320078 0.948236 0.522977 -0.150698
C87   C     C_R   0.171992 0.467251 0.478093 -0.140254
C88   C     C_R   0.775650 0.302992 0.553325 -0.141039
C89   C     C_R   0.742976 0.964955 0.150553 0.535374
C90   C     C_R   0.257285 0.966462 0.849995 0.551519
C91   C     C_R   0.242979 0.464944 0.150562 0.548507
C92   C     C_R   0.757292 0.466477 0.850009 0.536999
C93   C     C_R   0.745474 0.767856 0.515049 -0.158526
C94   C     C_R   0.318296 0.925481 0.449657 -0.145133
C95   C     C_R   0.177375 0.436401 0.550969 -0.146664
C96   C     C_R   0.763747 0.275058 0.480562 -0.147171
C97   C     C_R   0.906807 0.961130 0.554630 -0.106725
C98   C     C_R   0.174424 0.130243 0.389677 -0.066322
C99   C     C_R   0.328656 0.622099 0.608922 -0.057731
C100  C     C_R   0.589203 0.435609 0.450290 -0.106245
C101  C     C_R   0.958170 0.018341 0.514972 -0.168168
C102  C     C_R   0.118411 0.196201 0.416430 -0.118356
C103  C     C_R   0.388572 0.673145 0.581950 -0.129749
C104  C     C_R   0.535719 0.481192 0.492771 -0.149209
C105  C     C_R   0.954718 0.015006 0.440734 -0.134544
C106  C     C_R   0.108086 0.198681 0.489769 -0.163252
C107  C     C_R   0.396361 0.678495 0.508249 -0.175809
C108  C     C_R   0.541584 0.474821 0.566939 -0.115230
C109  C     C_R   0.897953 0.959435 0.406130 -0.078372
C110  C     C_R   0.157274 0.144893 0.537128 -0.107681
C111  C     C_R   0.343535 0.635749 0.461801 -0.110477
C112  C     C_R   0.603797 0.432746 0.598865 -0.070342
C113  C     C_R   0.776664 0.881414 0.409936 -0.010329
C114  C     C_R   0.266985 0.015053 0.556257 -0.013041
C115  C     C_R   0.229304 0.521110 0.443619 -0.006870
C116  C     C_R   0.729420 0.380738 0.588262 -0.002411
C117  C     C_R   0.708962 0.327316 0.361376 0.571410
C118  C     C_R   0.265738 0.389336 0.650546 0.523487
C119  C     C_R   0.234565 0.891216 0.347831 0.533350
C120  C     C_R   0.790832 0.828874 0.638102 0.558320
C121  C     C_R   0.534247 0.157419 0.354103 0.524807
C122  C     C_R   0.434484 0.150824 0.639323 0.543034
C123  C     C_R   0.030434 0.658525 0.351040 0.523005
C124  C     C_R   0.940495 0.651762 0.638411 0.538532
C125  C     C_R   0.748036 0.958276 0.349474 0.513046
C126  C     C_R   0.271144 0.025918 0.635915 0.548974
C127  C     C_R   0.227876 0.527704 0.363679 0.573270
C128  C     C_R   0.753657 0.460292 0.648623 0.524322
C129  C     C_3   0.542505 0.243420 0.969712 -0.135226
C130  C     C_3   0.486857 0.275755 0.026447 -0.122819
C131  C     C_3   0.042478 0.743407 0.969734 -0.134848
C132  C     C_3   0.986832 0.775757 0.026469 -0.123069
C133  C     C_3   0.566214 0.131584 0.014432 -0.099462
C134  C     C_3   0.432055 0.194359 0.986513 -0.115879
C135  C     C_3   0.066180 0.631570 0.014455 -0.098321
C136  C     C_3   0.932025 0.694368 0.986535 -0.116183
C137  C     C_3   0.509946 0.163567 0.069835 0.055629
C138  C     C_3   0.488276 0.162211 0.931283 0.045527
C139  C     C_3   0.009914 0.663569 0.069858 0.057318
C140  C     C_3   0.988244 0.662205 0.931306 0.045170
Cr1   Cr    Cr6+3 0.772820 0.169820 0.252640 0.978314
Cr2   Cr    Cr6+3 0.227180 0.169820 0.747360 0.983167
Cr3   Cr    Cr6+3 0.272820 0.669820 0.252640 0.984964
Cr4   Cr    Cr6+3 0.727180 0.669820 0.747360 0.999120
Cr5   Cr    Cr6+3 0.615040 0.323610 0.249150 0.986947
Cr6   Cr    Cr6+3 0.384960 0.323610 0.750850 0.987455
Cr7   Cr    Cr6+3 0.115040 0.823610 0.249150 0.988920
Cr8   Cr    Cr6+3 0.884960 0.823610 0.750850 0.988692
Cr9   Cr    Cr6+3 0.616720 0.011130 0.250660 0.995234
Cr10  Cr    Cr6+3 0.383280 0.011130 0.749340 0.986560
Cr11  Cr    Cr6+3 0.116720 0.511130 0.250660 0.989918
Cr12  Cr    Cr6+3 0.883280 0.511130 0.749340 0.986346
H1    H     H_    0.621722 0.105274 0.027628 0.131257
H2    H     H_    0.376278 0.216916 0.972730 0.130683
H3    H     H_    0.121686 0.605251 0.027652 0.130910
H4    H     H_    0.876249 0.716930 0.972754 0.129986
H5    H     H_    0.440722 0.318139 0.411990 0.125318
H6    H     H_    0.400352 0.317488 0.537161 0.140669
H7    H     H_    0.057814 0.824333 0.452518 0.154382
H8    H     H_    0.025953 0.813715 0.577558 0.140538
H9    H     H_    0.461873 0.892088 0.605520 0.143039
H10   H     H_    0.626811 0.014690 0.426265 0.165539
H11   H     H_    0.930670 0.403213 0.592451 0.160319
H12   H     H_    0.921432 0.503742 0.335176 0.125720
H13   H     H_    0.915816 0.247419 0.504614 0.117375
H14   H     H_    0.902278 0.295945 0.375902 0.131285
H15   H     H_    0.544409 0.750231 0.564839 0.115792
H16   H     H_    0.614779 0.798407 0.464645 0.121177
H17   H     H_    0.701133 0.738271 0.407499 0.124506
H18   H     H_    0.360469 0.905814 0.554795 0.143228
H19   H     H_    0.124990 0.441552 0.447675 0.157353
H20   H     H_    0.822585 0.270099 0.581312 0.123999
H21   H     H_    0.921225 0.957256 0.610491 0.169234
H22   H     H_    0.181577 0.129893 0.332101 0.123523
H23   H     H_    0.322110 0.624456 0.666588 0.130812
H24   H     H_    0.575887 0.435536 0.394169 0.172761
H25   H     H_    0.710810 0.703022 0.539643 0.148254
H26   H     H_    0.357915 0.868168 0.426110 0.128257
H27   H     H_    0.136378 0.384897 0.575754 0.124371
H28   H     H_    0.800606 0.216208 0.453533 0.150733
H29   H     H_    0.003448 0.057909 0.542510 0.114348
H30   H     H_    0.082566 0.244563 0.380272 0.116414
H31   H     H_    0.428761 0.706650 0.618840 0.087971
H32   H     H_    0.487317 0.512816 0.467285 0.119219
H33   H     H_    0.996946 0.052104 0.409845 0.123863
H34   H     H_    0.063676 0.248863 0.510461 0.109176
H35   H     H_    0.441829 0.720564 0.485732 0.116097
H36   H     H_    0.497934 0.501836 0.599814 0.129269
H37   H     H_    0.899095 0.951601 0.348142 0.129941
H38   H     H_    0.147629 0.161479 0.592761 0.162546
H39   H     H_    0.352072 0.656754 0.406723 0.165100
H40   H     H_    0.606490 0.426607 0.656935 0.134370
H41   H     H_    0.420185 0.018955 0.058168 0.121800
H42   H     H_    0.520298 0.959340 0.951774 0.144231
H43   H     H_    0.920149 0.518991 0.058211 0.121058
H44   H     H_    0.020261 0.459323 0.951810 0.143751
H45   H     H_    0.859963 0.981929 0.073976 0.138034
H46   H     H_    0.149482 0.020601 0.933822 0.152040
H47   H     H_    0.359969 0.481903 0.073975 0.139162
H48   H     H_    0.649492 0.520610 0.933830 0.151589
H49   H     H_    0.626560 0.825627 0.873527 0.138761
H50   H     H_    0.372019 0.796882 0.123864 0.137318
H51   H     H_    0.126561 0.325602 0.873545 0.136021
H52   H     H_    0.872057 0.297132 0.123943 0.135118
H53   H     H_    0.864056 0.967235 0.947303 0.148543
H54   H     H_    0.148737 0.006890 0.059775 0.149578
H55   H     H_    0.364064 0.467187 0.947304 0.149019
H56   H     H_    0.648742 0.506938 0.059786 0.149548
H57   H     H_    0.042471 0.204986 0.936593 0.106170
H58   H     H_    0.944566 0.160369 0.056433 0.092205
H59   H     H_    0.542456 0.705029 0.936566 0.105795
H60   H     H_    0.444546 0.660228 0.056297 0.093399
H61   H     H_    0.057358 0.169645 0.067989 0.093985
H62   H     H_    0.930033 0.142530 0.924365 0.095766
H63   H     H_    0.557328 0.669707 0.067963 0.095653
H64   H     H_    0.430000 0.642493 0.924228 0.094687
H65   H     H_    0.654444 0.759367 0.135150 0.127144
H66   H     H_    0.337331 0.754464 0.861061 0.125625
H67   H     H_    0.154469 0.259323 0.135173 0.123958
H68   H     H_    0.837405 0.254536 0.861148 0.128524
O1    O     O_R   0.788190 0.043000 0.172520 -0.525371
O2    O     O_R   0.211810 0.043000 0.827480 -0.516976
O3    O     O_R   0.288190 0.543000 0.172520 -0.516460
O4    O     O_R   0.711810 0.543000 0.827480 -0.527217
O5    O     O_R   0.556550 0.253260 0.323480 -0.539990
O6    O     O_R   0.443450 0.253260 0.676520 -0.490571
O7    O     O_R   0.056550 0.753260 0.323480 -0.506656
O8    O     O_R   0.943450 0.753260 0.676520 -0.528788
O9    O     O_R   0.545830 0.051610 0.330160 -0.521453
O10   O     O_R   0.454170 0.051610 0.669840 -0.538638
O11   O     O_R   0.045830 0.551610 0.330160 -0.540056
O12   O     O_R   0.954170 0.551610 0.669840 -0.531083
O13   O     O_R   0.681920 0.959720 0.327070 -0.521232
O14   O     O_R   0.318080 0.959720 0.672930 -0.524062
O15   O     O_R   0.181920 0.459720 0.327070 -0.506379
O16   O     O_R   0.818080 0.459720 0.672930 -0.525420
O17   O     O_3   0.668190 0.168190 0.250820 -0.260655
O18   O     O_3   0.331810 0.168190 0.749180 -0.277180
O19   O     O_3   0.168190 0.668190 0.250820 -0.255873
O20   O     O_3   0.831810 0.668190 0.749180 -0.274974
O21   O     O_R   0.766240 0.292300 0.176860 -0.505934
O22   O     O_R   0.233760 0.292300 0.823140 -0.506766
O23   O     O_R   0.266240 0.792300 0.176860 -0.511686
O24   O     O_R   0.733760 0.792300 0.823140 -0.500849
O25   O     O_R   0.670310 0.409160 0.168720 -0.522003
O26   O     O_R   0.329690 0.409160 0.831280 -0.531577
O27   O     O_R   0.170310 0.909160 0.168720 -0.531540
O28   O     O_R   0.829690 0.909160 0.831280 -0.523890
O29   O     O_R   0.556160 0.251900 0.173380 -0.501931
O30   O     O_R   0.443840 0.251900 0.826620 -0.499039
O31   O     O_R   0.056160 0.751900 0.173380 -0.503722
O32   O     O_R   0.943840 0.751900 0.826620 -0.498772
O33   O     O_R   0.545410 0.050140 0.168240 -0.512860
O34   O     O_R   0.454590 0.050140 0.831760 -0.516609
O35   O     O_R   0.045410 0.550140 0.168240 -0.519570
O36   O     O_R   0.954590 0.550140 0.831760 -0.516697
O37   O     O_R   0.681530 0.958350 0.176970 -0.505272
O38   O     O_R   0.318470 0.958350 0.823030 -0.501451
O39   O     O_R   0.181530 0.458350 0.176970 -0.503970
O40   O     O_R   0.818470 0.458350 0.823030 -0.505059
O41   O     O_R   0.788610 0.044480 0.334450 -0.544146
O42   O     O_R   0.211390 0.044480 0.665550 -0.528030
O43   O     O_R   0.288610 0.544480 0.334450 -0.539995
O44   O     O_R   0.711390 0.544480 0.665550 -0.538843
O45   O     O_R   0.766630 0.293670 0.326970 -0.505754
O46   O     O_R   0.233370 0.293670 0.673030 -0.529980
O47   O     O_R   0.266630 0.793670 0.326970 -0.529704
O48   O     O_R   0.733370 0.793670 0.673030 -0.482730
O49   O     O_R   0.670730 0.410640 0.330640 -0.538334
O50   O     O_R   0.329270 0.410640 0.669360 -0.537265
O51   O     O_R   0.170730 0.910640 0.330640 -0.525188
O52   O     O_R   0.829270 0.910640 0.669360 -0.540161
H69   H     H_    0.577689 0.307597 0.942345 0.114411
H70   H     H_    0.476480 0.367448 0.049260 0.103576
H71   H     H_    0.077669 0.807576 0.942371 0.115512
H72   H     H_    0.976462 0.867450 0.049285 0.102415

loop_
_geom_bond_atom_site_label_1
_geom_bond_atom_site_label_2
_ccdc_geom_bond_type
C128  O16   A    
C73   C77   A    
C99   C103  A    
C88   C96   A    
Cr2   O2    S    
C24   C52   A    
C88   H20   S    
C55   C59   A    
C78   C82   A    
Cr8   O20   S    
Cr8   O52   S    
C129  H69   S    
Cr8   O8    S    
C73   C93   A    
C133  C137  S    
C136  C140  S    
C76   C96   A    
C21   C49   A    
Cr11  O39   S    
C7    C8    S    
C26   H54   S    
C49   C89   S    
C132  C139  S    
C15   C19   A    
C74   C119  S    
C1    C12   S    
Cr7   O31   S    
C7    C136  S    
C33   C39   A    
C50   C90   S    
Cr2   O22   S    
Cr6   O30   S    
C37   C41   A    
C120  O48   A    
C82   C110  A    
C92   O4    A    
C13   C29   A    
C35   C37   A    
C38   C42   A    
C6    C133  S    
C61   H5    S    
C53   C122  S    
C18   C42   A    
Cr1   O21   S    
C89   O1    A    
C5    C6    S    
C114  C126  S    
C121  O5    A    
C132  C136  S    
Cr10  O34   S    
C113  C125  S    
Cr9   O33   S    
C122  O6    A    
C107  H35   S    
C104  C108  A    
Cr8   O28   S    
C115  C127  S    
C86   C114  A    
C126  O42   A    
Cr5   O49   S    
C94   H26   S    
Cr11  O35   S    
C105  H33   S    
C14   C18   A    
C46   O30   A    
C23   H47   S    
C9    C13   A    
C48   O32   A    
C86   C94   A    
C59   C67   A    
C118  O46   A    
C85   C93   A    
C58   C66   A    
C100  C104  A    
C66   C72   A    
C129  C138  S    
C12   C16   A    
C83   C111  A    
C109  H37   S    
Cr10  O18   S    
Cr5   O17   S    
C100  H24   S    
Cr9   O17   S    
C33   H57   S    
C31   C33   A    
C102  C106  A    
C131  C140  S    
C63   H7    S    
C48   O36   A    
C34   H58   S    
C77   C97   A    
C47   O31   A    
C61   C62   A    
C103  C107  A    
C80   C84   A    
C22   C50   A    
C45   O29   A    
C10   C26   A    
C11   C15   A    
C134  C138  S    
C92   O40   A    
Cr7   O27   S    
C59   C60   A    
C84   C116  A    
C73   C120  S    
C71   H15   S    
C80   C100  A    
C8    C135  S    
C51   C91   S    
C72   H16   S    
Cr4   O48   S    
C75   C118  S    
C3    O27   A    
C31   H51   S    
C14   C30   A    
C25   H53   S    
C2    C11   S    
C75   C95   A    
C2    O26   A    
C124  O8    A    
C19   C43   A    
Cr5   O29   S    
C69   H13   S    
C68   H12   S    
C123  O7    A    
C101  C105  A    
C5    C134  S    
C122  O10   A    
Cr11  O11   S    
Cr8   O32   S    
C121  O9    A    
C48   C140  S    
C9    C25   A    
C102  H30   S    
C56   C123  S    
C83   C115  A    
C111  H39   S    
Cr6   O50   S    
Cr2   O46   S    
C89   O37   A    
C88   C116  A    
C82   C114  A    
C10   C14   A    
C135  H3    S    
C17   C49   A    
Cr12  O36   S    
C53   C57   A    
C7    H43   S    
C39   C43   A    
Cr6   O6    S    
Cr10  O14   S    
Cr5   O5    S    
C15   C31   A    
C110  H38   S    
Cr9   O13   S    
C108  C112  A    
Cr12  O12   S    
C87   C95   A    
C67   C69   A    
Cr4   O20   S    
Cr1   O45   S    
C6    C138  S    
C135  C139  S    
Cr1   O1    S    
C125  O13   A    
C47   O35   A    
Cr3   O3    S    
Cr3   O19   S    
C32   H52   S    
C112  H40   S    
C81   C113  A    
C53   C62   A    
Cr12  O40   S    
C13   C17   A    
C23   C51   A    
Cr12  O20   S    
C85   H17   S    
C11   C27   A    
C4    C9    S    
C16   C20   A    
C87   H19   S    
C55   C64   A    
C64   H8    S    
C29   C35   A    
C45   C137  S    
C56   C63   A    
C99   H23   S    
C3    O23   A    
C119  O47   A    
C37   H63   S    
Cr3   O23   S    
C5    C137  S    
C2    O22   A    
C106  H34   S    
C117  O45   A    
C124  O12   A    
C126  O14   A    
C45   O33   A    
C36   H60   S    
C129  C133  S    
C1    O21   A    
C95   H27   S    
C104  H32   S    
C54   C121  S    
C12   C28   A    
Cr2   O42   S    
C20   C44   A    
C23   C27   A    
Cr5   O25   S    
C74   C78   A    
C28   H56   S    
C103  H31   S    
C7    C139  S    
C66   H10   S    
Cr3   O43   S    
Cr1   O41   S    
C125  O41   A    
C131  C132  S    
Cr4   O44   S    
C6    H42   S    
C118  O50   A    
C101  H29   S    
C18   C50   A    
C5    H41   S    
C129  C130  S    
C106  C110  A    
C79   C99   A    
Cr2   O18   S    
C21   C25   A    
C55   C124  S    
C133  H1    S    
Cr1   O17   S    
C40   H62   S    
Cr6   O26   S    
C86   H18   S    
C107  C111  A    
C108  H36   S    
C43   H67   S    
C24   C28   A    
C38   H64   S    
C42   H66   S    
Cr10  O10   S    
C47   C139  S    
C41   H65   S    
C76   C80   A    
C90   O2    A    
Cr11  O15   S    
Cr12  O16   S    
C54   C61   A    
Cr7   O19   S    
C16   C32   A    
C119  O51   A    
C131  H71   S    
C81   C109  A    
C131  C135  S    
C54   C58   A    
C120  O52   A    
C30   C36   A    
C8    C140  S    
C39   H61   S    
C87   C115  A    
C96   H28   S    
C85   C113  A    
Cr9   O37   S    
Cr9   O9    S    
C71   C72   A    
C20   C52   A    
C3    C10   S    
C98   C102  A    
C75   C79   A    
Cr10  O38   S    
C36   C38   A    
C79   C83   A    
C29   H49   S    
C35   H59   S    
C57   C58   A    
C134  H2    S    
Cr7   O7    S    
C105  C109  A    
Cr11  O19   S    
C19   C51   A    
C98   H22   S    
Cr4   O24   S    
C21   H45   S    
C4    O24   A    
C62   H6    S    
C8    H44   S    
Cr3   O47   S    
C65   C71   A    
C128  O44   A    
C136  H4    S    
Cr6   O18   S    
C69   C70   A    
C130  C134  S    
C76   C117  S    
C17   C41   A    
C44   H68   S    
Cr4   O4    S    
C70   H14   S    
C91   O39   A    
C60   C68   A    
C22   C26   A    
C63   C64   A    
C117  O49   A    
C67   H11   S    
C56   C60   A    
C40   C44   A    
C30   H50   S    
C123  O11   A    
C78   C98   A    
C24   H48   S    
C27   H55   S    
C68   C70   A    
C77   C81   A    
C116  C128  S    
C65   H9    S    
C74   C94   A    
C4    O28   A    
C22   H46   S    
C46   C138  S    
C34   C40   A    
C1    O25   A    
C84   C112  A    
C127  O15   A    
C93   H25   S    
C130  H70   S    
C90   O38   A    
C130  C137  S    
C91   O3    A    
Cr7   O51   S    
C46   O34   A    
C52   C92   S    
C97   C101  A    
C97   H21   S    
C32   C34   A    
C57   C65   A    
C132  H72   S    
C127  O43   A    
