data_mof_unit_29802.cif
_audit_creation_date              2012-12-11T16:06:24-0500
_audit_creation_method            fapswitch 2.2
_symmetry_space_group_name_H-M    P1
_symmetry_Int_Tables_number       1
_space_group_crystal_system       triclinic
_cell_length_a                    7.192376
_cell_length_b                    14.470781
_cell_length_c                    15.803495
_cell_angle_alpha                 90.001231
_cell_angle_beta                  89.98858
_cell_angle_gamma                 90.029467
_cell_volume                      1644.81641443

loop_
_atom_site_label
_atom_site_type_symbol
_atom_type_description
_atom_site_fract_x
_atom_site_fract_y
_atom_site_fract_z
_atom_type_partial_charge
O1    O     O_R   0.388780 0.834790 0.412340 -0.539461
O2    O     O_R   0.111220 0.165210 0.912340 -0.538945
O3    O     O_R   0.888780 0.665210 0.587660 -0.540842
O4    O     O_R   0.611220 0.334790 0.087660 -0.539050
O5    O     O_R   0.059040 0.845930 0.587040 -0.549794
O6    O     O_R   0.440960 0.154070 0.087040 -0.549230
O7    O     O_R   0.559040 0.654070 0.412960 -0.549940
O8    O     O_R   0.940960 0.345930 0.912960 -0.549380
C1    C     C_R   0.227961 0.868553 0.614907 0.695799
C2    C     C_R   0.272006 0.131392 0.114860 0.691606
C3    C     C_R   0.727956 0.631388 0.385138 0.689563
C4    C     C_R   0.772080 0.368908 0.885370 0.693732
O9    O     O_R   0.059070 0.845930 0.412970 -0.543985
O10   O     O_R   0.440930 0.154070 0.912970 -0.543763
O11   O     O_R   0.559070 0.654070 0.587030 -0.540553
O12   O     O_R   0.940930 0.345930 0.087030 -0.543696
O13   O     O_R   0.888760 0.665210 0.412340 -0.533410
O14   O     O_R   0.611240 0.334790 0.912340 -0.533702
O15   O     O_R   0.388760 0.834790 0.587660 -0.531659
O16   O     O_R   0.111240 0.165210 0.087660 -0.533259
C5    C     C_R   0.227801 0.868473 0.385261 0.679846
C6    C     C_R   0.272197 0.131481 0.885299 0.680920
C7    C     C_R   0.727700 0.631720 0.614924 0.682082
C8    C     C_R   0.772235 0.368478 0.114739 0.682974
O17   O     O_3   0.222280 0.690700 0.500000 -0.373504
O18   O     O_3   0.277720 0.309300 0.000000 -0.373669
O19   O     O_3   0.722280 0.809300 0.500000 -0.374188
O20   O     O_3   0.777720 0.190700 0.000000 -0.373603
V1    V     V_3+5 0.947430 0.761000 0.500000 1.369587
V2    V     V_3+5 0.552570 0.239000 0.000000 1.368060
V3    V     V_3+5 0.447430 0.739000 0.500000 1.377902
V4    V     V_3+5 0.052570 0.261000 0.000000 1.368536
C9    C     C_3   0.813010 0.612315 0.770870 0.063800
C10   C     C_3   0.690055 0.388858 0.270540 0.071712
C11   C     C_3   0.310051 0.888905 0.229465 0.072333
C12   C     C_3   0.190616 0.111080 0.729464 0.072411
C13   C     C_3   0.812218 0.542329 0.848557 0.409878
C14   C     C_3   0.695470 0.457663 0.348541 0.421271
C15   C     C_3   0.304522 0.957690 0.151458 0.423591
C16   C     C_3   0.196076 0.042251 0.651490 0.419723
H1    H     H_    0.014638 0.511731 0.651637 0.157903
H2    H     H_    0.481701 0.486654 0.152097 0.155108
H3    H     H_    0.518258 0.986847 0.347942 0.155198
H4    H     H_    0.981177 0.013462 0.847726 0.153966
C17   C     C_3   0.874037 0.483899 0.666368 -0.380732
C18   C     C_3   0.621433 0.515804 0.166369 -0.365314
C19   C     C_3   0.378516 0.015903 0.333653 -0.365066
C20   C     C_3   0.120847 0.984207 0.833610 -0.370509
C21   C     C_3   0.545162 0.520424 0.708179 -0.325776
C22   C     C_3   0.953007 0.484221 0.204464 -0.341181
C23   C     C_3   0.046996 0.984090 0.295511 -0.340535
C24   C     C_3   0.452776 0.015555 0.795772 -0.344427
C25   C     C_3   0.738216 0.564006 0.688689 0.054059
C26   C     C_3   0.761563 0.437152 0.187654 0.013687
C27   C     C_3   0.238482 0.937152 0.312348 0.013631
C28   C     C_3   0.261481 0.062763 0.812416 0.018942
C29   C     C_3   0.761472 0.441640 0.815309 0.067027
C30   C     C_3   0.738829 0.559059 0.314792 0.054720
C31   C     C_3   0.261117 0.059064 0.185205 0.053809
C32   C     C_3   0.238798 0.940836 0.685288 0.059941
C33   C     C_3   0.890697 0.413984 0.740314 -0.403355
C34   C     C_3   0.603714 0.584905 0.241147 -0.402368
C35   C     C_3   0.396219 0.084997 0.258861 -0.401809
C36   C     C_3   0.103194 0.915068 0.758838 -0.409133
C37   C     C_3   0.561051 0.444687 0.776624 -0.360811
C38   C     C_3   0.936889 0.559202 0.273607 -0.353166
C39   C     C_3   0.063069 0.059092 0.226380 -0.353364
C40   C     C_3   0.436629 0.940553 0.726648 -0.355706
H5    H     H_    0.527193 0.376535 0.747737 0.153451
H6    H     H_    0.964745 0.628019 0.244723 0.152982
H7    H     H_    0.035192 0.127890 0.255273 0.153730
H8    H     H_    0.463909 0.871724 0.755598 0.162261
H9    H     H_    0.824109 0.447441 0.608654 0.172691
H10   H     H_    0.668228 0.553270 0.108659 0.172300
H11   H     H_    0.331658 0.053339 0.391368 0.173435
H12   H     H_    0.167130 0.946748 0.891399 0.171674
H13   H     H_    0.959774 0.632765 0.757417 0.107337
H14   H     H_    0.541376 0.370916 0.258630 0.120707
H15   H     H_    0.458756 0.871095 0.241374 0.120276
H16   H     H_    0.041966 0.129125 0.741248 0.120869
H17   H     H_    0.851446 0.344033 0.716995 0.157552
H18   H     H_    0.636608 0.655680 0.217886 0.156950
H19   H     H_    0.363316 0.155759 0.282112 0.157991
H20   H     H_    0.135719 0.844293 0.782159 0.155242
N1    N     N_3   0.710565 0.697900 0.789760 -0.700563
H21   H     H_    0.726844 0.744402 0.739717 0.207858
H22   H     H_    0.776023 0.730419 0.840795 0.234680
N2    N     N_3   0.784669 0.300790 0.288606 -0.683598
H23   H     H_    0.926837 0.305703 0.276183 0.217276
H24   H     H_    0.731974 0.249593 0.248478 0.212301
N3    N     N_3   0.215557 0.800754 0.211409 -0.685315
H25   H     H_    0.073386 0.805550 0.223842 0.216858
H26   H     H_    0.268336 0.749608 0.251537 0.212335
N4    N     N_3   0.285740 0.199081 0.711452 -0.683367
H27   H     H_    0.427824 0.194102 0.724010 0.217549
H28   H     H_    0.233053 0.250324 0.751511 0.211974
N5    N     N_3   0.674832 0.568925 0.913749 -0.686217
H29   H     H_    0.723999 0.625340 0.948587 0.245250
H30   H     H_    0.548535 0.588815 0.886683 0.252973
N6    N     N_3   0.839052 0.430873 0.410696 -0.678549
H31   H     H_    0.797641 0.370490 0.441914 0.269644
H32   H     H_    0.965584 0.416071 0.381331 0.231018
N7    N     N_3   0.160906 0.930792 0.089329 -0.681049
H33   H     H_    0.202342 0.870440 0.058100 0.266762
H34   H     H_    0.034417 0.915896 0.118719 0.229723
N8    N     N_3   0.340074 0.068930 0.589441 -0.679296
H35   H     H_    0.299111 0.129339 0.558186 0.269648
H36   H     H_    0.466546 0.083635 0.618905 0.231094
N9    N     N_3   0.997666 0.545427 0.888366 -0.697584
H37   H     H_    0.100527 0.518473 0.848941 0.206997
H38   H     H_    0.998008 0.509159 0.945548 0.247439
N10   N     N_3   0.514118 0.452760 0.392016 -0.680136
H39   H     H_    0.406866 0.479680 0.355084 0.202330
H40   H     H_    0.518597 0.488636 0.449390 0.242803
N11   N     N_3   0.485843 0.952895 0.107954 -0.683455
H41   H     H_    0.593082 0.979964 0.144837 0.202330
H42   H     H_    0.481255 0.988689 0.050540 0.242293
N12   N     N_3   0.014946 0.047256 0.607875 -0.680174
H43   H     H_    0.907443 0.020346 0.644716 0.202737
H44   H     H_    0.019555 0.011405 0.550490 0.242569
H45   H     H_    0.038006 0.408016 0.760365 0.149224
H46   H     H_    0.457107 0.588003 0.262760 0.147434
H47   H     H_    0.542827 0.088167 0.237252 0.147504
H48   H     H_    0.956653 0.911953 0.737125 0.145272
H49   H     H_    0.485458 0.489439 0.649700 0.149625
H50   H     H_    0.004746 0.516854 0.145156 0.158623
H51   H     H_    0.995183 0.016683 0.354814 0.159331
H52   H     H_    0.504089 0.982918 0.855134 0.156465
H53   H     H_    0.446833 0.574800 0.729979 0.168334
H54   H     H_    0.059374 0.432682 0.223553 0.138042
H55   H     H_    0.940690 0.932474 0.276402 0.137836
H56   H     H_    0.559477 0.067011 0.776741 0.138576
H57   H     H_    0.453265 0.456448 0.825846 0.160097
H58   H     H_    0.048556 0.548943 0.321264 0.158039
H59   H     H_    0.951418 0.048773 0.178715 0.157879
H60   H     H_    0.548611 0.950698 0.679091 0.156698

loop_
_geom_bond_atom_site_label_1
_geom_bond_atom_site_label_2
_ccdc_geom_bond_type
O17   V3    S    
C16   N12   S    
C15   N7    S    
C30   C34   S    
O1    C5    A    
C16   C32   S    
O19   V1    S    
O13   V1    S    
C20   H12   S    
O3    C7    A    
C34   H46   S    
O15   V3    S    
N12   H44   S    
C13   N5    S    
N5    H29   S    
C24   H52   S    
O4    V2    S    
N1    H21   S    
O18   V4    S    
C22   C26   S    
C21   C37   S    
C18   C34   S    
C17   H9    S    
N9    H38   S    
C19   C35   S    
C11   C15   S    
O4    C8    A    
C21   C25   S    
C20   C36   S    
C39   H7    S    
N8    H35   S    
C8    C26   S    
N11   H41   S    
O1    V3    S    
O2    V4    S    
H2    C18   S    
C11   H15   S    
O3    V1    S    
C9    N1    S    
N12   H43   S    
C36   H20   S    
C22   H54   S    
C31   C39   S    
C38   H58   S    
C24   C28   S    
C30   C38   S    
C2    O16   A    
N11   H42   S    
O2    C6    A    
C22   H50   S    
C3    C30   S    
C13   N9    S    
C24   C40   S    
C40   H8    S    
O11   C7    A    
C34   H18   S    
C19   C27   S    
C17   C25   S    
O12   C8    A    
C14   C30   S    
O10   V2    S    
N10   H40   S    
N10   H39   S    
N5    H30   S    
C1    O15   A    
C7    C25   S    
O5    V1    S    
N1    H22   S    
C9    C25   S    
O7    V3    S    
C11   C27   S    
C24   H56   S    
C12   C16   S    
C14   N6    S    
C12   H16   S    
N3    H25   S    
C5    C27   S    
C23   H55   S    
C6    C28   S    
C36   H48   S    
C21   H53   S    
O11   V3    S    
C9    C13   S    
C35   H19   S    
O8    V4    S    
O7    C3    A    
O5    C1    A    
C39   H59   S    
C12   C28   S    
N3    H26   S    
C40   H60   S    
O8    C4    A    
C15   C31   S    
C18   C26   S    
N6    H32   S    
O9    C5    A    
N7    H34   S    
C23   C39   S    
N4    H28   S    
C22   C38   S    
O14   V2    S    
C4    C29   S    
O6    V2    S    
N2    H24   S    
C10   C26   S    
C15   N11   S    
C14   N10   S    
C18   H10   S    
C16   N8    S    
O16   V4    S    
O9    V1    S    
C20   C28   S    
C3    O13   A    
C10   C14   S    
C33   H45   S    
C29   C37   S    
O6    C2    A    
C35   H47   S    
C29   C33   S    
O12   V4    S    
C21   H49   S    
C31   C35   S    
C32   C36   S    
C1    C32   S    
C23   H51   S    
O10   C6    A    
O20   V2    S    
C2    C31   S    
C19   H11   S    
C33   H17   S    
N9    H37   S    
C10   H14   S    
C9    H13   S    
C38   H6    S    
N8    H36   S    
C37   H5    S    
C17   C33   S    
N6    H31   S    
C23   C27   S    
N4    H27   S    
C37   H57   S    
C10   N2    S    
C12   N4    S    
N2    H23   S    
C32   C40   S    
C4    O14   A    
N7    H33   S    
H1    C17   S    
H3    C19   S    
C13   C29   S    
H4    C20   S    
C11   N3    S    
