data_mof_unit_35551.cif
_audit_creation_date              2012-12-11T16:46:30-0500
_audit_creation_method            fapswitch 2.2
_symmetry_space_group_name_H-M    P1
_symmetry_Int_Tables_number       1
_space_group_crystal_system       triclinic
_cell_length_a                    26.194817
_cell_length_b                    7.35348
_cell_length_c                    23.769174
_cell_angle_alpha                 89.99989
_cell_angle_beta                  101.414758
_cell_angle_gamma                 90.000399
_cell_volume                      4487.92959954

loop_
_atom_site_label
_atom_site_type_symbol
_atom_type_description
_atom_site_fract_x
_atom_site_fract_y
_atom_site_fract_z
_atom_type_partial_charge
O1    O     O_R   0.547620 0.505720 0.453310 -0.510569
O2    O     O_R   0.452380 0.005720 0.546690 -0.510620
O3    O     O_R   0.442260 0.172470 0.436770 -0.512075
O4    O     O_R   0.557740 0.672470 0.563230 -0.512063
C1    C     C_R   0.075785 0.468134 0.078356 0.689661
C2    C     C_R   0.924215 0.968133 0.921643 0.689803
C3    C     C_R   0.424443 0.344471 0.421986 0.736219
C4    C     C_R   0.575556 0.844472 0.578014 0.736289
O5    O     O_R   0.546600 0.175780 0.446490 -0.537172
O6    O     O_R   0.453400 0.675780 0.553510 -0.537189
O7    O     O_R   0.557460 0.008970 0.556480 -0.533927
O8    O     O_R   0.442540 0.508970 0.443520 -0.533911
C5    C     C_R   0.563022 0.344220 0.435957 0.745931
C6    C     C_R   0.436981 0.844219 0.564046 0.745946
O9    O     O_R   0.047630 0.803580 0.953300 -0.539959
O10   O     O_R   0.952370 0.303580 0.046700 -0.540010
O11   O     O_3   0.503440 0.340340 0.536080 -0.379039
O12   O     O_3   0.496560 0.840340 0.463920 -0.378970
V1    V     V_3+5 0.499360 0.064140 0.493310 1.651459
V2    V     V_3+5 0.500640 0.564140 0.506690 1.651462
O13   O     O_R   0.057730 0.636870 0.063240 -0.515952
O14   O     O_R   0.942270 0.136870 0.936760 -0.515991
O15   O     O_3   0.996540 0.468950 0.963950 -0.376120
O16   O     O_3   0.003460 0.968950 0.036050 -0.376269
C7    C     C_R   0.113718 0.784614 0.874731 -0.130628
C8    C     C_R   0.886233 0.284588 0.125212 -0.130842
H1    H     H_    0.096569 0.659776 0.886484 0.132315
H2    H     H_    0.903347 0.159733 0.113418 0.132228
C9    C     C_R   0.149594 0.773302 0.838380 -0.025152
C10   C     C_R   0.850356 0.273273 0.161560 -0.025062
H3    H     H_    0.159292 0.641352 0.823134 0.128147
H4    H     H_    0.840624 0.141307 0.176766 0.128008
C11   C     C_R   0.172743 0.930841 0.821689 0.199855
C12   C     C_R   0.827254 0.430828 0.178304 0.199951
C13   C     C_R   0.159886 0.100199 0.842259 -0.010318
C14   C     C_R   0.840156 0.600208 0.157789 -0.010360
H5    H     H_    0.177524 0.223267 0.829847 0.121602
H6    H     H_    0.822553 0.723290 0.170243 0.121560
C15   C     C_R   0.123764 0.112057 0.878492 -0.133883
C16   C     C_R   0.876278 0.612069 0.121556 -0.133812
H7    H     H_    0.114645 0.244902 0.893501 0.125658
H8    H     H_    0.885433 0.744933 0.106591 0.125651
C17   C     C_R   0.100128 0.954232 0.895314 -0.051244
C18   C     C_R   0.899869 0.454226 0.104683 -0.051274
C19   C     C_R   0.193511 0.893123 0.722818 0.339211
C20   C     C_R   0.806492 0.393480 0.277187 0.339446
C21   C     C_R   0.230579 0.877073 0.687679 -0.225323
C22   C     C_R   0.769427 0.377416 0.312330 -0.225371
H9    H     H_    0.217634 0.855366 0.642045 0.192633
H10   H     H_    0.782377 0.356007 0.357976 0.192517
C23   C     C_R   0.284246 0.886205 0.710824 -0.041349
C24   C     C_R   0.715756 0.386159 0.289172 -0.041306
C25   C     C_R   0.300492 0.910680 0.770267 -0.204936
C26   C     C_R   0.699505 0.410236 0.229713 -0.204995
H11   H     H_    0.341558 0.919956 0.789194 0.169366
H12   H     H_    0.658436 0.419206 0.210775 0.169363
C27   C     C_R   0.263989 0.926916 0.805786 0.613691
C28   C     C_R   0.736006 0.426469 0.194190 0.613696
C29   C     C_R   0.210326 0.917880 0.782655 -0.206493
C30   C     C_R   0.789670 0.417853 0.217336 -0.206550
C31   C     C_R   0.368358 0.768467 0.688174 -0.099703
C32   C     C_R   0.631678 0.268242 0.311867 -0.099724
H13   H     H_    0.375658 0.693060 0.728094 0.144890
H14   H     H_    0.624405 0.192662 0.271979 0.144849
C33   C     C_R   0.404535 0.757829 0.652081 -0.196167
C34   C     C_R   0.595502 0.257629 0.347959 -0.196022
H15   H     H_    0.439325 0.676548 0.665398 0.157221
H16   H     H_    0.560737 0.176199 0.334672 0.157235
C35   C     C_R   0.396643 0.853656 0.599920 -0.164081
C36   C     C_R   0.603361 0.353659 0.400082 -0.164090
C37   C     C_R   0.350405 0.957649 0.583426 0.454951
C38   C     C_R   0.649570 0.457839 0.416538 0.454972
C39   C     C_R   0.314535 0.967245 0.620128 -0.173936
C40   C     C_R   0.685436 0.467427 0.379831 -0.173993
H17   H     H_    0.279928 0.050013 0.607958 0.181641
H18   H     H_    0.720016 0.550349 0.391969 0.181597
C41   C     C_R   0.322997 0.873658 0.672662 0.064948
C42   C     C_R   0.677006 0.373628 0.327337 0.065010
C43   C     C_3   0.763757 0.756621 0.798086 -0.391872
C44   C     C_3   0.236245 0.256629 0.201910 -0.391881
C45   C     C_3   0.752432 0.083960 0.794145 0.279953
C46   C     C_3   0.247575 0.583966 0.205853 0.279945
C47   C     C_3   0.705909 0.076189 0.741190 -0.306696
C48   C     C_3   0.294091 0.576193 0.258814 -0.306817
H19   H     H_    0.758103 0.745248 0.843084 0.249894
H20   H     H_    0.241900 0.245257 0.156913 0.249898
H21   H     H_    0.736572 0.061128 0.833692 0.179058
H22   H     H_    0.263440 0.561127 0.166309 0.179070
H23   H     H_    0.668720 0.094538 0.756271 0.224091
H24   H     H_    0.331283 0.594559 0.243740 0.224114
H25   H     H_    0.707275 0.188610 0.710364 0.245625
H26   H     H_    0.292718 0.688606 0.289641 0.245613
C49   C     C_1   0.621230 0.856304 0.623804 -0.031667
C50   C     C_1   0.378768 0.356299 0.376197 -0.031562
C51   C     C_3   0.792859 0.933001 0.790407 -0.233998
C52   C     C_3   0.207144 0.433013 0.209587 -0.233937
C53   C     C_3   0.710664 0.737479 0.753786 0.283142
C54   C     C_3   0.289337 0.237484 0.246212 0.283150
C55   C     C_3   0.706444 0.893235 0.708806 -0.184366
C56   C     C_3   0.293555 0.393229 0.291195 -0.184383
C57   C     C_3   0.756630 0.886619 0.682712 0.392784
C58   C     C_3   0.243365 0.386596 0.317283 0.392832
C59   C     C_3   0.806046 0.935928 0.728822 0.240647
C60   C     C_3   0.193956 0.435948 0.271172 0.240610
C61   C     C_1   0.659480 0.872012 0.661945 0.174095
C62   C     C_1   0.340517 0.372004 0.338057 0.174150
C63   C     C_1   0.840343 0.946507 0.837303 0.223719
C64   C     C_1   0.159661 0.446517 0.162692 0.223429
C65   C     C_1   0.878707 0.957240 0.875580 -0.031866
C66   C     C_1   0.121295 0.457245 0.124417 -0.032408
H27   H     H_    0.816682 0.077101 0.720120 0.180902
H28   H     H_    0.183331 0.577131 0.279877 0.181035
H29   H     H_    0.760189 0.747062 0.665914 0.143051
H30   H     H_    0.239796 0.247027 0.334068 0.142998
H31   H     H_    0.790809 0.649854 0.792128 0.288293
H32   H     H_    0.209191 0.149863 0.207866 0.288334
H33   H     H_    0.710673 0.607062 0.730382 0.161798
H34   H     H_    0.289327 0.107062 0.269613 0.161789
V3    V     V_3+5 0.000640 0.745210 0.006690 1.519251
V4    V     V_3+5 0.999360 0.245210 0.993310 1.519086
O17   O     O_R   0.057440 0.306950 0.056520 -0.531163
O18   O     O_R   0.942560 0.806950 0.943480 -0.531016
O19   O     O_R   0.953390 0.633680 0.053510 -0.541841
O20   O     O_R   0.046610 0.133680 0.946490 -0.541821
C67   C     C_R   0.937870 0.464911 0.065503 0.696657
C68   C     C_R   0.062129 0.964912 0.934496 0.696796
S1    S     S_3+6 0.334865 0.073776 0.516889 0.027161
O21   O     O_2   0.363784 0.251409 0.522098 -0.346615
O22   O     O_2   0.350314 0.961189 0.470168 -0.333251
O23   O     O_3   0.270525 0.115775 0.499781 -0.463577
H35   H     H_    0.265417 0.182412 0.462857 0.405860
S2    S     S_3+6 0.665086 0.574184 0.483038 0.027066
O24   O     O_2   0.636112 0.751708 0.477785 -0.346631
O25   O     O_2   0.649684 0.461653 0.529799 -0.333280
O26   O     O_3   0.729414 0.616439 0.500119 -0.463671
H36   H     H_    0.734509 0.683145 0.537029 0.405871
S3    S     S_3+6 0.655100 0.724727 0.789286 0.049782
O27   O     O_2   0.607580 0.811610 0.753606 -0.343134
O28   O     O_2   0.642796 0.528510 0.798203 -0.262923
O29   O     O_3   0.668315 0.829521 0.853431 -0.494214
H37   H     H_    0.637058 0.809528 0.870236 0.393729
S4    S     S_3+6 0.344905 0.224745 0.210716 0.049792
O30   O     O_2   0.392418 0.311678 0.246392 -0.343130
O31   O     O_2   0.357220 0.028531 0.201814 -0.262932
O32   O     O_3   0.331687 0.329493 0.146563 -0.494202
H38   H     H_    0.362945 0.309502 0.129762 0.393731
S5    S     S_3+6 0.778921 0.305016 0.802199 -0.047419
O33   O     O_2   0.741717 0.410295 0.830027 -0.296743
O34   O     O_2   0.831857 0.316024 0.840494 -0.340488
O35   O     O_3   0.781729 0.388024 0.736707 -0.535910
H39   H     H_    0.818834 0.381953 0.733766 0.392201
S6    S     S_3+6 0.221088 0.805024 0.197793 -0.047185
O36   O     O_2   0.258301 0.910305 0.169977 -0.296777
O37   O     O_2   0.168158 0.816033 0.159483 -0.340308
O38   O     O_3   0.218265 0.888028 0.263280 -0.535848
H40   H     H_    0.181157 0.881961 0.266210 0.392848
S7    S     S_3+6 0.862971 0.805459 0.720846 0.071198
O39   O     O_2   0.854158 0.713964 0.663160 -0.259474
O40   O     O_2   0.908038 0.934667 0.724997 -0.269438
O41   O     O_3   0.878722 0.647243 0.772442 -0.511996
H41   H     H_    0.911096 0.590435 0.765210 0.389193
S8    S     S_3+6 0.137021 0.305543 0.279141 0.071341
O42   O     O_2   0.145790 0.214182 0.336844 -0.258615
O43   O     O_2   0.091964 0.434828 0.274930 -0.270118
O44   O     O_3   0.121288 0.147215 0.227578 -0.512012
H42   H     H_    0.088300 0.093174 0.234055 0.389036
F1    F     F_    0.752347 0.005700 0.636719 -0.605018
F2    F     F_    0.247647 0.505642 0.363285 -0.604906
S9    S     S_3+6 0.126578 0.881726 0.690638 0.115083
O45   O     O_2   0.105136 0.702138 0.705242 -0.261643
O46   O     O_2   0.097158 0.031941 0.713036 -0.285306
O47   O     O_3   0.118085 0.899350 0.618827 -0.423542
H43   H     H_    0.127608 0.026496 0.611730 0.368141
S10   S     S_3+6 0.873430 0.382600 0.309368 0.115103
O48   O     O_2   0.895031 0.203436 0.294630 -0.261564
O49   O     O_2   0.902714 0.533403 0.287072 -0.285422
O50   O     O_3   0.881911 0.399639 0.381192 -0.423581
H44   H     H_    0.872366 0.526687 0.388387 0.368173
F3    F     F_    0.281075 0.950478 0.863070 -0.642767
F4    F     F_    0.718917 0.449650 0.136890 -0.642718

loop_
_geom_bond_atom_site_label_1
_geom_bond_atom_site_label_2
_ccdc_geom_bond_type
C34   H16   S    
O44   H42   S    
C43   H31   S    
C28   F4    S    
C57   H29   S    
S9    O45   D    
S5    O33   D    
O4    C4    A    
C7    C17   A    
C23   C41   S    
O32   H38   S    
C8    C18   A    
O26   H36   S    
C15   H7    S    
O47   H43   S    
O14   V4    S    
S3    O28   D    
O7    V1    S    
S7    O39   D    
C40   H18   S    
S5    O34   D    
O3    C3    A    
O10   V4    S    
C60   S8    S    
C45   C51   S    
C46   H22   S    
O19   C67   A    
C5    C36   S    
C28   C30   A    
C2    O14   A    
C9    C11   A    
O11   V2    S    
C59   H27   S    
O12   V1    S    
C35   C37   A    
O5    C5    A    
S10   O48   D    
C47   H23   S    
C32   H14   S    
C49   C61   T    
C60   H28   S    
O5    V1    S    
C19   C29   A    
C1    C66   S    
C44   H32   S    
C24   C26   A    
S2    O24   D    
C33   H15   S    
O9    C68   A    
C44   H20   S    
O9    V3    S    
C20   S10   S    
O3    V1    S    
C44   C52   S    
O10   C67   A    
C16   C18   A    
C44   C54   S    
C25   H11   S    
C52   C64   S    
C57   C59   S    
C47   C55   S    
C54   S4    S    
C12   C30   S    
S9    O46   D    
S4    O32   S    
C37   S1    S    
C48   H24   S    
C24   C42   S    
C17   C68   S    
C53   S3    S    
C45   C47   S    
C51   C59   S    
C38   S2    S    
S8    O43   D    
C19   C21   A    
C7    C9    A    
C3    O8    A    
C55   C61   S    
S3    O29   S    
C20   C22   A    
C18   C67   S    
C46   C52   S    
C10   C12   A    
C48   C56   S    
C14   C16   A    
S5    O35   S    
O29   H37   S    
C38   C40   A    
C53   C55   S    
O6    V2    S    
O15   V4    S    
C27   F3    S    
C25   C27   A    
C59   S7    S    
C15   C17   A    
C45   S5    S    
C23   C25   A    
S7    O40   D    
C13   C15   A    
S1    O22   D    
C43   C51   S    
C63   C65   T    
C58   H30   S    
S8    O44   S    
S6    O38   S    
C4    O7    A    
C9    H3    S    
O8    V2    S    
C2    O18   A    
C56   C58   S    
C3    C50   S    
C58   C60   S    
C22   H10   S    
S10   O50   S    
C45   H21   S    
C51   C63   S    
S2    O25   D    
C6    C35   S    
C55   C57   S    
S6    O37   D    
C8    C10   A    
S7    O41   S    
C46   C48   S    
C52   C60   S    
O6    C6    A    
C2    C65   S    
S4    O31   D    
C27   C29   A    
O1    C5    A    
C39   H17   S    
S1    O21   D    
C43   H19   S    
C47   H25   S    
V4    O17   S    
O16   V3    S    
O20   C68   A    
S8    O42   D    
C26   C28   A    
V3    O18   S    
C13   H5    S    
C31   C41   A    
C50   C62   T    
C1    O17   A    
C58   F2    S    
C20   C30   A    
O2    V1    S    
O35   H39   S    
C8    H2    S    
C32   C42   A    
C31   H13   S    
C4    C49   S    
O1    V2    S    
C19   S9    S    
C21   C23   A    
C26   H12   S    
C43   C53   S    
V3    O19   S    
C56   C62   S    
C7    H1    S    
C57   F1    S    
S3    O27   D    
C54   C56   S    
O41   H41   S    
C14   H6    S    
O23   H35   S    
S1    O23   S    
O13   V3    S    
C21   H9    S    
C10   H4    S    
C34   C36   A    
S2    O26   S    
C33   C35   A    
C54   H34   S    
C16   H8    S    
C11   C13   A    
C64   C66   T    
C12   C14   A    
C53   H33   S    
O2    C6    A    
S10   O49   D    
C32   C34   A    
O4    V2    S    
C31   C33   A    
C22   C24   A    
C1    O13   A    
S6    O36   D    
C11   C29   S    
O50   H44   S    
C40   C42   A    
C37   C39   A    
O38   H40   S    
C39   C41   A    
S4    O30   D    
C36   C38   A    
S9    O47   S    
C48   H26   S    
C46   S6    S    
V4    O20   S    
