data_mof_unit_35098.cif
_audit_creation_date              2012-12-11T15:22:31-0500
_audit_creation_method            fapswitch 2.2
_symmetry_space_group_name_H-M    P1
_symmetry_Int_Tables_number       1
_space_group_crystal_system       triclinic
_cell_length_a                    22.453304
_cell_length_b                    12.982421
_cell_length_c                    26.96323
_cell_angle_alpha                 89.959741
_cell_angle_beta                  90.350097
_cell_angle_gamma                 89.967749
_cell_volume                      7859.58430371

loop_
_atom_site_label
_atom_site_type_symbol
_atom_type_description
_atom_site_fract_x
_atom_site_fract_y
_atom_site_fract_z
_atom_type_partial_charge
C1    C     C_R   0.719893 0.342611 0.177370 0.580881
C2    C     C_R   0.280073 0.342748 0.822627 0.574876
C3    C     C_R   0.220379 0.845256 0.178024 0.561084
C4    C     C_R   0.779941 0.843105 0.822494 0.576548
C5    C     C_R   0.475717 0.162498 0.871673 -0.027912
C6    C     C_R   0.522519 0.166237 0.129240 -0.022742
C7    C     C_R   0.974647 0.665270 0.872210 -0.022663
C8    C     C_R   0.020488 0.665426 0.129956 -0.025852
C9    C     C_R   0.516954 0.261688 0.104368 0.289524
C10   C     C_R   0.489876 0.256938 0.894663 0.284263
C11   C     C_R   0.010373 0.761117 0.106260 0.293060
C12   C     C_R   0.982371 0.760966 0.896443 0.287657
C13   C     C_R   0.509188 0.263329 0.052082 0.036959
C14   C     C_R   0.498231 0.260464 0.946949 0.035287
C15   C     C_R   0.000363 0.764028 0.054154 0.038569
C16   C     C_R   0.989177 0.763976 0.948905 0.036652
C17   C     C_R   0.500829 0.168838 0.026673 -0.095435
C18   C     C_R   0.496085 0.167246 0.974507 -0.091605
C19   C     C_R   0.996328 0.669904 0.027736 -0.081222
C20   C     C_R   0.992263 0.669856 0.975496 -0.081646
C21   C     C_R   0.510382 0.356576 0.024792 0.229627
C22   C     C_R   0.507564 0.354677 0.972222 0.229316
C23   C     C_R   0.995385 0.858192 0.027901 0.236203
C24   C     C_R   0.992080 0.858263 0.975275 0.224570
C25   C     C_R   0.744847 0.948337 0.132764 -0.024850
C26   C     C_R   0.263583 0.965021 0.871256 -0.015879
C27   C     C_R   0.245682 0.447179 0.133196 -0.019931
C28   C     C_R   0.753642 0.448444 0.867162 -0.023970
C29   C     C_R   0.797432 0.972035 0.107194 -0.158349
C30   C     C_R   0.209960 0.926515 0.889687 -0.142753
C31   C     C_R   0.298365 0.470859 0.107731 -0.152273
C32   C     C_R   0.703957 0.481888 0.894253 -0.161827
C33   C     C_R   0.803605 0.945023 0.057664 -0.172171
C34   C     C_R   0.205048 0.904042 0.940134 -0.163948
C35   C     C_R   0.305181 0.442089 0.058452 -0.178770
C36   C     C_R   0.696830 0.452726 0.943293 -0.174883
C37   C     C_R   0.757480 0.893623 0.032695 0.041081
C38   C     C_R   0.253268 0.923013 0.972301 0.026298
C39   C     C_R   0.259516 0.389252 0.033507 0.043064
C40   C     C_R   0.738676 0.388427 0.966393 0.045778
C41   C     C_R   0.706983 0.860934 0.059459 0.282648
C42   C     C_R   0.306184 0.965436 0.954045 0.292550
C43   C     C_R   0.209409 0.355715 0.060552 0.264184
C44   C     C_R   0.784645 0.344148 0.937800 0.287703
C45   C     C_R   0.553116 0.157795 0.177752 0.546787
C46   C     C_R   0.446638 0.157222 0.822418 0.540774
C47   C     C_R   0.052741 0.657691 0.177903 0.547643
C48   C     C_R   0.946360 0.657620 0.822622 0.548098
C49   C     C_R   0.701393 0.887482 0.109545 -0.095202
C50   C     C_R   0.311833 0.982587 0.903453 -0.095119
C51   C     C_R   0.203137 0.384148 0.110359 -0.119981
C52   C     C_R   0.791878 0.374854 0.888105 -0.092512
C53   C     C_R   0.745269 0.790235 0.955257 -0.104377
C54   C     C_R   0.286540 0.842352 0.051040 -0.089576
C55   C     C_R   0.244173 0.288891 0.955041 -0.127103
C56   C     C_R   0.745185 0.282162 0.043851 -0.103245
C57   C     C_R   0.746905 0.782020 0.903982 -0.185532
C58   C     C_R   0.280980 0.828874 0.101923 -0.186935
C59   C     C_R   0.245231 0.282095 0.903726 -0.194111
C60   C     C_R   0.744293 0.274352 0.095204 -0.181433
C61   C     C_R   0.783200 0.957982 0.897371 0.273982
C62   C     C_R   0.200350 0.955263 0.103156 0.285952
C63   C     C_R   0.285991 0.455190 0.898157 0.271258
C64   C     C_R   0.721843 0.456947 0.102382 0.272972
C65   C     C_R   0.777780 0.967622 0.949050 -0.115604
C66   C     C_R   0.204930 0.964428 0.051480 -0.115327
C67   C     C_R   0.281205 0.463584 0.950004 -0.117025
C68   C     C_R   0.726937 0.465534 0.050615 -0.110080
C69   C     C_R   0.760475 0.883082 0.978275 -0.004934
C70   C     C_R   0.247186 0.907401 0.025624 0.000436
C71   C     C_R   0.262126 0.379538 0.978838 -0.004734
C72   C     C_R   0.736937 0.377869 0.020993 0.002349
C73   C     C_R   0.766429 0.864808 0.874617 0.044896
C74   C     C_R   0.236430 0.881465 0.128091 0.027508
C75   C     C_R   0.266752 0.364071 0.874858 0.046113
C76   C     C_R   0.732240 0.360939 0.124818 0.051944
C77   C     C_R   0.528143 0.168096 0.371198 -0.032983
C78   C     C_R   0.471871 0.168168 0.628812 -0.033387
C79   C     C_R   0.028139 0.668100 0.371195 -0.032937
C80   C     C_R   0.971869 0.668165 0.628809 -0.033044
C81   C     C_R   0.554111 0.240223 0.403403 -0.189190
C82   C     C_R   0.445830 0.240254 0.596554 -0.189077
C83   C     C_R   0.054113 0.740215 0.403402 -0.188903
C84   C     C_R   0.945843 0.740279 0.596556 -0.189133
C85   C     C_R   0.542271 0.237705 0.453728 -0.190049
C86   C     C_R   0.457661 0.237709 0.546228 -0.189818
C87   C     C_R   0.042269 0.737697 0.453726 -0.189811
C88   C     C_R   0.957668 0.737734 0.546229 -0.189868
C89   C     C_R   0.732067 0.000453 0.179935 0.534211
C90   C     C_R   0.268859 0.002081 0.820528 0.533922
C91   C     C_R   0.232188 0.500319 0.179999 0.541362
C92   C     C_R   0.767785 0.500481 0.820111 0.536627
C93   C     C_R   0.505293 0.161632 0.473183 0.037702
C94   C     C_R   0.494704 0.161646 0.526831 0.037780
C95   C     C_R   0.005279 0.661639 0.473178 0.037685
C96   C     C_R   0.994690 0.661647 0.526825 0.037763
C97   C     C_R   0.477368 0.089406 0.441726 0.351989
C98   C     C_R   0.522702 0.089467 0.558346 0.352059
C99   C     C_R   0.977347 0.589425 0.441717 0.351920
C100  C     C_R   0.022677 0.589445 0.558335 0.352085
C101  C     C_R   0.486692 0.095565 0.389866 0.229589
C102  C     C_R   0.513385 0.095658 0.610201 0.229690
C103  C     C_R   0.986676 0.595586 0.389858 0.229679
C104  C     C_R   0.013363 0.595629 0.610190 0.229749
C105  C     C_R   0.737364 0.963740 0.373911 0.051807
C106  C     C_R   0.262607 0.963703 0.626116 0.051921
C107  C     C_R   0.237366 0.463713 0.373909 0.052170
C108  C     C_R   0.762594 0.463651 0.626132 0.051838
C109  C     C_R   0.684498 0.945657 0.400207 -0.159526
C110  C     C_R   0.315452 0.945318 0.599833 -0.159366
C111  C     C_R   0.184495 0.445699 0.400208 -0.159736
C112  C     C_R   0.815432 0.445265 0.599840 -0.159450
C113  C     C_R   0.685421 0.939600 0.451225 -0.120592
C114  C     C_R   0.314508 0.939057 0.548819 -0.120321
C115  C     C_R   0.185419 0.439611 0.451222 -0.120656
C116  C     C_R   0.814473 0.438983 0.548828 -0.120210
C117  C     C_R   0.739183 0.949321 0.476882 -0.013152
C118  C     C_R   0.260750 0.948934 0.523152 -0.013025
C119  C     C_R   0.239184 0.449273 0.476875 -0.013062
C120  C     C_R   0.760705 0.448827 0.523171 -0.013005
C121  C     C_R   0.792835 0.959054 0.451049 -0.102133
C122  C     C_R   0.207115 0.958975 0.548986 -0.102221
C123  C     C_R   0.292840 0.458934 0.451042 -0.102420
C124  C     C_R   0.707076 0.458850 0.549016 -0.102189
C125  C     C_R   0.792527 0.964296 0.399189 0.281942
C126  C     C_R   0.207434 0.964367 0.600849 0.281960
C127  C     C_R   0.292544 0.464127 0.399166 0.282353
C128  C     C_R   0.707414 0.464281 0.600876 0.281928
C129  C     C_R   0.769624 0.009310 0.561935 0.249021
C130  C     C_R   0.230312 0.009036 0.438053 0.249111
C131  C     C_R   0.269645 0.509279 0.561920 0.248941
C132  C     C_R   0.730257 0.508958 0.438079 0.248959
C133  C     C_R   0.721177 0.347018 0.321950 0.596846
C134  C     C_R   0.278819 0.347057 0.678056 0.596147
C135  C     C_R   0.221177 0.847016 0.321950 0.589890
C136  C     C_R   0.778819 0.847057 0.678057 0.596317
C137  C     C_R   0.781341 0.980964 0.611352 0.277100
C138  C     C_R   0.218608 0.980783 0.388641 0.276285
C139  C     C_R   0.281366 0.480941 0.611338 0.276989
C140  C     C_R   0.718576 0.480743 0.388657 0.277224
C141  C     C_R   0.721688 0.824395 0.599647 0.174435
C142  C     C_R   0.278231 0.824063 0.400411 0.174868
C143  C     C_R   0.221652 0.324433 0.599659 0.174412
C144  C     C_R   0.778229 0.324051 0.400411 0.174366
C145  C     C_R   0.713783 0.850372 0.550117 -0.161845
C146  C     C_R   0.286123 0.849950 0.449942 -0.162110
C147  C     C_R   0.213748 0.350394 0.550126 -0.161817
C148  C     C_R   0.786094 0.349894 0.449949 -0.162088
C149  C     C_R   0.739707 0.938813 0.530659 -0.034866
C150  C     C_R   0.260209 0.938431 0.469369 -0.034941
C151  C     C_R   0.239702 0.438796 0.530654 -0.034832
C152  C     C_R   0.760155 0.438343 0.469388 -0.035002
C153  C     C_R   0.758399 0.887227 0.629937 0.027281
C154  C     C_R   0.241559 0.887038 0.370084 0.027440
C155  C     C_R   0.258396 0.387235 0.629936 0.027122
C156  C     C_R   0.741551 0.387026 0.370088 0.027532
C157  C     C_R   0.553902 0.158855 0.321407 0.523820
C158  C     C_R   0.446107 0.158873 0.678599 0.524526
C159  C     C_R   0.053900 0.658856 0.321406 0.522591
C160  C     C_R   0.946104 0.658872 0.678597 0.524748
C161  C     C_R   0.731421 0.002649 0.323312 0.573510
C162  C     C_R   0.268584 0.002665 0.676688 0.574266
C163  C     C_R   0.231422 0.502642 0.323311 0.571755
C164  C     C_R   0.768580 0.502652 0.676693 0.573560
C165  C     C_R   0.507940 0.075435 0.104401 -0.200416
C166  C     C_R   0.479763 0.071038 0.898832 -0.186161
C167  C     C_R   0.008327 0.574259 0.104395 -0.189779
C168  C     C_R   0.983747 0.574114 0.898575 -0.187739
C169  C     C_R   0.496000 0.075444 0.053624 -0.064903
C170  C     C_R   0.489242 0.071686 0.949854 -0.034858
C171  C     C_R   0.996030 0.574998 0.053651 -0.040926
C172  C     C_R   0.992495 0.574838 0.949763 -0.037489
C173  C     C_R   0.485771 0.978871 0.977190 0.327469
C174  C     C_R   0.484043 0.982006 0.028685 0.304162
C175  C     C_R   0.995683 0.481098 0.976149 0.262064
C176  C     C_R   0.990105 0.481315 0.027490 0.261632
Cr1   Cr    Cr6+3 0.756570 0.170940 0.251190 1.080685
Cr2   Cr    Cr6+3 0.243430 0.170940 0.748810 1.078074
Cr3   Cr    Cr6+3 0.256570 0.670940 0.251190 1.073507
Cr4   Cr    Cr6+3 0.743430 0.670940 0.748810 1.078557
Cr5   Cr    Cr6+3 0.623740 0.299110 0.249580 1.047225
Cr6   Cr    Cr6+3 0.376260 0.299110 0.750420 1.050926
Cr7   Cr    Cr6+3 0.123740 0.799110 0.249580 1.070605
Cr8   Cr    Cr6+3 0.876260 0.799110 0.750420 1.046768
Cr9   Cr    Cr6+3 0.625990 0.036240 0.250480 1.022032
Cr10  Cr    Cr6+3 0.374010 0.036240 0.749520 1.027968
Cr11  Cr    Cr6+3 0.125990 0.536240 0.250480 1.022829
Cr12  Cr    Cr6+3 0.874010 0.536240 0.749520 1.023398
H1    H     H_    0.469271 0.999167 0.880598 0.165055
H2    H     H_    0.511262 0.003064 0.124150 0.156303
H3    H     H_    0.977851 0.501447 0.879573 0.159000
H4    H     H_    0.014927 0.501496 0.123228 0.159142
H5    H     H_    0.661261 0.865956 0.129097 0.135054
H6    H     H_    0.352675 0.016587 0.889926 0.143635
H7    H     H_    0.163223 0.361871 0.130020 0.127143
H8    H     H_    0.828329 0.344022 0.866582 0.126134
H9    H     H_    0.586372 0.295467 0.390059 0.141502
H10   H     H_    0.413515 0.295467 0.609859 0.141301
H11   H     H_    0.086382 0.795449 0.390062 0.141495
H12   H     H_    0.913546 0.795520 0.609866 0.141388
H13   H     H_    0.563550 0.293405 0.477956 0.122257
H14   H     H_    0.436327 0.293375 0.521955 0.122020
H15   H     H_    0.063554 0.793386 0.477957 0.122264
H16   H     H_    0.936345 0.793421 0.521960 0.122262
H17   H     H_    0.641455 0.943742 0.381851 0.153014
H18   H     H_    0.358496 0.943294 0.618187 0.152988
H19   H     H_    0.141448 0.443861 0.381857 0.153119
H20   H     H_    0.858482 0.443267 0.618185 0.152845
H21   H     H_    0.643889 0.930028 0.470815 0.156491
H22   H     H_    0.356029 0.929257 0.529235 0.156163
H23   H     H_    0.143884 0.430091 0.470815 0.156556
H24   H     H_    0.855990 0.429201 0.529235 0.156118
H25   H     H_    0.689862 0.797987 0.525848 0.124118
H26   H     H_    0.310036 0.797484 0.474233 0.124263
H27   H     H_    0.189805 0.298022 0.525865 0.124064
H28   H     H_    0.810014 0.297425 0.474234 0.124285
H29   H     H_    0.834647 0.963711 0.471196 0.120418
H30   H     H_    0.165315 0.963813 0.528827 0.120316
H31   H     H_    0.334626 0.463644 0.471219 0.119866
H32   H     H_    0.665264 0.463642 0.528871 0.120355
H33   H     H_    0.832400 0.017210 0.124438 0.146472
H34   H     H_    0.172236 0.914980 0.865178 0.116275
H35   H     H_    0.332907 0.517284 0.124799 0.140121
H36   H     H_    0.672348 0.536290 0.878737 0.147559
H37   H     H_    0.733253 0.723158 0.976880 0.165702
H38   H     H_    0.320334 0.799713 0.031167 0.168284
H39   H     H_    0.230404 0.221987 0.975900 0.165224
H40   H     H_    0.750871 0.212733 0.022192 0.169179
H41   H     H_    0.736331 0.708202 0.887480 0.141050
H42   H     H_    0.309433 0.772988 0.120228 0.142004
H43   H     H_    0.232634 0.209559 0.886827 0.147208
H44   H     H_    0.749522 0.198769 0.111714 0.139491
H45   H     H_    0.843454 0.968367 0.038173 0.127568
H46   H     H_    0.163459 0.874062 0.954313 0.127854
H47   H     H_    0.345089 0.465556 0.039086 0.120818
H48   H     H_    0.659908 0.484477 0.963986 0.127872
H49   H     H_    0.787264 0.041043 0.966430 0.138384
H50   H     H_    0.175457 0.015518 0.031160 0.121687
H51   H     H_    0.292351 0.535790 0.967823 0.113611
H52   H     H_    0.722745 0.540675 0.033469 0.118483
O1    O     O_R   0.769900 0.064540 0.196060 -0.527823
O2    O     O_R   0.230100 0.064540 0.803940 -0.523847
O3    O     O_R   0.269900 0.564540 0.196060 -0.524937
O4    O     O_R   0.730100 0.564540 0.803940 -0.529804
O5    O     O_R   0.574760 0.239320 0.300850 -0.516049
O6    O     O_R   0.425240 0.239320 0.699150 -0.514398
O7    O     O_R   0.074760 0.739320 0.300850 -0.517030
O8    O     O_R   0.925240 0.739320 0.699150 -0.515305
O9    O     O_R   0.566290 0.069580 0.305400 -0.502038
O10   O     O_R   0.433710 0.069580 0.694600 -0.500725
O11   O     O_R   0.066290 0.569580 0.305400 -0.502176
O12   O     O_R   0.933710 0.569580 0.694600 -0.501668
O13   O     O_R   0.680760 0.993330 0.302620 -0.522284
O14   O     O_R   0.319240 0.993330 0.697380 -0.520976
O15   O     O_R   0.180760 0.493330 0.302620 -0.523962
O16   O     O_R   0.819240 0.493330 0.697380 -0.522679
O17   O     O_3   0.668770 0.168760 0.250420 -0.269249
O18   O     O_3   0.331230 0.168760 0.749580 -0.272778
O19   O     O_3   0.168770 0.668760 0.250420 -0.268376
O20   O     O_3   0.831230 0.668760 0.749580 -0.268391
O21   O     O_R   0.750800 0.274080 0.199250 -0.519830
O22   O     O_R   0.249200 0.274080 0.800750 -0.522830
O23   O     O_R   0.250800 0.774080 0.199250 -0.526087
O24   O     O_R   0.749200 0.774080 0.800750 -0.521283
O25   O     O_R   0.669990 0.371670 0.194150 -0.472469
O26   O     O_R   0.330010 0.371670 0.805850 -0.466343
O27   O     O_R   0.169990 0.871670 0.194150 -0.428153
O28   O     O_R   0.830010 0.871670 0.805850 -0.473748
O29   O     O_R   0.574600 0.238480 0.197800 -0.458058
O30   O     O_R   0.425400 0.238480 0.802200 -0.459033
O31   O     O_R   0.074600 0.738480 0.197800 -0.450917
O32   O     O_R   0.925400 0.738480 0.802200 -0.458671
O33   O     O_R   0.566130 0.068680 0.194240 -0.529931
O34   O     O_R   0.433870 0.068680 0.805760 -0.534389
O35   O     O_R   0.066130 0.568680 0.194240 -0.529734
O36   O     O_R   0.933870 0.568680 0.805760 -0.529945
O37   O     O_R   0.680610 0.992490 0.199570 -0.502350
O38   O     O_R   0.319390 0.992490 0.800430 -0.499193
O39   O     O_R   0.180610 0.492490 0.199570 -0.502766
O40   O     O_R   0.819390 0.492490 0.800430 -0.500294
O41   O     O_R   0.770060 0.065440 0.307230 -0.424682
O42   O     O_R   0.229940 0.065440 0.692770 -0.424852
O43   O     O_R   0.270060 0.565440 0.307230 -0.425474
O44   O     O_R   0.729940 0.565440 0.692770 -0.424569
O45   O     O_R   0.750960 0.274920 0.302300 -0.435124
O46   O     O_R   0.249040 0.274920 0.697700 -0.435291
O47   O     O_R   0.250960 0.774920 0.302300 -0.438038
O48   O     O_R   0.749040 0.774920 0.697700 -0.435189
O49   O     O_R   0.670160 0.372580 0.305320 -0.508044
O50   O     O_R   0.329840 0.372580 0.694680 -0.506696
O51   O     O_R   0.170160 0.872580 0.305320 -0.510563
O52   O     O_R   0.829840 0.872580 0.694680 -0.507586
O53   O     O_3   0.800733 0.040846 0.868567 -0.556124
C177  C     C_3   0.860905 0.064272 0.878980 -0.065117
H53   H     H_    0.890110 0.995970 0.873604 0.198046
H54   H     H_    0.866739 0.095233 0.917078 0.150636
H55   H     H_    0.875765 0.124812 0.852782 0.138710
O54   O     O_3   0.156466 0.007949 0.129065 -0.514865
C178  C     C_3   0.156575 0.113906 0.117471 -0.074141
H56   H     H_    0.128737 0.128445 0.084039 0.180672
H57   H     H_    0.202397 0.145244 0.112653 0.114324
H58   H     H_    0.135967 0.156443 0.148636 0.145348
O55   O     O_3   0.305818 0.536847 0.869472 -0.558414
C179  C     C_3   0.364269 0.564395 0.883827 -0.071808
H59   H     H_    0.393768 0.495867 0.888339 0.183375
H60   H     H_    0.363957 0.611072 0.918332 0.122396
H61   H     H_    0.383700 0.613028 0.854214 0.158308
O56   O     O_3   0.710864 0.542522 0.131592 -0.564948
C180  C     C_3   0.653186 0.580399 0.121179 -0.075793
H62   H     H_    0.618858 0.518811 0.124253 0.186390
H63   H     H_    0.650966 0.617083 0.083991 0.159092
H64   H     H_    0.642280 0.640573 0.148868 0.145522
O57   O     O_3   0.662541 0.804233 0.036799 -0.605905
C181  C     C_3   0.616972 0.871953 0.021746 -0.110203
H65   H     H_    0.633270 0.928748 0.994014 0.115554
H66   H     H_    0.597280 0.912470 0.054069 0.141734
H67   H     H_    0.581320 0.825936 0.003816 0.202375
O58   O     O_3   0.351832 0.993115 0.985905 -0.540577
C182  C     C_3   0.343439 0.096937 0.999690 -0.123259
H68   H     H_    0.299013 0.109745 0.016648 0.110177
H69   H     H_    0.350069 0.149228 0.967474 0.117597
H70   H     H_    0.376806 0.117407 0.028381 0.146796
O59   O     O_3   0.166312 0.295091 0.038662 -0.633408
C183  C     C_3   0.118786 0.358399 0.023707 -0.095176
H71   H     H_    0.132636 0.412627 0.993948 0.131762
H72   H     H_    0.099912 0.401590 0.055569 0.153856
H73   H     H_    0.083357 0.308020 0.008490 0.225653
O60   O     O_3   0.821229 0.269472 0.958185 -0.618695
C184  C     C_3   0.878596 0.310420 0.965001 -0.088154
H74   H     H_    0.877427 0.384024 0.986199 0.158070
H75   H     H_    0.900953 0.321117 0.928741 0.157287
H76   H     H_    0.905439 0.254586 0.986857 0.193434
O61   O     O_3   0.562898 0.020330 0.537859 -0.562607
C185  C     C_3   0.548400 0.917729 0.550670 -0.069033
H77   H     H_    0.500109 0.905645 0.558212 0.116014
H78   H     H_    0.575592 0.892446 0.582959 0.199054
H79   H     H_    0.560261 0.866763 0.519276 0.086764
O62   O     O_3   0.437226 0.020263 0.462269 -0.562584
C186  C     C_3   0.451793 0.917661 0.449531 -0.069298
H80   H     H_    0.500089 0.905586 0.441980 0.115905
H81   H     H_    0.424600 0.892358 0.417273 0.198429
H82   H     H_    0.439988 0.866706 0.480970 0.086879
O63   O     O_3   0.062863 0.520299 0.537843 -0.562570
C187  C     C_3   0.048350 0.417699 0.550644 -0.069197
H83   H     H_    0.000057 0.405632 0.558181 0.115879
H84   H     H_    0.075535 0.392392 0.582932 0.198921
H85   H     H_    0.060209 0.366742 0.519246 0.086822
O64   O     O_3   0.937195 0.520296 0.462257 -0.562487
C188  C     C_3   0.951742 0.417689 0.449510 -0.068937
H86   H     H_    0.000034 0.405591 0.441953 0.115914
H87   H     H_    0.924539 0.392412 0.417253 0.198992
H88   H     H_    0.939933 0.366730 0.480946 0.086787
O65   O     O_3   0.545914 0.031898 0.641213 -0.697957
H89   H     H_    0.544228 0.058722 0.675544 0.330681
O66   O     O_3   0.454221 0.031768 0.358903 -0.699698
H90   H     H_    0.455865 0.058602 0.324555 0.329192
O67   O     O_3   0.045879 0.531837 0.641197 -0.698245
H91   H     H_    0.044208 0.558659 0.675528 0.330550
O68   O     O_3   0.954198 0.531808 0.358891 -0.697866
H92   H     H_    0.955851 0.558643 0.324543 0.330773
O69   O     O_3   0.787734 0.105352 0.545802 -0.708211
H93   H     H_    0.767946 0.121633 0.513829 0.327560
O70   O     O_3   0.212217 0.105111 0.454137 -0.708242
H94   H     H_    0.232021 0.121338 0.486095 0.327568
O71   O     O_3   0.287779 0.605299 0.545775 -0.708184
H95   H     H_    0.267989 0.621582 0.513802 0.327591
O72   O     O_3   0.712142 0.605013 0.454177 -0.708108
H96   H     H_    0.731937 0.621227 0.486139 0.327621
O73   O     O_3   0.811132 0.047743 0.643033 -0.520930
C189  C     C_3   0.871854 0.053190 0.629807 -0.057158
H97   H     H_    0.878522 0.107235 0.598437 0.165685
H98   H     H_    0.891071 0.976422 0.620765 0.087132
H99   H     H_    0.897339 0.083926 0.661906 0.135358
O74   O     O_3   0.188823 0.047672 0.356937 -0.524380
C190  C     C_3   0.128089 0.053138 0.370132 -0.057668
H100  H     H_    0.121387 0.106977 0.401549 0.165802
H101  H     H_    0.108874 0.976337 0.379093 0.088010
H102  H     H_    0.102629 0.084137 0.338046 0.136585
O75   O     O_3   0.311192 0.547701 0.643006 -0.520204
C191  C     C_3   0.371909 0.553099 0.629757 -0.056031
H103  H     H_    0.378574 0.607141 0.598383 0.165458
H104  H     H_    0.391101 0.476314 0.620708 0.086737
H105  H     H_    0.397419 0.583818 0.661847 0.137357
O76   O     O_3   0.688796 0.547645 0.356957 -0.520835
C192  C     C_3   0.628060 0.553113 0.370144 -0.057463
H106  H     H_    0.621351 0.606987 0.401546 0.165692
H107  H     H_    0.608847 0.476319 0.379122 0.087138
H108  H     H_    0.602603 0.584073 0.338047 0.135059
O77   O     O_3   0.480071 0.883780 0.954817 -0.653086
H109  H     H_    0.507913 0.881533 0.926481 0.294274
O78   O     O_3   0.472547 0.890971 0.053360 -0.668262
H110  H     H_    0.449075 0.907154 0.083350 0.316593
O79   O     O_3   0.002724 0.387281 0.952912 -0.731947
H111  H     H_    0.030022 0.396780 0.924552 0.309315
O80   O     O_3   0.982527 0.387648 0.050923 -0.710251
H112  H     H_    0.957952 0.398797 0.080826 0.316177
O81   O     O_3   0.697381 0.734196 0.617911 -0.646357
H113  H     H_    0.673139 0.700207 0.591765 0.330788
O82   O     O_3   0.302517 0.733827 0.382180 -0.646445
H114  H     H_    0.326730 0.699721 0.408347 0.330555
O83   O     O_3   0.197309 0.234276 0.617937 -0.646504
H115  H     H_    0.173046 0.200306 0.591798 0.330751
O84   O     O_3   0.802553 0.233858 0.382164 -0.646364
H116  H     H_    0.826772 0.199758 0.408328 0.330844
O85   O     O_3   0.845013 0.980148 0.373648 -0.546912
C193  C     C_3   0.879161 0.888908 0.375184 -0.116230
H117  H     H_    0.853437 0.821667 0.360957 0.135562
H118  H     H_    0.896199 0.873083 0.413243 0.108949
H119  H     H_    0.918389 0.898840 0.350830 0.142303
O86   O     O_3   0.154978 0.980492 0.626410 -0.546916
C194  C     C_3   0.120407 0.889814 0.624535 -0.116471
H120  H     H_    0.145915 0.821761 0.638225 0.135666
H121  H     H_    0.102992 0.875344 0.586484 0.108619
H122  H     H_    0.081420 0.899670 0.649161 0.142242
O87   O     O_3   0.345004 0.479857 0.373544 -0.547051
C195  C     C_3   0.379848 0.389459 0.376045 -0.117898
H123  H     H_    0.354435 0.320704 0.363153 0.134095
H124  H     H_    0.397653 0.376554 0.414119 0.108808
H125  H     H_    0.418583 0.398651 0.351085 0.141869
O88   O     O_3   0.654960 0.480403 0.626434 -0.546821
C196  C     C_3   0.620541 0.389534 0.624761 -0.116343
H126  H     H_    0.646142 0.321771 0.638682 0.135323
H127  H     H_    0.603233 0.374511 0.586719 0.108774
H128  H     H_    0.581485 0.399500 0.649303 0.142634
O89   O     O_3   0.489831 0.346470 0.866792 -0.508949
C197  C     C_3   0.545133 0.354262 0.842479 -0.067048
H129  H     H_    0.550993 0.291284 0.814970 0.096415
H130  H     H_    0.582937 0.354531 0.869436 0.137668
H131  H     H_    0.546347 0.428339 0.821988 0.142988
O90   O     O_3   0.525134 0.352455 0.130370 -0.500497
C198  C     C_3   0.470803 0.378459 0.153236 -0.072894
H132  H     H_    0.457894 0.320054 0.181418 0.093461
H133  H     H_    0.434399 0.388299 0.125376 0.123451
H134  H     H_    0.476503 0.453094 0.172685 0.139289
O91   O     O_3   0.977409 0.851266 0.869488 -0.512351
C199  C     C_3   0.032827 0.871491 0.847173 -0.074960
H135  H     H_    0.044687 0.810835 0.819809 0.095740
H136  H     H_    0.068698 0.879303 0.875570 0.123328
H137  H     H_    0.029691 0.945707 0.826919 0.140298
O92   O     O_3   0.016624 0.851529 0.132917 -0.466759
C200  C     C_3   0.963231 0.869459 0.158886 -0.054147
H138  H     H_    0.955298 0.808899 0.187305 0.088847
H139  H     H_    0.924356 0.874806 0.133144 0.124659
H140  H     H_    0.967024 0.944241 0.178518 0.148662
O93   O     O_3   0.514362 0.444263 0.945145 -0.685418
H141  H     H_    0.541894 0.490816 0.963201 0.325538
O94   O     O_3   0.514061 0.449139 0.049875 -0.684036
H142  H     H_    0.491536 0.502053 0.031027 0.328631
O95   O     O_3   0.992372 0.949940 0.949225 -0.693853
H143  H     H_    0.017041 0.000663 0.967538 0.329410
O96   O     O_3   0.993143 0.949542 0.054080 -0.659667
H144  H     H_    0.967311 0.998781 0.035867 0.320975

loop_
_geom_bond_atom_site_label_1
_geom_bond_atom_site_label_2
_ccdc_geom_bond_type
C99   C103  A    
C7    C168  A    
C124  H32   S    
O67   H91   S    
C140  O76   S    
C37   C69   S    
C194  H121  S    
O89   C197  S    
C142  C146  A    
C77   C101  A    
C19   C20   A    
C52   H8    S    
C53   C69   A    
C38   C70   S    
C30   H34   S    
O61   C185  S    
C108  C164  S    
C104  O67   S    
C46   O34   A    
O88   C196  S    
C82   H10   S    
C55   C59   A    
C26   C50   A    
Cr4   O24   S    
Cr5   O5    S    
Cr5   O17   S    
C29   C33   A    
C100  C104  A    
Cr7   O27   S    
Cr12  O12   S    
C3    C74   S    
C9    C13   A    
Cr2   O18   S    
C53   H37   S    
C146  C150  A    
Cr3   O23   S    
C179  H61   S    
C12   C16   A    
C183  H71   S    
C56   C72   A    
C169  C174  A    
Cr8   O52   S    
C172  C175  A    
C141  C145  A    
C122  C126  A    
C138  C154  A    
Cr4   O4    S    
C6    C165  A    
C101  O66   S    
C21   C22   A    
Cr8   O8    S    
C160  O8    A    
C41   C49   A    
C32   H36   S    
C18   C170  A    
C165  C169  A    
C56   H40   S    
C27   C31   A    
O59   C183  S    
C158  O10   A    
C28   C32   A    
C68   H52   S    
C23   O96   S    
C62   C66   A    
C200  H140  S    
C167  C171  A    
C181  H65   S    
C98   C102  A    
C60   C76   A    
Cr9   O37   S    
C133  O49   A    
C15   C19   A    
C78   C82   A    
C134  C155  S    
C54   C70   A    
C68   C72   A    
C165  H2    S    
C137  C153  A    
C146  H26   S    
C140  C156  A    
C20   C172  A    
C131  O71   S    
C143  C147  A    
Cr11  O39   S    
C10   C14   A    
O77   H109  S    
C132  C152  A    
C193  H118  S    
C21   O94   S    
C4    O28   A    
O54   C178  S    
C130  C138  A    
C199  H135  S    
Cr12  O40   S    
C42   O58   S    
C185  H77   S    
C84   C88   A    
C157  O9    A    
C190  H100  S    
Cr10  O34   S    
Cr10  O14   S    
C119  C123  A    
C26   C90   S    
O79   H111  S    
C105  C125  A    
Cr7   O51   S    
C195  H123  S    
C8    C47   S    
C159  O11   A    
C175  C176  A    
C51   H7    S    
O71   H95   S    
C7    C48   S    
C81   H9    S    
C136  C153  S    
C185  H79   S    
Cr1   O45   S    
C66   C70   A    
Cr2   O42   S    
C183  H73   S    
Cr11  O15   S    
Cr3   O47   S    
O64   C188  S    
C134  O46   A    
C132  O72   S    
C95   C99   A    
Cr11  O11   S    
O93   H141  S    
C64   O56   S    
C80   C160  S    
Cr9   O9    S    
C61   C65   A    
C129  C137  A    
O68   H92   S    
C39   C71   S    
C117  C149  S    
O85   C193  S    
C136  O48   A    
C55   C71   A    
C2    C75   S    
C191  H103  S    
C192  H107  S    
Cr1   O1    S    
C182  H69   S    
C98   O61   S    
C92   O40   A    
C188  H86   S    
C147  C151  A    
C162  O14   A    
C59   H43   S    
C6    C9    A    
O83   H115  S    
C9    O90   S    
C198  H133  S    
C2    O22   A    
C163  O15   A    
C22   O93   S    
C129  C149  A    
Cr11  O19   S    
C64   C68   A    
C147  H27   S    
O82   H114  S    
C2    O26   A    
C127  O87   S    
C164  O44   A    
C143  O83   S    
C118  C122  A    
C55   H39   S    
O74   C190  S    
Cr1   O21   S    
C85   C93   A    
C78   C158  S    
C102  O65   S    
C129  O69   S    
C87   C95   A    
C130  C150  A    
C23   C24   A    
C100  O63   S    
C27   C91   S    
C110  C114  A    
C67   C71   A    
C199  H137  S    
C44   C52   A    
C179  H60   S    
C41   O57   S    
C46   O30   A    
C173  C174  A    
C66   H50   S    
C184  H75   S    
C79   C103  A    
C11   C15   A    
C24   O95   S    
C148  H28   S    
C27   C51   A    
Cr5   O29   S    
C180  H63   S    
C7    C12   A    
Cr6   O18   S    
Cr7   O31   S    
C30   C34   A    
C195  H125  S    
Cr12  O16   S    
C110  H18   S    
Cr2   O22   S    
Cr3   O19   S    
C142  O82   S    
C88   H16   S    
C116  C120  A    
C144  C156  A    
C91   O39   A    
C121  C125  A    
O53   C177  S    
C58   H42   S    
C123  C127  A    
C198  H132  S    
C139  C155  A    
C4    O24   A    
C89   O37   A    
C17   C18   A    
O86   C194  S    
C5    C166  A    
C108  C128  A    
C109  H17   S    
C4    C73   S    
C42   C50   A    
C191  H105  S    
C113  C117  A    
C48   O36   A    
C107  C163  S    
C26   C30   A    
C196  H128  S    
C115  C119  A    
C90   O2    A    
C105  C161  S    
C35   H47   S    
C111  H19   S    
C112  C116  A    
C33   H45   S    
C58   C74   A    
C190  H102  S    
C105  C109  A    
C40   C72   S    
C1    C76   S    
C107  C111  A    
C148  C152  A    
C91   O3    A    
O60   C184  S    
C166  C170  A    
C188  H88   S    
C171  C176  A    
C115  H23   S    
C166  H1    S    
C14   C22   A    
C113  H21   S    
O81   H113  S    
C141  C153  A    
C63   C75   A    
C45   O33   A    
C96   C100  A    
C67   H51   S    
C37   C41   A    
C178  H58   S    
Cr3   O3    S    
C131  C139  A    
O96   H144  S    
C47   O31   A    
C40   C44   A    
C186  H82   S    
C187  H83   S    
C48   O32   A    
C183  H72   S    
O95   H143  S    
C142  C154  A    
C157  O5    A    
C139  O75   S    
Cr10  O38   S    
Cr11  O35   S    
C47   O35   A    
C83   C87   A    
C88   C96   A    
C6    C45   S    
C93   C97   A    
C78   C102  A    
C133  C156  S    
C80   C84   A    
C137  O73   S    
O65   H89   S    
O75   C191  S    
Cr2   O46   S    
C29   H33   S    
Cr3   O43   S    
Cr8   O20   S    
C135  C154  S    
C125  O85   S    
C80   C104  A    
C126  O86   S    
Cr6   O6    S    
C103  O68   S    
C177  H53   S    
C161  O41   A    
C200  H139  S    
C197  H129  S    
C94   C98   A    
C181  H66   S    
O92   C200  S    
C118  C150  S    
C123  H31   S    
C95   C96   S    
C16   C24   A    
O70   H94   S    
C44   O60   S    
Cr4   O44   S    
C85   H13   S    
C124  C128  A    
C175  O79   S    
C181  H67   S    
C194  H122  S    
C25   C29   A    
Cr5   O49   S    
C164  O16   A    
C121  H29   S    
C87   H15   S    
C199  H136  S    
C189  H97   S    
C3    O27   A    
O94   H142  S    
Cr8   O32   S    
C130  O70   S    
C12   O91   S    
C177  H55   S    
C136  O52   A    
C53   C57   A    
C176  O80   S    
C61   C73   A    
C82   C86   A    
C33   C37   A    
C56   C60   A    
C195  H124  S    
C35   C39   A    
C178  H56   S    
C8    C167  A    
C57   H41   S    
C173  O77   S    
C186  H80   S    
C187  H85   S    
C77   C81   A    
Cr12  O20   S    
Cr7   O7    S    
C10   O89   S    
C145  H25   S    
Cr9   O17   S    
Cr6   O30   S    
C61   O53   S    
C54   C58   A    
C31   C35   A    
C36   H48   S    
C97   O62   S    
C32   C36   A    
C128  O88   S    
C99   O64   S    
C191  H104  S    
C192  H106  S    
C60   H44   S    
C134  O50   A    
C189  H98   S    
O80   H112  S    
C138  O74   S    
C13   C17   A    
C132  C140  A    
C106  C126  A    
C25   C89   S    
C143  C155  A    
C90   O38   A    
C133  O45   A    
C116  H24   S    
C79   C83   A    
C50   H6    S    
C43   C51   A    
O57   C181  S    
C65   C69   A    
C17   C169  A    
C106  C162  S    
C196  H126  S    
C25   C49   A    
Cr10  O10   S    
C189  H99   S    
C182  H68   S    
Cr4   O20   S    
C108  C112  A    
C168  C172  A    
C194  H120  S    
C193  H117  S    
C62   C74   A    
C174  O78   S    
Cr1   O17   S    
C145  C149  A    
Cr2   O2    S    
C170  C173  A    
O63   C187  S    
C63   O55   S    
C93   C94   S    
C141  O81   S    
C62   O54   S    
C28   C52   A    
C184  H74   S    
C14   C18   A    
C162  O42   A    
O84   H116  S    
C144  C148  A    
O76   C192  S    
C161  O13   A    
O78   H110  S    
C180  H62   S    
C84   H12   S    
C45   O29   A    
C167  H4    S    
C31   H35   S    
C168  H3    S    
C49   H5    S    
C19   C171  A    
C38   C42   A    
C8    C11   A    
C86   H14   S    
C185  H78   S    
C57   C73   A    
C117  C121  A    
O90   C198  S    
C54   H38   S    
C86   C94   A    
C11   O92   S    
O66   H90   S    
Cr9   O13   S    
C193  H119  S    
C16   C20   A    
C192  H108  S    
C15   C23   A    
Cr5   O25   S    
C182  H70   S    
C188  H87   S    
O55   C179  S    
C65   H49   S    
C198  H134  S    
C190  H101  S    
C119  C151  S    
C63   C67   A    
C120  C152  S    
C13   C21   A    
C36   C40   A    
C112  H20   S    
C43   O59   S    
C39   C43   A    
Cr12  O36   S    
Cr4   O48   S    
O58   C182  S    
Cr9   O33   S    
O72   H96   S    
O87   C195  S    
C64   C76   A    
C28   C92   S    
Cr6   O50   S    
C178  H57   S    
C159  O7    A    
C114  C118  A    
C5    C46   S    
C1    O21   A    
Cr1   O41   S    
C179  H59   S    
C186  H81   S    
C163  O43   A    
C3    O23   A    
C160  O12   A    
Cr8   O28   S    
C184  H76   S    
C89   O1    A    
C135  O47   A    
C83   H11   S    
C34   H46   S    
C59   C75   A    
O56   C180  S    
O73   C189  S    
C106  C110  A    
C180  H64   S    
C122  H30   S    
C34   C38   A    
C109  C113  A    
C158  O6    A    
O69   H93   S    
Cr7   O19   S    
C114  H22   S    
C5    C10   A    
C177  H54   S    
C92   O4    A    
C200  H138  S    
Cr6   O26   S    
C197  H130  S    
Cr10  O18   S    
C144  O84   S    
C79   C159  S    
C131  C151  A    
C81   C85   A    
O91   C199  S    
C1    O25   A    
C196  H127  S    
O62   C186  S    
C187  H84   S    
C111  C115  A    
C107  C127  A    
C135  O51   A    
C97   C101  A    
C120  C124  A    
C77   C157  S    
C197  H131  S    
