data_mof_unit_29034.cif
_audit_creation_date              2013-03-05T16:47:26-0500
_audit_creation_method            fapswitch 2.2
_symmetry_space_group_name_H-M    P1
_symmetry_Int_Tables_number       1
_space_group_crystal_system       triclinic
_cell_length_a                    10.664868
_cell_length_b                    8.92337
_cell_length_c                    8.110152
_cell_angle_alpha                 90.003213
_cell_angle_beta                  90.193221
_cell_angle_gamma                 90.065786
_cell_volume                      771.810393647

loop_
_atom_site_label
_atom_site_type_symbol
_atom_site_description
_atom_site_fract_x
_atom_site_fract_y
_atom_site_fract_z
_atom_type_partial_charge
O1    O     O_R   0.500000 0.285340 0.636850 -0.586049
O2    O     O_R   0.500000 0.285340 0.363150 -0.585839
C1    C     C_R   0.500585 0.218017 0.500009 1.035630
O3    O     O_R   0.314790 0.499970 0.636880 -0.618987
O4    O     O_R   0.314790 0.499970 0.363120 -0.619808
O5    O     O_R   0.685210 0.499970 0.636880 -0.617468
O6    O     O_R   0.685210 0.499970 0.363120 -0.622180
N1    N     N_1   0.500000 0.500030 0.073640 0.000395
N2    N     N_1   0.500000 0.500030 0.926360 0.001760
C2    C     C_R   0.257792 0.488432 0.499771 0.948990
C3    C     C_R   0.742144 0.488234 0.500386 0.946094
Zn1   Zn    Zn3+2 0.500000 0.499990 0.682780 1.078987
Zn2   Zn    Zn3+2 0.500000 0.499990 0.317220 1.076646
O7    O     O_R   0.500000 0.714650 0.636900 -0.618444
O8    O     O_R   0.500000 0.714650 0.363100 -0.617324
C4    C     C_R   0.500099 0.781954 0.500005 0.923447
C5    C     C_1   0.500615 0.065202 0.500020 -0.034360
C6    C     C_3   0.073539 0.402410 0.663797 0.079525
C7    C     C_3   0.071617 0.394632 0.339087 0.092146
C8    C     C_3   0.928204 0.408092 0.669225 0.087962
C9    C     C_3   0.926029 0.389022 0.345273 0.082106
H1    H     H_    0.105224 0.477331 0.766161 0.120598
H2    H     H_    0.095731 0.470042 0.233998 0.108549
H3    H     H_    0.903991 0.491708 0.766440 0.105634
H4    H     H_    0.894230 0.454914 0.235798 0.125331
C10   C     C_1   0.500418 0.934777 0.500017 -0.115044
H5    H     H_    0.104445 0.702740 0.605172 0.230434
H6    H     H_    0.108124 0.700062 0.384796 0.231103
H7    H     H_    0.891976 0.708560 0.593196 0.231709
H8    H     H_    0.895748 0.693044 0.373447 0.229789
C11   C     C_3   0.071851 0.639193 0.494749 -0.496268
C12   C     C_3   0.928226 0.638909 0.489784 -0.493737
C13   C     C_3   0.121943 0.475571 0.499291 -0.164389
C14   C     C_3   0.877926 0.475544 0.501669 -0.164997
N3    N     N_R   0.128681 0.254370 0.699174 0.261761
O9    O     O_R   0.085707 0.132248 0.632342 -0.254895
O10   O     O_R   0.214707 0.242904 0.812648 -0.325828
N4    N     N_R   0.129781 0.249868 0.296750 0.270607
O11   O     O_R   0.225992 0.197934 0.377126 -0.376597
O12   O     O_R   0.101505 0.188166 0.156021 -0.261823
N5    N     N_R   0.870287 0.266983 0.725667 0.270574
O13   O     O_R   0.775235 0.206902 0.649620 -0.365047
O14   O     O_R   0.897895 0.217899 0.872460 -0.273044
N6    N     N_R   0.870458 0.238732 0.325368 0.259548
O15   O     O_R   0.915127 0.121923 0.400988 -0.259955
O16   O     O_R   0.780994 0.219102 0.217980 -0.327241

loop_
_geom_bond_atom_site_label_1
_geom_bond_atom_site_label_2
_geom_bond_distance
_ccdc_geom_bond_type
O1    C1    1.261976 A    
C7    H2    1.116461 S    
C11   C13   1.555699 S    
N1    Zn2   1.975471 S    
C7    N4    1.474659 S    
O3    Zn1   2.008779 S    
C9    N6    1.474233 S    
N5    O13   1.299974 A    
O4    Zn2   2.011246 S    
C11   C12   1.532129 S    
C3    C14   1.452658 S    
C8    C14   1.578720 S    
C8    N5    1.475387 S    
Zn1   O7    1.951317 S    
O4    C2    1.269951 A    
O6    C3    1.270659 A    
N5    O14   1.301481 A    
O1    Zn1   1.951266 S    
N3    O9    1.299411 A    
C5    C10   1.163833 T    
N4    O12   1.301517 A    
N6    O16   1.301366 A    
C1    C5    1.363620 S    
H7    C12   1.114368 S    
O2    C1    1.262123 A    
Zn2   O8    1.951276 S    
O5    Zn1   2.011246 S    
N4    O11   1.299666 A    
N2    Zn1   1.975471 S    
O7    C4    1.262305 A    
C6    C13   1.573743 S    
H5    C11   1.114347 S    
O8    C4    1.262308 A    
H8    C12   1.114340 S    
O6    Zn2   2.008778 S    
N6    O15   1.299524 A    
C6    C8    1.551634 S    
C2    C13   1.453211 S    
C6    N3    1.474427 S    
O5    C3    1.268750 A    
O2    Zn2   1.951307 S    
C9    H4    1.116922 S    
C9    C14   1.572664 S    
N3    O10   1.301408 A    
C6    H1    1.117090 S    
O3    C2    1.269601 A    
H6    C11   1.114340 S    
C8    H3    1.116583 S    
C7    C13   1.578647 S    
N1    N2    1.194462 T    
C7    C9    1.554405 S    
C4    C10   1.363694 S    
C12   C14   1.555866 S    
