data_mof_unit_27292.cif
_audit_creation_date              2012-12-11T17:43:33-0500
_audit_creation_method            fapswitch 2.2
_symmetry_space_group_name_H-M    P1
_symmetry_Int_Tables_number       1
_space_group_crystal_system       triclinic
_cell_length_a                    15.060898
_cell_length_b                    15.197936
_cell_length_c                    16.922289
_cell_angle_alpha                 108.757841
_cell_angle_beta                  106.186856
_cell_angle_gamma                 109.343767
_cell_volume                      3122.31491941

loop_
_atom_site_label
_atom_site_type_symbol
_atom_type_description
_atom_site_fract_x
_atom_site_fract_y
_atom_site_fract_z
_atom_type_partial_charge
C1    C     C_R   0.087111 0.291527 0.079832 -0.157255
C2    C     C_R   0.085410 0.092334 0.048480 -0.221150
C3    C     C_R   0.001431 0.920917 0.035447 0.068123
C4    C     C_R   0.004621 0.110864 0.061180 0.052428
C5    C     C_R   0.084098 0.997731 0.033503 0.016013
C6    C     C_R   0.924253 0.037269 0.067833 0.030499
C7    C     C_R   0.736890 0.985005 0.038385 -0.157816
C8    C     C_R   0.271476 0.042064 0.073928 -0.105988
C9    C     C_R   0.688790 0.102466 0.131327 -0.072950
C10   C     C_R   0.323724 0.954963 0.962193 -0.129135
C11   C     C_R   0.496549 0.598220 0.273827 -0.100528
C12   C     C_R   0.909552 0.722720 0.962914 -0.137872
C13   C     C_R   0.492142 0.294323 0.643910 -0.096955
C14   C     C_R   0.483656 0.569794 0.182833 -0.162157
C15   C     C_R   0.484006 0.313214 0.727297 -0.165262
C16   C     C_R   0.935614 0.516277 0.745213 -0.130611
C17   C     C_R   0.064387 0.549347 0.265003 -0.122220
C18   C     C_R   0.448304 0.464742 0.121596 -0.063605
C19   C     C_R   0.475234 0.402383 0.775016 -0.067481
C20   C     C_R   0.425678 0.387278 0.153155 0.503994
C21   C     C_R   0.475803 0.474042 0.737603 0.517683
C22   C     C_R   0.438178 0.417492 0.244535 -0.164182
C23   C     C_R   0.026947 0.573830 0.742336 0.070721
C24   C     C_R   0.481935 0.452442 0.652851 -0.132720
C25   C     C_R   0.473393 0.522266 0.304544 -0.190941
C26   C     C_R   0.490483 0.363483 0.606476 -0.207752
C27   C     C_R   0.525646 0.426676 0.016359 -0.224952
C28   C     C_R   0.379476 0.426515 0.872414 -0.242582
C29   C     C_R   0.540018 0.421524 0.937618 0.065450
C30   C     C_R   0.370654 0.440943 0.955330 0.066832
C31   C     C_R   0.465555 0.417827 0.862929 0.026814
C32   C     C_R   0.443958 0.439477 0.027744 0.018108
C33   C     C_R   0.660393 0.006741 0.058822 -0.113739
C34   C     C_R   0.972181 0.535536 0.274059 0.059945
C35   C     C_R   0.349683 0.028185 0.050799 -0.066220
C36   C     C_R   0.963665 0.580568 0.360641 0.121845
C37   C     C_R   0.035513 0.611953 0.674169 0.116383
C38   C     C_R   0.140446 0.682329 0.602991 -0.202096
C39   C     C_R   0.859745 0.562863 0.446293 -0.186072
C40   C     C_R   0.777542 0.203792 0.812414 -0.128426
C41   C     C_R   0.278991 0.784998 0.176934 -0.143249
C42   C     C_R   0.133451 0.661615 0.675631 -0.192158
C43   C     C_R   0.865892 0.549126 0.363010 -0.166160
C44   C     C_R   0.945140 0.590701 0.602351 -0.253294
C45   C     C_R   0.761565 0.198450 0.725747 0.076559
C46   C     C_R   0.054662 0.641191 0.443713 -0.265050
C47   C     C_R   0.950982 0.603878 0.526118 0.177327
C48   C     C_R   0.049303 0.647223 0.525563 0.179692
C49   C     C_R   0.721721 0.103689 0.639550 0.074957
C50   C     C_R   0.443288 0.858584 0.323528 0.084163
C51   C     C_R   0.590628 0.030483 0.391384 0.193971
C52   C     C_R   0.619703 0.915098 0.555648 0.189486
C53   C     C_R   0.497636 0.949245 0.317546 -0.223055
C54   C     C_R   0.688878 0.005274 0.638136 -0.208489
C55   C     C_R   0.489664 0.843945 0.398934 -0.271052
C56   C     C_R   0.334969 0.783556 0.256210 0.089498
C57   C     C_R   0.701976 0.109871 0.556172 -0.229559
C58   C     C_R   0.581122 0.924722 0.474531 0.082439
C59   C     C_R   0.628115 0.021623 0.473166 0.081319
C60   C     C_R   0.793799 0.176491 0.183900 -0.076764
C61   C     C_R   0.219555 0.895648 0.896693 -0.117692
C62   C     C_R   0.870597 0.154983 0.163983 -0.142759
C63   C     C_R   0.140869 0.908322 0.919707 -0.116493
C64   C     C_R   0.261859 0.536199 0.951614 -0.136248
C65   C     C_R   0.699361 0.403901 0.995108 -0.158994
C66   C     C_R   0.842821 0.059274 0.090431 0.105185
C67   C     C_R   0.288591 0.462513 0.968192 0.055889
C68   C     C_R   0.166369 0.981320 0.008792 0.078149
C69   C     C_R   0.782847 0.298453 0.734764 -0.125972
C70   C     C_R   0.273736 0.690593 0.253637 -0.141865
C71   C     C_R   0.244743 0.433918 0.022470 -0.104968
C72   C     C_R   0.705316 0.502200 0.921629 -0.118884
C73   C     C_R   0.108543 0.599982 0.822514 -0.133948
C74   C     C_R   0.890302 0.464323 0.187418 -0.136239
C75   C     C_R   0.914577 0.204062 0.000007 -0.123195
C76   C     C_R   0.083709 0.805588 0.046265 -0.110754
C77   C     C_R   0.000669 0.200061 0.051104 0.057443
C78   C     C_R   0.642008 0.437716 0.945814 0.064518
C79   C     C_R   0.996876 0.820266 0.019791 0.049377
C80   C     C_R   0.923454 0.941430 0.054070 -0.229019
H1    H     H_    0.165368 0.318752 0.129809 0.108006
H2    H     H_    0.484250 0.257920 0.754736 0.137163
H3    H     H_    0.420602 0.359227 0.269211 0.143123
H4    H     H_    0.482056 0.506196 0.623569 0.161749
H5    H     H_    0.584462 0.431999 0.074678 0.137152
H6    H     H_    0.320974 0.424780 0.816492 0.154073
H7    H     H_    0.130682 0.671653 0.444098 0.124211
H8    H     H_    0.869125 0.554655 0.600695 0.125393
H9    H     H_    0.794031 0.506838 0.300423 0.123284
H10   H     H_    0.204796 0.679956 0.730199 0.127628
H11   H     H_    0.216395 0.716068 0.603447 0.143278
H12   H     H_    0.829769 0.706192 0.927330 0.108706
H13   H     H_    0.783711 0.531375 0.446148 0.142975
H14   H     H_    0.857057 0.495589 0.701168 0.096934
H15   H     H_    0.143331 0.598674 0.317757 0.102066
H16   H     H_    0.578983 0.949493 0.018162 0.111538
H17   H     H_    0.430382 0.074531 0.101412 0.125174
H18   H     H_    0.734143 0.185103 0.557074 0.161980
H19   H     H_    0.449596 0.773528 0.402984 0.156722
H20   H     H_    0.710031 0.997923 0.701297 0.149119
H21   H     H_    0.465787 0.960525 0.258123 0.141670
H22   H     H_    0.629442 0.119232 0.146826 0.124331
H23   H     H_    0.713335 0.910982 0.981145 0.126619
H24   H     H_    0.384338 0.944635 0.944101 0.108122
H25   H     H_    0.815735 0.250576 0.240162 0.134576
H26   H     H_    0.199878 0.840425 0.827897 0.124032
H27   H     H_    0.951662 0.213037 0.205782 0.120404
H28   H     H_    0.060451 0.861875 0.868283 0.121786
H29   H     H_    0.767930 0.140985 0.831042 0.100002
H30   H     H_    0.308394 0.836897 0.149007 0.093825
H31   H     H_    0.285659 0.576776 0.913336 0.110113
H32   H     H_    0.670668 0.343578 0.015550 0.102978
H33   H     H_    0.777819 0.323638 0.681719 0.107886
H34   H     H_    0.292522 0.099406 0.142702 0.132110
H35   H     H_    0.297719 0.655124 0.295886 0.102102
H36   H     H_    0.247640 0.376490 0.045851 0.107556
H37   H     H_    0.683361 0.536060 0.877024 0.101795
H38   H     H_    0.188922 0.657407 0.850298 0.091096
H39   H     H_    0.807912 0.435431 0.168582 0.097301
H40   H     H_    0.833676 0.149235 0.974406 0.107228
H41   H     H_    0.163754 0.863986 0.090446 0.108953
H42   H     H_    0.862853 0.883032 0.058753 0.132989
H43   H     H_    0.145944 0.148549 0.041726 0.155248
H44   H     H_    0.375425 0.269255 0.033133 0.320281
H45   H     H_    0.483374 0.544645 0.375161 0.169680
H46   H     H_    0.490369 0.583246 0.847297 0.311461
H47   H     H_    0.496393 0.348465 0.541611 0.149304
H48   H     H_    0.526039 0.679497 0.320925 0.149874
H49   H     H_    0.499276 0.225658 0.608054 0.134550
H50   H     H_    0.502902 0.629933 0.160346 0.139575
I1    I     I_    0.661117 0.167224 0.376454 -0.517219
I2    I     I_    0.568044 0.770942 0.563375 -0.504522
N1    N     N_R   0.055660 0.348550 0.045620 -0.038951
N2    N     N_R   0.185200 0.638170 0.176300 -0.040537
N3    N     N_R   0.201680 0.494570 0.045620 -0.042583
N4    N     N_R   0.798320 0.505430 0.954380 -0.040334
N5    N     N_R   0.068420 0.560530 0.871650 -0.038747
N6    N     N_R   0.931580 0.439470 0.128350 -0.040266
N7    N     N_R   0.948070 0.295860 0.997670 -0.041272
N8    N     N_R   0.051930 0.704140 0.002330 -0.043283
N9    N     N_R   0.944340 0.651450 0.954380 -0.041834
N10   N     N_R   0.960830 0.507850 0.823700 -0.041480
N11   N     N_R   0.039170 0.492150 0.176300 -0.042236
N12   N     N_R   0.811290 0.303410 0.871650 -0.042699
N13   N     N_R   0.188710 0.696590 0.128350 -0.040634
N14   N     N_R   0.205200 0.552990 0.997670 -0.042144
N15   N     N_R   0.794800 0.447010 0.002330 -0.038394
N16   N     N_R   0.814800 0.361830 0.823700 -0.041685
Ni1   Ni    Ni4+2 0.119340 0.493420 0.109960 0.218844
Ni2   Ni    Ni4+2 0.880660 0.506580 0.890040 0.219347
Ni3   Ni    Ni4+2 0.872590 0.372590 0.000000 0.216482
Ni4   Ni    Ni4+2 0.127410 0.627410 0.000000 0.216282
O1    O     O_3   0.390186 0.282196 0.097652 -0.788308
O2    O     O_3   0.473367 0.566467 0.781740 -0.769830

loop_
_geom_bond_atom_site_label_1
_geom_bond_atom_site_label_2
_ccdc_geom_bond_type
N5    N10   A    
C27   C29   A    
C1    C77   A    
C14   C18   A    
C16   N10   A    
C76   C79   A    
N12   N16   A    
C19   C31   S    
C41   C56   A    
C80   H42   S    
C2    H43   S    
C15   C19   A    
C74   H39   S    
C74   N6    A    
C69   H33   S    
C43   H9    S    
C76   H41   S    
N4    N15   A    
C19   C21   A    
N16   Ni2   S    
C38   C42   A    
N12   Ni3   S    
N6    N11   A    
C71   N3    A    
C11   C14   A    
C57   C59   A    
C11   C25   A    
C1    H1    S    
C49   C54   A    
C12   C79   A    
C49   C57   A    
C12   N9    A    
C60   C62   A    
N7    Ni3   S    
C37   C42   A    
C27   H5    S    
C25   H45   S    
C39   H13   S    
C72   C78   A    
C29   C78   S    
C53   H21   S    
C9    H22   S    
C22   C25   A    
C72   H37   S    
N11   Ni1   S    
C21   O2    S    
N5    Ni4   S    
C36   C46   A    
C10   C35   A    
C17   H15   S    
C65   N15   A    
N8    Ni4   S    
C67   C71   A    
C30   C67   S    
C44   C47   A    
C8    H34   S    
C3    C79   S    
C7    H23   S    
H44   O1    S    
C9    C33   A    
C7    C33   A    
C54   H20   S    
C23   C73   A    
C5    C68   S    
C1    N1    A    
C3    C80   A    
C52   C54   A    
N9    Ni2   S    
C15   H2    S    
C76   N8    A    
C51   C59   A    
C40   C45   A    
C46   C48   A    
C50   C53   A    
C20   O1    S    
C62   C66   A    
C45   C69   A    
C52   I2    S    
C64   C67   A    
N1    Ni1   S    
N8    N9    A    
C4    C6    A    
C51   I1    S    
C64   H31   S    
C39   C43   A    
C62   H27   S    
C44   H8    S    
C58   C59   A    
N3    Ni1   S    
N2    Ni1   S    
C38   H11   S    
C50   C56   S    
C42   H10   S    
C8    C35   A    
C2    C4    A    
C65   H32   S    
C6    C80   A    
C47   C48   A    
C45   C49   S    
N3    N14   A    
C61   C63   A    
C61   H26   S    
C75   C77   A    
C52   C58   A    
C34   C74   A    
N14   Ni4   S    
H46   O2    S    
C20   C22   A    
C8    C68   A    
C16   C23   A    
C56   C70   A    
C41   H30   S    
C13   C15   A    
C28   H6    S    
C73   H38   S    
C13   C26   A    
C21   C24   A    
C10   C61   A    
C18   C32   S    
C17   C34   A    
C33   H16   S    
C39   C47   A    
C46   H7    S    
C14   H50   S    
N2    N13   A    
C63   C68   A    
C65   C78   A    
C64   N14   A    
C27   C32   A    
C38   C48   A    
C12   H12   S    
C28   C31   A    
C75   H40   S    
C70   H35   S    
C24   C26   A    
C3    C5    A    
N4    Ni2   S    
N1    N7    A    
C40   H29   S    
N6    Ni3   S    
C16   H14   S    
C50   C55   A    
C17   N11   A    
C9    C60   A    
C22   H3    S    
N10   Ni2   S    
C37   C44   A    
C40   N12   A    
C11   H48   S    
C24   H4    S    
C4    C77   S    
C29   C31   A    
C23   C37   S    
C7    C66   A    
C30   C32   A    
C73   N5    A    
N15   Ni3   S    
C10   H24   S    
C34   C36   S    
C28   C30   A    
C71   H36   S    
C18   C20   A    
C26   H47   S    
C57   H18   S    
N13   Ni4   S    
C72   N4    A    
C2    C5    A    
C6    C66   S    
C41   N13   A    
C55   C58   A    
C55   H19   S    
C70   N2    A    
C69   N16   A    
C13   H49   S    
C36   C43   A    
C75   N7    A    
C51   C53   A    
C63   H28   S    
C35   H17   S    
C60   H25   S    
