data_mof_unit_52977.cif
_audit_creation_date              2012-12-10T20:51:46-0500
_audit_creation_method            fapswitch 2.2
_symmetry_space_group_name_H-M    P1
_symmetry_Int_Tables_number       1
_space_group_crystal_system       triclinic
_cell_length_a                    8.095829
_cell_length_b                    8.921146
_cell_length_c                    16.812511
_cell_angle_alpha                 89.825068
_cell_angle_beta                  92.785917
_cell_angle_gamma                 90.206592
_cell_volume                      1212.81996873

loop_
_atom_site_label
_atom_site_type_symbol
_atom_type_description
_atom_site_fract_x
_atom_site_fract_y
_atom_site_fract_z
_atom_type_partial_charge
C1    C     C_R   0.499781 0.217969 0.499961 0.936464
C2    C     C_R   0.630456 0.463320 0.142521 -0.059983
C3    C     C_R   0.520865 0.438520 0.903035 0.186197
C4    C     C_R   0.513507 0.550989 0.098576 0.146453
C5    C     C_R   0.662811 0.497322 0.868896 0.496378
C6    C     C_R   0.385869 0.623912 0.136991 0.479419
C7    C     C_R   0.664435 0.510794 0.786102 -0.347518
C8    C     C_R   0.366502 0.597662 0.217688 -0.292081
C9    C     C_1   0.499709 0.065205 0.499968 -0.194379
C10   C     C_1   0.500280 0.934794 0.499984 -0.196643
C11   C     C_1   0.771810 0.398024 0.106512 0.251930
C12   C     C_R   0.500215 0.782028 0.500011 0.939150
C13   C     C_1   0.237012 0.332957 0.890281 0.176254
C14   C     C_3   0.851907 0.680719 0.909621 0.084146
C15   C     C_3   0.033510 0.686770 0.888512 -0.307865
C16   C     C_3   0.091789 0.847691 0.876294 -0.944893
C17   C     C_3   0.357507 0.854199 0.077143 0.070424
C18   C     C_3   0.254188 0.986524 0.103641 -0.346660
C19   C     C_3   0.339205 0.135716 0.087226 -0.891916
C20   C     C_R   0.518571 0.494640 0.653712 0.904805
C21   C     C_R   0.481610 0.501080 0.346365 0.900104
C22   C     C_R   0.522673 0.474599 0.739284 -0.104785
C23   C     C_R   0.480670 0.507949 0.260568 -0.110365
C24   C     C_R   0.382901 0.414778 0.774098 -0.265366
C25   C     C_R   0.612320 0.441687 0.223034 -0.281035
C26   C     C_R   0.382559 0.394232 0.855691 -0.082470
H1    H     H_    0.702902 0.375064 0.257040 0.172358
H2    H     H_    0.225007 0.847998 0.863364 0.261302
H3    H     H_    0.075027 0.915002 0.930700 0.271798
H4    H     H_    0.368307 0.859688 0.011559 0.166815
H5    H     H_    0.485109 0.866311 0.105188 0.119700
H6    H     H_    0.130934 0.983989 0.071573 0.231566
H7    H     H_    0.235595 0.976997 0.168540 0.225410
H8    H     H_    0.457593 0.144615 0.123193 0.258423
H9    H     H_    0.258071 0.229852 0.103392 0.282126
H10   H     H_    0.364845 0.145192 0.023157 0.269529
H11   H     H_    0.274179 0.382995 0.737684 0.179614
H12   H     H_    0.774363 0.551912 0.758802 0.173368
H13   H     H_    0.268423 0.653660 0.247502 0.174773
H14   H     H_    0.839730 0.735912 0.968214 0.167640
H15   H     H_    0.775525 0.747499 0.865286 0.114140
H16   H     H_    0.111167 0.634413 0.937303 0.263286
H17   H     H_    0.049932 0.622442 0.832960 0.218607
H18   H     H_    0.020925 0.900044 0.825307 0.267914
N1    N     N_1   0.073640 0.500030 0.499990 -0.035296
N2    N     N_1   0.926360 0.499970 0.500010 -0.035133
N3    N     N_2   0.513154 0.431744 0.985747 -0.159808
N4    N     N_2   0.516514 0.559293 0.015408 -0.171477
N5    N     N_1   0.885141 0.345670 0.077858 -0.163783
N6    N     N_1   0.120087 0.283956 0.917791 -0.161659
O1    O     O_R   0.636850 0.285340 0.500000 -0.616387
O2    O     O_3   0.276416 0.718375 0.096018 -0.639437
O3    O     O_R   0.363150 0.714660 0.500000 -0.615037
O4    O     O_R   0.363100 0.285350 0.500000 -0.616152
O5    O     O_R   0.636900 0.714650 0.500000 -0.614425
O6    O     O_R   0.652140 0.498630 0.616140 -0.620463
O7    O     O_R   0.347860 0.501370 0.383860 -0.618931
O8    O     O_R   0.378390 0.498650 0.616130 -0.626064
O9    O     O_R   0.621610 0.501350 0.383870 -0.620011
O10   O     O_3   0.802281 0.528959 0.917231 -0.619390
Zn1   Zn    Zn3+2 0.682780 0.499990 0.500010 0.985259
Zn2   Zn    Zn3+2 0.317220 0.500010 0.499990 0.984061

loop_
_geom_bond_atom_site_label_1
_geom_bond_atom_site_label_2
_ccdc_geom_bond_type
O8    Zn2   S    
C2    C4    A    
C1    O4    A    
C21   O7    A    
C11   N5    T    
C8    H13   S    
C25   H1    S    
C7    C22   A    
C14   O10   S    
C9    C10   T    
C16   H18   S    
C16   H2    S    
O1    Zn1   S    
C20   O6    A    
C21   C23   S    
C17   C18   S    
C15   H17   S    
O7    Zn2   S    
C19   H9    S    
N1    N2    T    
C17   H4    S    
C1    O1    A    
C12   O3    A    
C10   C12   S    
C14   H15   S    
C2    C11   S    
O5    Zn1   S    
C17   O2    S    
C3    N3    S    
C7    H12   S    
C20   C22   S    
C21   O9    A    
C2    C25   A    
C19   H10   S    
C23   C25   A    
C4    N4    S    
C17   H5    S    
C18   H7    S    
C22   C24   A    
C13   C26   S    
O9    Zn1   S    
C12   O5    A    
C18   H6    S    
C15   C16   S    
N2    Zn1   S    
C20   O8    A    
C13   N6    T    
N1    Zn2   S    
C8    C23   A    
C1    C9    S    
C24   H11   S    
C4    C6    A    
O3    Zn2   S    
C5    C7    A    
C14   C15   S    
C18   C19   S    
C6    C8    A    
O4    Zn2   S    
C5    O10   S    
C6    O2    S    
C16   H3    S    
O6    Zn1   S    
C14   H14   S    
C3    C26   A    
N3    N4    D    
C15   H16   S    
C24   C26   A    
C3    C5    A    
C19   H8    S    
