data_mof_unit_48248.cif
_audit_creation_date              2013-03-05T16:00:51-0500
_audit_creation_method            fapswitch 2.2
_symmetry_space_group_name_H-M    P1
_symmetry_Int_Tables_number       1
_space_group_crystal_system       triclinic
_cell_length_a                    8.322598
_cell_length_b                    12.719714
_cell_length_c                    18.688889
_cell_angle_alpha                 98.620713
_cell_angle_beta                  90.722457
_cell_angle_gamma                 98.565155
_cell_volume                      1933.02304084

loop_
_atom_site_label
_atom_site_type_symbol
_atom_site_description
_atom_site_fract_x
_atom_site_fract_y
_atom_site_fract_z
_atom_type_partial_charge
P1    P     P_3+3 0.041040 0.394770 0.336330 0.509742
O1    O     O_2   0.873090 0.425890 0.325140 -0.345474
O2    O     O_3   0.122420 0.434370 0.414380 -0.406567
O3    O     O_3   0.659500 0.627100 0.368810 -0.380773
O4    O     O_2   0.775331 0.549300 0.244684 -0.270029
O5    O     O_3   0.003699 0.254198 0.324904 -0.547108
O6    O     O_3   0.683333 0.739935 0.248537 -0.472845
H1    H     H_    0.809693 0.823431 0.339937 0.129799
C1    C     C_3   0.694219 0.932919 0.285961 0.832019
H2    H     H_    0.707658 0.993866 0.335364 -0.084156
P2    P     P_3+3 0.672880 0.754030 0.556100 0.535482
P3    P     P_3+3 0.133608 0.825524 0.406004 0.531937
O7    O     O_2   0.848200 0.768190 0.534530 -0.298474
O8    O     O_3   0.081160 0.685950 0.404810 -0.295559
O9    O     O_2   0.007999 0.880700 0.452131 -0.401800
O10   O     O_3   0.686794 0.790483 0.650491 -0.536847
O11   O     O_3   0.104760 0.859950 0.318688 -0.619905
C2    C     C_3   0.116784 0.773880 0.262022 0.982713
C3    C     C_3   0.062029 0.803260 0.189526 1.207115
H3    H     H_    0.932557 0.811067 0.190140 0.080894
C4    C     C_3   0.242033 0.786191 0.619808 0.372656
H4    H     H_    0.358538 0.757518 0.606706 0.064079
H5    H     H_    0.154218 0.761871 0.572878 0.125985
C5    C     C_3   0.271326 0.908015 0.637019 -0.734679
H6    H     H_    0.355882 0.933586 0.684697 0.271642
H7    H     H_    0.324553 0.944270 0.591042 0.173456
H8    H     H_    0.154610 0.937697 0.648526 0.339562
Ba1   Ba    Ba6+2 0.852780 0.548340 0.465070 1.662775
C6    C     C_3   0.943992 0.217367 0.387885 0.425128
H9    H     H_    0.811499 0.210683 0.384566 0.110228
H10   H     H_    0.991360 0.269133 0.439093 0.108968
C7    C     C_3   0.988171 0.106256 0.390096 -0.891131
H11   H     H_    0.986203 0.060272 0.335249 0.314678
H12   H     H_    0.904429 0.061138 0.424117 0.205136
H13   H     H_    0.112018 0.112694 0.412282 0.267236
C8    C     C_3   0.712310 0.703821 0.685034 0.049688
H14   H     H_    0.837123 0.686175 0.675345 0.103929
H15   H     H_    0.622483 0.631015 0.666137 0.085665
C9    C     C_3   0.692425 0.736734 0.765979 1.237621
H16   H     H_    0.572077 0.763276 0.775149 -0.037899
P4    P     P_3+3 0.148670 0.605320 0.663680 0.474841
O12   O     O_2   0.316610 0.574140 0.674900 -0.401289
O13   O     O_3   0.067290 0.565720 0.585630 -0.416116
O14   O     O_3   0.530210 0.372990 0.631200 -0.359337
O15   O     O_3   0.180864 0.745795 0.681068 -0.517254
P5    P     P_3+3 0.059597 0.175755 0.597291 0.526460
O16   O     O_3   0.611340 0.366290 0.463630 -0.395157
O17   O     O_3   0.108550 0.314140 0.595200 -0.373418
O18   O     O_2   0.174885 0.120544 0.545212 -0.364961
O19   O     O_3   0.121366 0.146185 0.680844 -0.493088
Ba2   Ba    Ba6+2 0.337060 0.451750 0.534940 1.603912
P6    P     P_3+3 0.638347 0.611089 0.274383 0.630065
C10   C     C_3   0.695306 0.821824 0.309167 0.110514
H17   H     H_    0.596720 0.809124 0.347067 0.078436
O20   O     O_3   0.578370 0.633800 0.536380 -0.413336
C11   C     C_3   0.467723 0.244811 0.305487 0.755369
H18   H     H_    0.442243 0.322595 0.335364 -0.035447
C12   C     C_3   0.315090 0.185893 0.262693 -0.647578
H19   H     H_    0.229740 0.148370 0.299324 0.244022
H20   H     H_    0.256400 0.241959 0.234819 0.179263
H21   H     H_    0.345434 0.120749 0.220931 0.306771
P7    P     P_3+3 0.522184 0.230441 0.443598 0.423983
O21   O     O_2   0.341510 0.231850 0.465510 -0.384843
O22   O     O_3   0.517492 0.176561 0.351243 -0.597801
C13   C     C_3   0.060612 0.214041 0.736751 0.139589
H22   H     H_    0.118185 0.298826 0.736855 0.116328
H23   H     H_    0.926834 0.208473 0.730603 -0.036499
C14   C     C_3   0.102233 0.180869 0.809387 0.713923
H24   H     H_    0.235484 0.184176 0.815941 0.146344
P8    P     P_3+3 0.550014 0.382335 0.724497 0.497121
C15   C     C_3   0.556346 0.176906 0.706679 0.171741
H25   H     H_    0.668979 0.210493 0.681525 -0.046325
O23   O     O_2   0.429272 0.455891 0.757551 -0.349161
O24   O     O_3   0.472496 0.255038 0.744610 -0.519208
H26   H     H_    0.474484 0.128132 0.662682 0.125172
H27   H     H_    0.694010 0.150950 0.799707 0.103385
C16   C     C_3   0.603768 0.104027 0.758447 0.425208
H28   H     H_    0.658562 0.037051 0.728023 0.062926
C17   C     C_R   0.005195 0.418828 0.042938 0.112907
C18   C     C_R   0.908629 0.376706 0.096405 -0.004506
C19   C     C_R   0.792321 0.355958 0.941501 0.335521
C20   C     C_R   0.944160 0.416442 0.970141 0.021004
C21   C     C_R   0.727966 0.372600 0.875411 -0.178683
C22   C     C_R   0.819844 0.432177 0.828916 0.002505
C23   C     C_R   0.977061 0.485007 0.852588 0.051778
C24   C     C_R   0.038055 0.478879 0.923614 0.096332
C25   C     C_R   0.762333 0.435465 0.757768 0.241546
C26   C     C_R   0.867135 0.483038 0.709467 -0.488771
C27   C     C_R   0.021222 0.539564 0.732073 0.266749
C28   C     C_R   0.073315 0.544767 0.805469 -0.021734
C29   C     C_R   0.165970 0.470025 0.064535 0.051286
C30   C     C_R   0.227636 0.474533 0.137478 0.032793
C31   C     C_R   0.123213 0.432364 0.189551 -0.025472
C32   C     C_R   0.968157 0.380013 0.166327 -0.020284
H29   H     H_    0.824685 0.480691 0.654217 0.164843
H30   H     H_    0.609464 0.329245 0.858300 0.197359
H31   H     H_    0.887625 0.343287 0.202620 0.218961
C33   C     C_R   0.217551 0.609116 0.833745 -0.058344
C34   C     C_R   0.275649 0.604809 0.903064 -0.017530
C35   C     C_R   0.195229 0.533058 0.946652 0.107799
C36   C     C_R   0.264099 0.519104 0.014047 -0.151109
C37   C     C_R   0.429457 0.552638 0.032376 0.653179
C38   C     C_R   0.390205 0.524743 0.158609 -0.208168
C39   C     C_R   0.489941 0.563184 0.103325 0.233526
C40   C     C_R   0.441016 0.535054 0.233589 0.380802
C41   C     C_R   0.332736 0.494277 0.283433 -0.382782
C42   C     C_R   0.173886 0.445716 0.263673 0.232080
H32   H     H_    0.286953 0.664479 0.803053 0.165186
H33   H     H_    0.371966 0.503856 0.339783 0.154966
H34   H     H_    0.780771 0.347874 0.088047 0.184954
H35   H     H_    0.382422 0.661578 0.922349 0.221414
C43   C     C_R   0.754885 0.185842 0.535969 -0.607503
C44   C     C_R   0.432507 0.810059 0.473267 -0.517222
C45   C     C_R   0.402337 0.987068 0.451540 -0.105412
C46   C     C_R   0.340233 0.878371 0.445911 0.277784
C47   C     C_R   0.579465 0.850472 0.512151 0.308229
C48   C     C_R   0.639985 0.963125 0.522832 -0.303916
C49   C     C_R   0.550593 0.031310 0.489908 -0.164790
C50   C     C_R   0.610352 0.142547 0.496923 0.305836
C51   C     C_R   0.847328 0.120092 0.565904 0.062449
C52   C     C_R   0.786991 0.010809 0.563145 0.688173
H36   H     H_    0.330944 0.036023 0.426546 0.186574
H37   H     H_    0.802208 0.270344 0.538377 0.190284
H38   H     H_    0.384655 0.725209 0.467635 0.180272
F1    F     F_    0.813090 0.820592 0.793056 -0.585311
F2    F     F_    0.701301 0.651589 0.802897 -0.716440
N1    N     N_R   0.542798 0.940520 0.248769 0.276076
O25   O     O_R   0.540880 0.947837 0.180041 -0.165722
O26   O     O_R   0.420026 0.964421 0.286748 -0.427681
N2    N     N_R   0.593950 0.265105 0.253697 0.216289
O27   O     O_R   0.577985 0.332460 0.209167 -0.478459
O28   O     O_R   0.694016 0.196092 0.238347 -0.314941
F3    F     F_    0.822213 0.957354 0.242047 -0.658829
F4    F     F_    0.079213 0.722794 0.132674 -0.641850
F5    F     F_    0.055001 0.252522 0.864969 -0.734206
N3    N     N_R   0.022320 0.071998 0.814369 0.252624
O29   O     O_R   0.076073 0.989715 0.778116 -0.275991
O30   O     O_R   0.912311 0.055923 0.861995 -0.221636
F6    F     F_    0.015989 0.682915 0.273084 -0.676593
F7    F     F_    0.469150 0.062193 0.793442 -0.605418
N4    N     N_R   0.650532 0.621224 0.116128 0.286569
O31   O     O_R   0.771778 0.568158 0.105650 -0.352709
O32   O     O_R   0.673592 0.721441 0.106193 -0.224394
N5    N     N_R   0.713155 0.264860 0.971295 0.226065
O33   O     O_R   0.796475 0.191493 0.986116 -0.256293
O34   O     O_R   0.555249 0.246335 0.972943 -0.323877
N6    N     N_R   0.282111 0.749590 0.258384 0.199649
O35   O     O_R   0.361123 0.747951 0.198714 -0.362061
O36   O     O_R   0.342541 0.714640 0.312762 -0.494399
F8    F     F_    0.539062 0.571707 0.980711 -0.649705
F9    F     F_    0.874971 0.954771 0.600442 -0.645194
F10   F     F_    0.150592 0.899351 0.176965 -0.605876

loop_
_geom_bond_atom_site_label_1
_geom_bond_atom_site_label_2
_geom_bond_distance
_ccdc_geom_bond_type
P4    C27   1.883841 S    
C25   C26   1.402927 A    
Ba1   O16   2.827460 S    
C36   C37   1.400960 A    
C9    F1    1.381535 S    
P4    O12   1.528881 D    
N6    O35   1.300785 A    
C22   C25   1.416158 A    
O16   P7    1.758894 S    
C45   C46   1.389942 A    
C10   H17   1.100225 S    
C11   H18   1.111529 S    
C3    F4    1.385045 S    
P5    O18   1.542881 D    
C1    N1    1.454299 S    
O3    P6    1.749435 S    
O2    Ba1   2.940396 S    
N6    O36   1.293271 A    
C5    H7    1.102167 S    
O6    P6    1.765930 S    
C2    C3    1.539449 S    
C6    C7    1.518619 S    
N4    O32   1.302015 A    
Ba1   Ba2   4.613289 S    
C41   C42   1.393480 A    
C12   H20   1.107806 S    
C33   H32   1.080200 S    
C47   C48   1.429513 A    
O11   C2    1.420507 S    
P1    O1    1.528550 D    
C48   C52   1.432170 A    
C49   C50   1.414083 A    
C35   C36   1.423230 A    
P7    O22   1.756724 S    
C30   C38   1.431073 A    
O3    Ba1   2.788346 S    
O17   Ba2   2.757229 S    
P7    O21   1.565383 D    
C21   C22   1.398418 A    
C14   H24   1.108049 S    
C13   H23   1.108465 S    
P3    O11   1.774247 S    
P8    O24   1.748337 S    
P1    Ba1   3.414260 S    
C5    H8    1.105686 S    
O7    Ba1   2.907120 S    
O14   P8    1.733870 S    
C15   O24   1.408911 S    
C24   C35   1.414118 A    
C1    H2    1.105865 S    
C17   C29   1.423177 A    
C29   C30   1.440561 A    
C16   H28   1.110890 S    
O12   Ba2   2.857230 S    
P3    C46   1.854276 S    
C12   H21   1.110385 S    
C26   H29   1.081805 S    
C9    F2    1.378767 S    
C4    H4    1.103496 S    
P4    O13   1.579035 S    
C29   C36   1.411086 A    
P8    C25   1.859132 S    
C19   C21   1.397412 A    
Ba1   O20   2.924965 S    
C19   C20   1.430111 A    
C4    O15   1.395384 S    
H27   C16   1.108508 S    
C19   N5    1.435997 S    
P5    O17   1.753076 S    
P1    O5    1.748598 S    
C7    H13   1.093134 S    
C14   N3    1.461020 S    
Ba2   O21   2.907347 S    
C5    H6    1.106390 S    
C43   H37   1.082305 S    
N5    O34   1.301735 A    
C2    N6    1.454650 S    
C9    H16   1.110976 S    
C43   C51   1.387593 A    
O2    Ba2   2.819242 S    
N5    O33   1.301475 A    
O16   Ba2   2.924054 S    
C32   H31   1.068029 S    
C12   H19   1.100128 S    
C23   C24   1.432326 A    
C8    C9    1.525856 S    
C52   F9    1.349673 S    
P1    O2    1.579035 S    
C7    H12   1.104895 S    
N2    O28   1.301824 A    
N1    O26   1.298611 A    
C6    H9    1.093505 S    
C43   C50   1.393845 A    
P2    O10   1.753276 S    
C34   C35   1.413927 A    
P3    O9    1.545457 D    
C13   C14   1.531061 S    
C34   H35   1.078765 S    
P8    O23   1.545706 D    
C11   O22   1.406119 S    
C3    F10   1.383592 S    
P5    C51   1.855579 S    
C38   C40   1.439817 A    
C31   C32   1.392975 A    
C22   C23   1.411987 A    
C37   C39   1.392588 A    
P2    C47   1.831381 S    
P7    C50   1.827967 S    
C45   C49   1.415342 A    
C37   F8    1.360059 S    
O14   Ba2   2.787674 S    
N3    O30   1.300633 A    
P1    C42   1.890608 S    
P6    C40   1.867634 S    
C13   H22   1.112670 S    
C4    H5    1.110956 S    
C1    C10   1.540262 S    
O6    C10   1.411097 S    
C18   C32   1.384130 A    
N1    O25   1.301731 A    
C15   C16   1.522944 S    
P2    O20   1.599586 S    
C51   C52   1.398920 A    
C8    H14   1.106446 S    
O4    P6    1.541934 D    
C14   F5    1.377475 S    
P3    O8    1.760659 S    
N3    O29   1.299659 A    
H1    C10   1.101948 S    
C17   C20   1.440666 A    
C23   C28   1.425505 A    
P4    Ba2   3.414859 S    
C40   C41   1.405576 A    
P5    O19   1.748564 S    
Ba1   O13   2.818579 S    
C7    H11   1.100018 S    
C44   C47   1.402341 A    
C3    H3    1.096788 S    
C8    H15   1.109187 S    
N2    O27   1.299649 A    
C15   H25   1.110968 S    
C6    H10   1.108661 S    
C20   C24   1.427152 A    
C48   C49   1.422998 A    
O10   C8    1.398772 S    
C16   F7    1.382516 S    
C15   H26   1.110045 S    
P2    O7    1.510723 D    
O13   Ba2   2.941306 S    
C44   H38   1.082295 S    
P2    Ba1   3.446417 S    
C21   H30   1.075277 S    
C30   C31   1.424453 A    
C11   C12   1.525143 S    
Ba2   O20   2.826822 S    
C2    F6    1.368280 S    
O19   C13   1.401879 S    
C11   N2    1.458367 S    
C17   C18   1.408517 A    
C45   H36   1.072092 S    
O5    C6    1.400913 S    
C26   C27   1.400222 A    
C33   C34   1.388687 A    
C4    C5    1.516617 S    
C18   H34   1.074064 S    
C38   C39   1.431003 A    
P4    O15   1.746764 S    
C39   N4    1.426066 S    
O1    Ba1   2.856903 S    
O8    Ba1   2.756579 S    
C27   C28   1.422362 A    
N4    O31   1.296317 A    
C28   C33   1.397097 A    
C31   C42   1.420927 A    
C44   C46   1.388595 A    
C41   H33   1.082365 S    
C1    F3    1.380143 S    
