data_mof_unit_24816.cif
_audit_creation_date              2012-12-11T16:18:11-0500
_audit_creation_method            fapswitch 2.2
_symmetry_space_group_name_H-M    P1
_symmetry_Int_Tables_number       1
_space_group_crystal_system       triclinic
_cell_length_a                    14.027237
_cell_length_b                    14.037369
_cell_length_c                    30.108187
_cell_angle_alpha                 97.270744
_cell_angle_beta                  97.210239
_cell_angle_gamma                 61.265722
_cell_volume                      5142.35747414

loop_
_atom_site_label
_atom_site_type_symbol
_atom_type_description
_atom_site_fract_x
_atom_site_fract_y
_atom_site_fract_z
_atom_type_partial_charge
C1    C     C_R   0.384931 0.712329 0.442281 0.545636
C2    C     C_R   0.786651 0.265878 0.376638 -0.022832
C3    C     C_2   0.231360 0.055674 0.783388 0.294985
C4    C     C_2   0.415820 0.647271 0.801716 0.299332
C5    C     C_2   0.850187 0.493530 0.318405 0.259098
C6    C     C_2   0.858079 0.491076 0.417514 0.329934
C7    C     C_2   0.779834 0.177625 0.396250 0.346917
C8    C     C_R   0.803748 0.253728 0.330783 0.215498
C9    C     C_R   0.398566 0.380980 0.426568 0.567530
C10   C     C_R   0.817416 0.332311 0.311920 -0.015828
C11   C     C_R   0.828098 0.416309 0.339394 -0.075762
C12   C     C_R   0.817937 0.424638 0.386128 0.003628
C13   C     C_R   0.821606 0.407865 0.157614 0.216464
C14   C     C_R   0.844941 0.398953 0.112847 0.235111
C15   C     C_R   0.875041 0.211050 0.104640 -0.046587
C16   C     C_R   0.853830 0.220393 0.149937 0.163681
C17   C     C_R   0.408946 0.257491 0.221601 0.005655
C18   C     C_R   0.832452 0.316830 0.176650 -0.007089
C19   C     C_1   0.824744 0.321657 0.224106 0.131329
C20   C     C_1   0.821116 0.325916 0.263989 0.086608
C21   C     C_R   0.713875 0.403290 0.443302 0.592203
C22   C     C_R   0.882991 0.296781 0.087276 -0.043249
C23   C     C_R   0.362852 0.770526 0.400842 -0.073482
C24   C     C_R   0.447720 0.779938 0.383485 -0.040921
C25   C     C_R   0.442386 0.791823 0.337047 -0.039872
C26   C     C_R   0.352039 0.796287 0.309144 -0.058701
C27   C     C_R   0.261102 0.805197 0.327584 0.267437
C28   C     C_R   0.417142 0.264355 0.268904 0.266557
C29   C     C_R   0.264618 0.796277 0.373574 0.238975
C30   C     C_R   0.276738 0.789654 0.143137 -0.017905
C31   C     C_R   0.260658 0.821938 0.098967 -0.074786
C32   C     C_R   0.389937 0.894341 0.118959 0.225723
C33   C     C_R   0.389542 0.711986 0.568114 0.555532
C34   C     C_R   0.409246 0.857851 0.162160 -0.005197
C35   C     C_R   0.345932 0.814497 0.175011 -0.022340
C36   C     C_1   0.347640 0.802821 0.221888 0.060383
C37   C     C_1   0.349268 0.798582 0.261481 0.050474
C38   C     C_R   0.307941 0.885339 0.088362 0.013090
C39   C     C_R   0.331766 0.347755 0.292781 -0.033491
C40   C     C_R   0.370166 0.369354 0.595827 -0.039058
C41   C     C_R   0.450385 0.325022 0.631851 0.002772
C42   C     C_R   0.418655 0.339140 0.675445 0.285664
C43   C     C_R   0.307943 0.393259 0.683469 0.005376
C44   C     C_R   0.226508 0.427201 0.647726 -0.035386
C45   C     C_R   0.403609 0.384210 0.553342 0.566870
C46   C     C_R   0.257687 0.415973 0.603429 0.002752
C47   C     C_R   0.235607 0.448010 0.847992 0.285504
C48   C     C_R   0.241123 0.413860 0.890667 0.250138
C49   C     C_R   0.344171 0.223324 0.861475 -0.031378
C50   C     C_R   0.315669 0.337426 0.198802 -0.081253
C51   C     C_R   0.339842 0.259734 0.819967 -0.115757
C52   C     C_R   0.282403 0.369800 0.812644 -0.017815
C53   C     C_1   0.275431 0.396581 0.767718 0.092577
C54   C     C_1   0.282275 0.402629 0.729023 0.063932
C55   C     C_R   0.291300 0.300938 0.897339 -0.035917
C56   C     C_1   0.761483 0.378292 0.612583 0.095126
C57   C     C_R   0.713909 0.407506 0.568313 0.567162
C58   C     C_R   0.771657 0.440261 0.730774 -0.034457
C59   C     C_R   0.788216 0.424561 0.777342 -0.054288
C60   C     C_R   0.876080 0.226821 0.759714 0.274097
C61   C     C_1   0.303060 0.324653 0.150481 -0.075201
C62   C     C_R   0.858369 0.242215 0.713734 0.274576
C63   C     C_R   0.807480 0.348005 0.699176 0.012621
C64   C     C_R   0.842038 0.317163 0.791481 0.004686
C65   C     C_1   0.870339 0.298399 0.838540 0.109548
C66   C     C_1   0.787826 0.361426 0.651575 0.108496
C67   C     C_1   0.902037 0.284186 0.877397 0.107029
C68   C     C_1   0.375565 0.758977 0.613281 0.096931
C69   C     C_1   0.365514 0.364415 0.380867 0.042828
C70   C     C_R   0.304540 0.917198 0.718874 0.194054
C71   C     C_R   0.287607 0.939463 0.765035 0.042740
C72   C     C_1   0.345972 0.355482 0.341068 -0.009470
C73   C     C_R   0.375752 0.741933 0.773814 0.003494
C74   C     C_R   0.389629 0.721927 0.727363 0.174180
C75   C     C_R   0.354640 0.809204 0.700300 0.058465
C76   C     C_R   0.324387 0.851262 0.792617 0.001860
C77   C     C_1   0.310830 0.874346 0.840225 0.113158
C78   C     C_1   0.365632 0.786475 0.652630 0.129907
C79   C     C_1   0.293120 0.902123 0.879091 0.104748
C80   C     C_R   0.947569 0.274362 0.047621 0.573209
C81   C     C_R   0.237631 0.426809 0.270198 -0.016758
C82   C     C_R   0.275550 0.270542 0.065275 0.566401
C83   C     C_1   0.291720 0.305251 0.110785 0.023295
C84   C     C_R   0.262383 0.952127 0.048624 0.583429
C85   C     C_R   0.951791 0.269257 0.922193 0.560460
C86   C     C_R   0.275496 0.265015 0.938742 0.559086
C87   C     C_R   0.261876 0.950029 0.923124 0.568823
C88   C     C_R   0.230767 0.423317 0.222652 0.022469
C89   C     C_2   0.146707 0.509657 0.296957 0.320926
C90   C     C_2   0.886475 0.112045 0.076328 0.328554
C91   C     C_2   0.199579 0.784296 0.063454 0.278566
C92   C     C_2   0.222154 0.729394 0.155882 0.299254
C93   C     C_2   0.541673 0.775777 0.413815 0.344417
C94   C     C_R   0.779892 0.360036 0.403128 0.002666
C95   C     C_2   0.491493 0.870502 0.195266 0.340418
C96   C     C_2   0.137729 0.509792 0.197201 0.356299
C97   C     C_2   0.529616 0.800100 0.316930 0.333805
C98   C     C_2   0.110391 0.472156 0.657629 0.242546
C99   C     C_2   0.172755 0.455882 0.565505 0.337917
C100  C     C_2   0.568474 0.271958 0.625593 0.351032
C101  C     C_2   0.396581 0.103502 0.864176 0.276918
C102  C     C_2   0.722433 0.553293 0.716000 0.270313
C103  C     C_2   0.497435 0.168579 0.195297 0.352484
C104  C     C_2   0.744906 0.521183 0.810660 0.248037
Cl1   Cl    Cl    0.853244 0.111306 0.173644 -0.462779
Cl2   Cl    Cl    0.901714 0.127723 0.674121 -0.389165
Cl3   Cl    Cl    0.258154 0.024670 0.683153 -0.532961
Cl4   Cl    Cl    0.445718 0.586808 0.701925 -0.615287
Cl5   Cl    Cl    0.536177 0.171455 0.299342 -0.440613
Cl6   Cl    Cl    0.823816 0.518269 0.089806 -0.388824
Cl7   Cl    Cl    0.782747 0.532803 0.190674 -0.438198
Cl8   Cl    Cl    0.808485 0.139404 0.296388 -0.374241
Cl9   Cl    Cl    0.142654 0.824950 0.292536 -0.355951
Cl10  Cl    Cl    0.143735 0.818899 0.395905 -0.403127
Cl11  Cl    Cl    0.464165 0.959163 0.106165 -0.448728
Cl12  Cl    Cl    0.185616 0.513688 0.935535 -0.405692
Cl13  Cl    Cl    0.168840 0.587885 0.838542 -0.397566
Cl14  Cl    Cl    0.519360 0.294604 0.721314 -0.471587
Cl15  Cl    Cl    0.941730 0.092981 0.777540 -0.399864
Cr1   Cr    Cr6+3 0.581000 0.584320 0.508140 1.113918
Cr2   Cr    Cr6+3 0.339110 0.576430 0.496080 1.125844
Cr3   Cr    Cr6+3 0.579910 0.339270 0.495810 1.125761
Cr4   Cr    Cr6+3 0.082090 0.079210 0.982490 1.149803
Cr5   Cr    Cr6+3 0.082460 0.324610 0.994920 1.158978
Cr6   Cr    Cr6+3 0.323630 0.087860 0.996130 1.134425
H1    H     H_    0.376930 0.200916 0.792053 0.194281
H2    H     H_    0.083570 0.515007 0.689971 0.140891
H3    H     H_    0.095537 0.528523 0.570573 0.161060
H4    H     H_    0.601814 0.314982 0.611135 0.113164
H5    H     H_    0.366652 0.068009 0.884954 0.146433
H6    H     H_    0.730754 0.616817 0.737915 0.125828
H7    H     H_    0.508903 0.181210 0.161970 0.144014
H8    H     H_    0.670534 0.594212 0.802056 0.108703
H9    H     H_    0.235178 0.118277 0.767136 0.157341
H10   H     H_    0.478954 0.567762 0.790366 0.173706
H11   H     H_    0.903611 0.464172 0.291139 0.173831
H12   H     H_    0.164014 0.541112 0.330049 0.139478
H13   H     H_    0.862644 0.559225 0.406683 0.197435
H14   H     H_    0.740032 0.134135 0.377023 0.199656
H15   H     H_    0.930327 0.032582 0.089731 0.147598
H16   H     H_    0.127491 0.780956 0.070528 0.108104
H17   H     H_    0.142356 0.744607 0.140774 0.128638
H18   H     H_    0.527703 0.818374 0.446975 0.122844
H19   H     H_    0.472019 0.900820 0.229658 0.099019
H20   H     H_    0.108158 0.489604 0.164210 0.121175
H21   H     H_    0.557002 0.757604 0.284606 0.133492
O1    O     O_R   0.688580 0.499770 0.460490 -0.460541
O2    O     O_R   0.346150 0.177650 0.050510 -0.452850
O3    O     O_R   0.314200 0.996600 0.036060 -0.442352
O4    O     O_R   0.480400 0.672610 0.462660 -0.522814
O5    O     O_R   0.168690 0.969990 0.933130 -0.445094
O6    O     O_R   0.991920 0.175870 0.937430 -0.477365
O7    O     O_R   0.974010 0.342590 0.941330 -0.466211
O8    O     O_R   0.182630 0.317940 0.955040 -0.450474
O9    O     O_R   0.347320 0.174720 0.953250 -0.514876
O10   O     O_R   0.315290 0.993890 0.945900 -0.520845
O11   O     O_3   0.162730 0.163890 0.991180 -0.311472
O12   O     O_R   0.348600 0.476260 0.536540 -0.477376
O13   O     O_R   0.315310 0.685650 0.451800 -0.436251
O14   O     O_R   0.346220 0.474990 0.446280 -0.484802
O15   O     O_R   0.492270 0.312460 0.441630 -0.480255
O16   O     O_R   0.669740 0.350480 0.455640 -0.476169
O17   O     O_R   0.691150 0.501150 0.557860 -0.457452
O18   O     O_R   0.482790 0.673890 0.552920 -0.486776
O19   O     O_R   0.317880 0.687030 0.549170 -0.489829
O20   O     O_2   0.051658 0.539792 0.283278 -0.407932
O21   O     O_2   0.842546 0.119186 0.038330 -0.438881
O22   O     O_2   0.231391 0.754008 0.025740 -0.397236
O23   O     O_R   0.494840 0.313840 0.539010 -0.505802
O24   O     O_2   0.266837 0.660513 0.183159 -0.435015
O25   O     O_2   0.635095 0.721402 0.402939 -0.432037
O26   O     O_2   0.582872 0.843535 0.184790 -0.294197
O27   O     O_2   0.096521 0.605139 0.211849 -0.343700
O28   O     O_2   0.568149 0.857954 0.335293 -0.369479
O29   O     O_2   0.044777 0.457652 0.630864 -0.462092
O30   O     O_2   0.187621 0.406774 0.528408 -0.446793
O31   O     O_2   0.628994 0.179745 0.636731 -0.370539
O32   O     O_2   0.472715 0.042123 0.841646 -0.464369
O33   O     O_2   0.671088 0.577639 0.679712 -0.454334
O34   O     O_R   0.672120 0.351750 0.545910 -0.505200
O35   O     O_2   0.556316 0.079411 0.209645 -0.326592
O36   O     O_2   0.792210 0.521455 0.847544 -0.446318
O37   O     O_2   0.177783 0.083862 0.816052 -0.515905
O38   O     O_2   0.377988 0.655695 0.837240 -0.429183
O39   O     O_2   0.804170 0.591043 0.329410 -0.404968
O40   O     O_2   0.892482 0.466322 0.455935 -0.440881
O41   O     O_2   0.823019 0.149470 0.433484 -0.425993
O42   O     O_3   0.500010 0.500010 0.500010 -0.297825
O43   O     O_R   0.167510 0.972920 0.030390 -0.491956
O44   O     O_R   0.990840 0.178580 0.027590 -0.481587
O45   O     O_R   0.972840 0.345510 0.038590 -0.449450
O46   O     O_R   0.181550 0.320660 0.045200 -0.488387

loop_
_geom_bond_atom_site_label_1
_geom_bond_atom_site_label_2
_ccdc_geom_bond_type
C5    H11   S    
C104  O36   D    
C29   Cl10  S    
C88   C96   S    
Cr5   O8    S    
C90   O21   D    
C48   C55   A    
C41   C42   A    
C19   C20   T    
C5    O39   D    
C86   O9    A    
C79   C87   S    
C53   C54   T    
C40   C46   A    
C96   H20   S    
C59   C64   A    
Cr3   O15   S    
C30   C35   A    
C59   C104  S    
C21   O1    A    
C7    O41   D    
C36   C37   T    
C9    C69   S    
C18   C19   S    
C70   Cl3   S    
C8    Cl8   S    
C6    C12   S    
C30   C31   A    
Cr6   O11   S    
C21   O16   A    
C27   C29   A    
C21   C94   S    
C15   C16   A    
C84   O43   A    
C56   C57   S    
C60   Cl15  S    
C60   C62   A    
C34   C35   A    
C73   C74   A    
C101  O32   D    
Cr1   O17   S    
C44   C98   S    
C15   C22   A    
C99   O30   D    
C35   C36   S    
C92   O24   D    
C65   C67   T    
Cr2   O14   S    
C39   C72   S    
C70   C71   A    
C58   C102  S    
C32   C38   A    
Cr4   O43   S    
C92   H17   S    
C103  H7    S    
C93   H18   S    
Cr6   O10   S    
C50   C88   A    
C48   Cl12  S    
C81   C89   S    
C84   O3    A    
C63   C66   S    
C95   H19   S    
C87   O5    A    
Cr5   O7    S    
C96   O27   D    
C86   O8    A    
C102  O33   D    
C51   H1    S    
C12   C94   A    
Cr1   O4    S    
C100  O31   D    
Cr1   O42   S    
C44   C46   A    
C9    O14   A    
C76   C77   S    
C77   C79   T    
C68   C78   T    
C40   C45   S    
Cr4   O5    S    
C67   C85   S    
C104  H8    S    
C51   C52   A    
C98   H2    S    
C91   O22   D    
C1    O13   A    
C33   O18   A    
C24   C25   A    
C39   C81   A    
C30   C92   S    
C61   C83   T    
C10   C20   S    
C100  H4    S    
C42   Cl14  S    
Cr4   O11   S    
C28   C39   A    
C49   C51   A    
C25   C26   A    
C49   C55   A    
C74   Cl4   S    
C4    O38   D    
C32   C34   A    
C6    H13   S    
C69   C72   T    
C3    C71   S    
C43   C44   A    
C62   C63   A    
C43   C54   S    
Cr3   O42   S    
C47   C48   A    
C57   O17   A    
C2    C94   A    
C23   C24   A    
Cr3   O23   S    
Cr5   O11   S    
C26   C27   A    
C41   C100  S    
C1    O4    A    
C16   C18   A    
C85   O7    A    
C34   C95   S    
Cr4   O44   S    
C9    O15   A    
C4    C73   S    
Cr3   O34   S    
Cr6   O3    S    
C16   Cl1   S    
C4    H10   S    
C13   C18   A    
C25   C97   S    
C40   C41   A    
C1    C23   S    
C89   H12   S    
Cr2   O12   S    
C2    C7    S    
C80   O45   A    
C7    H14   S    
C42   C43   A    
C27   Cl9   S    
Cr5   O46   S    
C52   C53   S    
C95   O26   D    
C58   C63   A    
C14   Cl6   S    
Cr4   O6    S    
C93   O25   D    
C97   O28   D    
C82   O46   A    
C103  O35   D    
C17   C28   A    
C80   O44   A    
C102  H6    S    
C33   O19   A    
C45   O12   A    
Cr6   O2    S    
C45   O23   A    
C17   C50   A    
C57   O34   A    
C82   O2    A    
C23   C29   A    
C26   C37   S    
C5    C11   S    
C47   C52   A    
C62   Cl2   S    
C28   Cl5   S    
Cr2   O19   S    
C6    O40   D    
C31   C91   S    
Cr3   O16   S    
C31   C38   A    
C60   C64   A    
C3    H9    S    
C64   C65   S    
C14   C22   A    
C46   C99   S    
C58   C59   A    
C85   O6    A    
C38   C84   S    
C13   Cl7   S    
C24   C93   S    
C101  H5    S    
Cr2   O42   S    
C49   C101  S    
C98   O29   D    
C15   C90   S    
C71   C76   A    
C55   C86   S    
C56   C66   T    
C73   C76   A    
C99   H3    S    
C32   Cl11  S    
C17   C103  S    
C75   C78   S    
C89   O20   D    
C81   C88   A    
C10   C11   A    
Cr1   O18   S    
C22   C80   S    
C97   H21   S    
C47   Cl13  S    
C74   C75   A    
C33   C68   S    
Cr1   O1    S    
C8    C10   A    
C82   C83   S    
Cr2   O13   S    
C2    C8    A    
C70   C75   A    
C50   C61   S    
C87   O10   A    
C90   H15   S    
C13   C14   A    
C3    O37   D    
Cr5   O45   S    
Cr6   O9    S    
C11   C12   A    
C91   H16   S    
