data_mof_unit_65180.cif
_audit_creation_date              2012-12-10T20:02:51-0500
_audit_creation_method            fapswitch 2.2
_symmetry_space_group_name_H-M    P1
_symmetry_Int_Tables_number       1
_space_group_crystal_system       triclinic
_cell_length_a                    38.719357
_cell_length_b                    32.083668
_cell_length_c                    21.579857
_cell_angle_alpha                 89.99992
_cell_angle_beta                  55.89665
_cell_angle_gamma                 90.00002
_cell_volume                      22197.5734263

loop_
_atom_site_label
_atom_site_type_symbol
_atom_type_description
_atom_site_fract_x
_atom_site_fract_y
_atom_site_fract_z
_atom_type_partial_charge
C1    C     C_R   0.919279 0.499971 0.580374 0.937379
C2    C     C_R   0.080721 0.499971 0.419626 0.937379
C3    C     C_R   0.419279 0.999971 0.580374 0.937397
C4    C     C_R   0.580721 0.999971 0.419626 0.937398
C5    C     C_3   0.955090 0.487000 0.331349 -0.064296
C6    C     C_3   0.044910 0.487000 0.668651 -0.064296
C7    C     C_3   0.455083 0.987039 0.331359 -0.064170
C8    C     C_3   0.544917 0.987039 0.668641 -0.064170
C9    C     C_3   0.999723 0.499878 0.310691 -0.048420
C10   C     C_3   0.000276 0.499878 0.689309 -0.048419
C11   C     C_3   0.499727 0.999880 0.310688 -0.048379
C12   C     C_3   0.500273 0.999880 0.689312 -0.048378
C13   C     C_3   0.999891 0.500025 0.189665 0.012222
C14   C     C_3   0.000109 0.500025 0.810334 0.012222
C15   C     C_3   0.499892 0.000029 0.189665 0.012171
C16   C     C_3   0.500107 0.000029 0.810335 0.012171
C17   C     C_3   0.034057 0.469492 0.179552 -0.541254
C18   C     C_3   0.965943 0.469492 0.820448 -0.541252
C19   C     C_3   0.534035 0.969469 0.179572 -0.541194
C20   C     C_3   0.465965 0.969469 0.820428 -0.541194
C21   C     C_3   0.956729 0.484590 0.258010 -0.453314
C22   C     C_3   0.043271 0.484590 0.741990 -0.453313
C23   C     C_3   0.456718 0.984628 0.258023 -0.453315
C24   C     C_3   0.543282 0.984628 0.741977 -0.453317
C25   C     C_R   0.728147 0.470922 0.808501 0.490290
C26   C     C_R   0.271853 0.470923 0.191496 0.490290
C27   C     C_R   0.228146 0.970941 0.808535 0.490307
C28   C     C_R   0.771854 0.970954 0.191444 0.490315
C29   C     C_R   0.706508 0.499362 0.792653 0.046893
C30   C     C_R   0.293492 0.499362 0.207347 0.046887
C31   C     C_R   0.206508 0.999360 0.792651 0.046978
C32   C     C_R   0.793492 0.999360 0.207349 0.046998
C33   C     C_R   0.728178 0.527153 0.732676 -0.260147
C34   C     C_R   0.271822 0.527151 0.267327 -0.260145
C35   C     C_R   0.228178 0.027129 0.732639 -0.260345
C36   C     C_R   0.771822 0.027116 0.267382 -0.260360
C37   C     C_R   0.771605 0.527109 0.688780 -0.167104
C38   C     C_R   0.228395 0.527107 0.311223 -0.167103
C39   C     C_R   0.271605 0.027085 0.688743 -0.167143
C40   C     C_R   0.728395 0.027072 0.311278 -0.167142
C41   C     C_R   0.793293 0.499404 0.705154 0.104763
C42   C     C_R   0.206707 0.499405 0.294846 0.104760
C43   C     C_R   0.293293 0.999402 0.705152 0.104822
C44   C     C_R   0.706707 0.999402 0.294849 0.104840
C45   C     C_R   0.000268 0.500018 0.378261 0.930929
C46   C     C_R   0.999732 0.500018 0.621739 0.930928
C47   C     C_R   0.500272 0.000019 0.378257 0.930976
C48   C     C_R   0.499728 0.000019 0.621743 0.930976
C49   C     C_R   0.771784 0.471543 0.765006 -0.291987
C50   C     C_R   0.228216 0.471545 0.234991 -0.291979
C51   C     C_R   0.271783 0.971563 0.765038 -0.291980
C52   C     C_R   0.728216 0.971575 0.234942 -0.292011
C53   C     C_1   0.662014 0.499838 0.837325 0.004742
C54   C     C_1   0.337986 0.499838 0.162676 0.004737
C55   C     C_1   0.162014 0.999836 0.837323 0.004656
C56   C     C_1   0.837986 0.999836 0.162677 0.004683
C57   C     C_1   0.837719 0.499733 0.660790 -0.033957
C58   C     C_1   0.162281 0.499733 0.339210 -0.033956
C59   C     C_1   0.337718 0.999732 0.660789 -0.033982
C60   C     C_1   0.662281 0.999732 0.339212 -0.033980
C61   C     C_1   0.875036 0.499919 0.623849 -0.171086
C62   C     C_1   0.124964 0.499919 0.376151 -0.171085
C63   C     C_1   0.375036 0.999919 0.623848 -0.171138
C64   C     C_1   0.624964 0.999919 0.376152 -0.171138
C65   C     C_1   0.624688 0.499979 0.874905 -0.164257
C66   C     C_1   0.375311 0.499979 0.125095 -0.164257
C67   C     C_1   0.124688 0.999978 0.874904 -0.164321
C68   C     C_1   0.875311 0.999978 0.125096 -0.164316
C69   C     C_1   0.500000 0.661813 1.000000 0.077037
C70   C     C_1   1.000000 0.161816 0.000000 0.077141
C71   C     C_R   1.000000 0.580666 1.000000 0.925086
C72   C     C_R   0.500000 0.080665 1.000000 0.925067
C73   C     C_R   0.999881 0.498997 0.121608 0.883556
C74   C     C_R   0.000119 0.498996 0.878392 0.883556
C75   C     C_R   0.499881 0.999001 0.121608 0.883484
C76   C     C_R   0.500119 0.999001 0.878392 0.883485
C77   C     C_1   1.000000 0.337911 0.000000 0.015465
C78   C     C_1   0.500000 0.837909 0.000000 0.015409
C79   C     C_R   1.000000 0.419299 0.000000 0.897879
C80   C     C_R   0.500000 0.919300 0.000000 0.897792
C81   C     C_1   1.000000 0.375161 0.000000 -0.182164
C82   C     C_1   0.500000 0.875160 0.000000 -0.182135
C83   C     C_R   0.500000 0.419566 0.000000 0.896681
C84   C     C_R   1.000000 0.919566 0.000000 0.896700
C85   C     C_R   0.580421 0.500004 0.919477 0.893045
C86   C     C_R   0.419579 0.500004 0.080523 0.893046
C87   C     C_R   0.080421 0.000004 0.919477 0.892898
C88   C     C_R   0.919579 0.000004 0.080523 0.892898
C89   C     C_R   0.500000 0.580419 1.000000 0.890665
C90   C     C_R   1.000000 0.080419 1.000000 0.890259
C91   C     C_R   0.509324 0.271812 0.936075 -0.180327
C92   C     C_R   0.490676 0.271812 0.063925 -0.180328
C93   C     C_R   0.006350 0.771812 0.938130 -0.180269
C94   C     C_R   0.993651 0.771812 0.061869 -0.180266
C95   C     C_R   0.500000 0.293464 0.000000 0.164001
C96   C     C_R   0.000000 0.793464 1.000000 0.163779
C97   C     C_R   0.993651 0.728364 0.061870 -0.174001
C98   C     C_R   0.006350 0.728365 0.938129 -0.174003
C99   C     C_R   0.490678 0.228365 0.063925 -0.174159
C100  C     C_R   0.509322 0.228365 0.936074 -0.174159
C101  C     C_R   0.000000 0.706719 1.000000 0.162570
C102  C     C_R   0.500000 0.206719 1.000000 0.162534
C103  C     C_1   0.500000 0.337930 0.000000 -0.069054
C104  C     C_1   0.000000 0.837930 1.000000 -0.069013
C105  C     C_1   0.000000 0.662265 1.000000 -0.052893
C106  C     C_1   0.500000 0.162265 1.000000 -0.052943
C107  C     C_1   0.000000 0.624939 1.000000 -0.154180
C108  C     C_1   0.500000 0.124939 1.000000 -0.154162
C109  C     C_1   0.500000 0.624565 1.000000 -0.169904
C110  C     C_1   1.000000 0.124567 0.000000 -0.169817
C111  C     C_1   0.500000 0.375267 0.000000 -0.174175
C112  C     C_1   0.000000 0.875267 1.000000 -0.174128
C113  C     C_R   0.514009 0.727823 0.038591 0.379542
C114  C     C_R   0.485991 0.727823 0.961409 0.379541
C115  C     C_R   0.012199 0.227829 0.041395 0.379637
C116  C     C_R   0.987800 0.227830 0.958605 0.379637
C117  C     C_R   0.500000 0.706300 0.000000 -0.121374
C118  C     C_R   1.000000 0.206305 0.000000 -0.121534
C119  C     C_R   1.000000 0.293251 0.000000 -0.078494
C120  C     C_R   0.500000 0.793245 0.000000 -0.078512
C121  C     C_R   0.986705 0.271497 0.960249 -0.119472
C122  C     C_R   0.013295 0.271497 0.039752 -0.119472
C123  C     C_R   0.484911 0.771490 0.963124 -0.119485
C124  C     C_R   0.515088 0.771490 0.036876 -0.119485
C125  C     C_3   0.010869 0.544318 0.274331 -0.449115
C126  C     C_3   0.989131 0.544318 0.725669 -0.449114
C127  C     C_3   0.510907 0.044312 0.274295 -0.449148
C128  C     C_3   0.489092 0.044312 0.725705 -0.449147
C129  C     C_3   0.008799 0.545472 0.204653 0.008762
C130  C     C_3   0.991200 0.545472 0.795347 0.008763
C131  C     C_3   0.508837 0.045469 0.204617 0.008644
C132  C     C_3   0.491162 0.045468 0.795384 0.008644
C133  C     C_3   0.033000 0.468123 0.252718 0.341552
C134  C     C_3   0.967000 0.468123 0.747282 0.341551
C135  C     C_3   0.532978 0.968100 0.252737 0.341529
C136  C     C_3   0.467022 0.968099 0.747263 0.341527
H1    H     H_    0.042226 0.553406 0.260273 0.184262
H2    H     H_    0.957774 0.553406 0.739727 0.184261
H3    H     H_    0.542271 0.053374 0.260230 0.184252
H4    H     H_    0.457728 0.053374 0.739770 0.184251
H5    H     H_    0.951662 0.452066 0.246421 0.174328
H6    H     H_    0.048339 0.452067 0.753579 0.174328
H7    H     H_    0.451624 0.952108 0.246462 0.174212
H8    H     H_    0.548376 0.952109 0.753538 0.174213
H9    H     H_    0.021129 0.436442 0.275879 0.140587
H10   H     H_    0.978871 0.436442 0.724120 0.140587
H11   H     H_    0.521082 0.936428 0.275922 0.140336
H12   H     H_    0.478918 0.936427 0.724077 0.140337
H13   H     H_    0.027760 0.437623 0.167607 0.160013
H14   H     H_    0.972240 0.437623 0.832393 0.160012
H15   H     H_    0.527712 0.937605 0.167652 0.159720
H16   H     H_    0.472289 0.937604 0.832348 0.159720
H17   H     H_    0.788721 0.450399 0.777979 0.154468
H18   H     H_    0.211279 0.450402 0.222017 0.154471
H19   H     H_    0.288721 0.950435 0.778038 0.154447
H20   H     H_    0.711279 0.950458 0.221927 0.154425
H21   H     H_    0.711498 0.548868 0.720039 0.166128
H22   H     H_    0.288502 0.548866 0.279966 0.166128
H23   H     H_    0.211498 0.048828 0.719975 0.165969
H24   H     H_    0.788502 0.048805 0.280061 0.165970
H25   H     H_    0.788248 0.548738 0.642435 0.160343
H26   H     H_    0.211752 0.548735 0.357569 0.160343
H27   H     H_    0.288248 0.048697 0.642371 0.160280
H28   H     H_    0.711752 0.048675 0.357665 0.160283
H29   H     H_    0.011278 0.711688 0.890120 0.149326
H30   H     H_    0.988723 0.711688 0.109879 0.149326
H31   H     H_    0.516557 0.211689 0.886471 0.149572
H32   H     H_    0.483444 0.211688 0.113529 0.149572
H33   H     H_    0.516560 0.288482 0.886467 0.144886
H34   H     H_    0.483440 0.288481 0.113533 0.144886
H35   H     H_    0.011278 0.788482 0.890120 0.145025
H36   H     H_    0.988723 0.788481 0.109880 0.145026
H37   H     H_    0.989458 0.568077 0.316047 0.194207
H38   H     H_    0.010542 0.568077 0.683953 0.194207
H39   H     H_    0.489515 0.068088 0.315992 0.194237
H40   H     H_    0.510484 0.068088 0.684008 0.194237
H41   H     H_    0.064601 0.478170 0.128992 0.188247
H42   H     H_    0.935399 0.478169 0.871009 0.188247
H43   H     H_    0.564585 0.978122 0.129002 0.188305
H44   H     H_    0.435415 0.978121 0.870998 0.188305
H45   H     H_    0.930800 0.503049 0.263371 0.204320
H46   H     H_    0.069200 0.503050 0.736629 0.204320
H47   H     H_    0.430804 0.003108 0.263371 0.204322
H48   H     H_    0.569196 0.003109 0.736629 0.204322
O1    O     O_R   0.939010 0.534400 0.560970 -0.621658
O2    O     O_R   0.060990 0.534400 0.439030 -0.621659
O3    O     O_R   0.439010 0.034400 0.560970 -0.621646
O4    O     O_R   0.560990 0.034400 0.439030 -0.621646
O5    O     O_R   0.560960 0.500010 0.886780 -0.619699
O6    O     O_R   0.439040 0.500010 0.113220 -0.619701
O7    O     O_R   0.060960 0.000010 0.886780 -0.619737
O8    O     O_R   0.939040 0.000010 0.113220 -0.619737
O9    O     O_R   0.560970 0.499940 0.991330 -0.604377
O10   O     O_R   0.439030 0.499940 0.008670 -0.604378
O11   O     O_R   0.060970 0.999940 0.991330 -0.604273
O12   O     O_R   0.939030 0.999940 0.008670 -0.604272
O13   O     O_R   0.500000 0.561000 0.947810 -0.614386
O14   O     O_R   0.500000 0.561000 0.052190 -0.614386
O15   O     O_R   1.000000 0.061000 0.947810 -0.614131
O16   O     O_R   0.000000 0.061000 0.052190 -0.614131
O17   O     O_R   0.938970 0.465540 0.561010 -0.603395
O18   O     O_R   0.061030 0.465540 0.438990 -0.603395
O19   O     O_R   0.438970 0.965540 0.561010 -0.603426
O20   O     O_R   0.561030 0.965540 0.438990 -0.603426
O21   O     O_R   0.999990 0.534400 0.407410 -0.637531
O22   O     O_R   0.000010 0.534400 0.592590 -0.637531
O23   O     O_R   0.499990 0.034400 0.407410 -0.637536
O24   O     O_R   0.500010 0.034400 0.592590 -0.637536
O25   O     O_R   0.999950 0.465540 0.407450 -0.614240
O26   O     O_R   0.000050 0.465540 0.592550 -0.614239
O27   O     O_R   0.499950 0.965540 0.407450 -0.614253
O28   O     O_R   0.500050 0.965540 0.592550 -0.614253
O29   O     O_R   0.965540 0.560940 0.034450 -0.606733
O30   O     O_R   0.034460 0.560940 0.965550 -0.606733
O31   O     O_R   0.465540 0.060940 0.034450 -0.606786
O32   O     O_R   0.534460 0.060940 0.965550 -0.606787
O33   O     O_R   0.965550 0.499950 0.127040 -0.630207
O34   O     O_R   0.034450 0.499950 0.872960 -0.630206
O35   O     O_R   0.465550 0.999950 0.127040 -0.630231
O36   O     O_R   0.534450 0.999950 0.872960 -0.630231
O37   O     O_R   0.034410 0.500000 0.058200 -0.622299
O38   O     O_R   0.965590 0.500000 0.941800 -0.622299
O39   O     O_R   0.534410 0.000000 0.058200 -0.622261
O40   O     O_R   0.465590 0.000000 0.941800 -0.622261
O41   O     O_R   0.965550 0.438960 0.034430 -0.617991
O42   O     O_R   0.034450 0.438960 0.965570 -0.617991
O43   O     O_R   0.465550 0.938960 0.034430 -0.617873
O44   O     O_R   0.534450 0.938960 0.965570 -0.617874
O45   O     O_R   0.499940 0.439020 0.947690 -0.614040
O46   O     O_R   0.500060 0.439020 0.052310 -0.614040
O47   O     O_R   0.999940 0.939020 0.947690 -0.614063
O48   O     O_R   0.000060 0.939020 0.052310 -0.614062
Zn1   Zn    Zn3+2 1.000000 0.545950 0.500000 0.973589
Zn2   Zn    Zn3+2 0.500000 0.045950 0.500000 0.973596
Zn3   Zn    Zn3+2 1.000000 0.454000 0.500000 1.022399
Zn4   Zn    Zn3+2 0.500000 0.954000 0.500000 1.022050
Zn5   Zn    Zn3+2 0.954000 0.499940 0.045990 0.979611
Zn6   Zn    Zn3+2 0.046000 0.499940 0.954010 0.979611
Zn7   Zn    Zn3+2 0.454000 0.999940 0.045990 0.979740
Zn8   Zn    Zn3+2 0.546000 0.999940 0.954010 0.979738
Zn9   Zn    Zn3+2 0.499970 0.500020 0.930220 0.976648
Zn10  Zn    Zn3+2 0.500030 0.500020 0.069780 0.976648
Zn11  Zn    Zn3+2 0.999970 0.000020 0.930220 0.976904
Zn12  Zn    Zn3+2 0.000030 0.000020 0.069780 0.976904
O49   O     O_3   0.706608 0.444448 0.869290 -0.602033
C137  C     C_3   0.705608 0.404388 0.843309 0.082170
H49   H     H_    0.737503 0.390692 0.809283 0.142406
H50   H     H_    0.692152 0.405454 0.809201 0.136048
C138  C     C_3   0.678267 0.376067 0.910098 -0.779772
H51   H     H_    0.646039 0.388702 0.944674 0.257523
H52   H     H_    0.677281 0.344400 0.890367 0.204013
H53   H     H_    0.691072 0.373829 0.944925 0.259618
O50   O     O_3   0.293391 0.444451 0.130705 -0.602032
C139  C     C_3   0.294395 0.404392 0.156682 0.082168
H54   H     H_    0.262501 0.390694 0.190713 0.142405
H55   H     H_    0.307856 0.405458 0.190783 0.136049
C140  C     C_3   0.321735 0.376072 0.089890 -0.779772
H56   H     H_    0.353962 0.388709 0.055309 0.257525
H57   H     H_    0.322723 0.344405 0.109618 0.204013
H58   H     H_    0.308926 0.373833 0.055070 0.259617
O51   O     O_3   0.206608 0.944490 0.869358 -0.602022
C141  C     C_3   0.205612 0.904413 0.843430 0.082337
H59   H     H_    0.237507 0.890717 0.809426 0.142373
H60   H     H_    0.192157 0.905448 0.809317 0.136129
C142  C     C_3   0.178269 0.876116 0.910256 -0.779914
H61   H     H_    0.146041 0.888751 0.944811 0.257492
H62   H     H_    0.177286 0.844436 0.890567 0.204041
H63   H     H_    0.191072 0.873908 0.945090 0.259612
O52   O     O_3   0.793393 0.944517 0.130600 -0.602025
C143  C     C_3   0.794370 0.904425 0.156499 0.082337
H64   H     H_    0.762471 0.890734 0.190460 0.142379
H65   H     H_    0.807805 0.905430 0.190646 0.136124
C144  C     C_3   0.821722 0.876144 0.089652 -0.779920
H66   H     H_    0.853955 0.888773 0.055141 0.257489
H67   H     H_    0.822688 0.844452 0.109318 0.204042
H68   H     H_    0.808940 0.873968 0.054783 0.259616
C145  C     C_1   0.027957 0.293608 0.079304 0.247704
N1    N     N_1   0.039657 0.311283 0.110931 -0.210082
C146  C     C_1   0.972042 0.293608 0.920696 0.247706
N2    N     N_1   0.960342 0.311283 0.889069 -0.210082
C147  C     C_1   0.531585 0.793599 0.073406 0.247758
N3    N     N_1   0.544750 0.811272 0.102624 -0.209785
C148  C     C_1   0.468414 0.793599 0.926594 0.247757
N4    N     N_1   0.455249 0.811273 0.897377 -0.209783
O53   O     O_3   0.529252 0.706037 0.073806 -0.588395
C149  C     C_3   0.496017 0.698578 0.148735 0.106846
H69   H     H_    0.470468 0.680670 0.151686 0.138192
H70   H     H_    0.483233 0.728440 0.179845 0.139281
C150  C     C_3   0.511987 0.673059 0.187096 -0.779659
H71   H     H_    0.537182 0.690289 0.186077 0.260782
H72   H     H_    0.486146 0.667074 0.246184 0.201242
H73   H     H_    0.524392 0.642748 0.157906 0.260305
O54   O     O_3   0.470747 0.706037 0.926194 -0.588393
C151  C     C_3   0.503982 0.698579 0.851266 0.106844
H74   H     H_    0.529532 0.680672 0.848314 0.138189
H75   H     H_    0.516764 0.728440 0.820155 0.139283
C152  C     C_3   0.488013 0.673058 0.812907 -0.779657
H76   H     H_    0.462816 0.690286 0.813927 0.260784
H77   H     H_    0.513853 0.667073 0.753817 0.201241
H78   H     H_    0.475609 0.642746 0.842096 0.260304
O55   O     O_3   0.025685 0.206041 0.079462 -0.588224
C153  C     C_3   0.991064 0.198582 0.153196 0.106872
H79   H     H_    0.966331 0.180675 0.153413 0.137923
H80   H     H_    0.977669 0.228442 0.183923 0.139342
C154  C     C_3   0.005140 0.173060 0.194593 -0.779687
H81   H     H_    0.029469 0.190290 0.196321 0.260869
H82   H     H_    0.978195 0.167076 0.252784 0.201224
H83   H     H_    0.018102 0.142749 0.165800 0.260336
O56   O     O_3   0.974314 0.206041 0.920538 -0.588224
C155  C     C_3   0.008936 0.198581 0.846804 0.106871
H84   H     H_    0.033668 0.180674 0.846589 0.137924
H85   H     H_    0.022331 0.228441 0.816077 0.139341
C156  C     C_3   0.994860 0.173061 0.805407 -0.779685
H86   H     H_    0.970532 0.190291 0.803677 0.260868
H87   H     H_    0.021805 0.167076 0.747216 0.201223
H88   H     H_    0.981896 0.142750 0.834200 0.260337
C157  C     C_1   0.975597 0.574542 0.217775 0.150442
N5    N     N_1   0.949655 0.597238 0.227973 -0.196225
C158  C     C_1   0.024402 0.574542 0.782225 0.150442
N6    N     N_1   0.050345 0.597238 0.772027 -0.196226
C159  C     C_1   0.475658 0.074565 0.217717 0.150693
N7    N     N_1   0.449733 0.097282 0.227897 -0.196785
C160  C     C_1   0.524341 0.074565 0.782284 0.150692
N8    N     N_1   0.550265 0.097283 0.772103 -0.196785
C161  C     C_1   0.048323 0.562475 0.140020 0.131667
N9    N     N_1   0.079181 0.575832 0.089447 -0.199940
C162  C     C_1   0.951676 0.562474 0.859980 0.131667
N10   N     N_1   0.920819 0.575832 0.910553 -0.199940
C163  C     C_1   0.548375 0.062441 0.139972 0.132026
N11   N     N_1   0.579243 0.075775 0.089389 -0.199676
C164  C     C_1   0.451624 0.062440 0.860029 0.132028
N12   N     N_1   0.420756 0.075773 0.910611 -0.199676
O57   O     O_3   0.071222 0.470712 0.248502 -0.610881
C165  C     C_3   0.105716 0.488221 0.182712 0.109366
H89   H     H_    0.097600 0.517530 0.166712 0.153257
H90   H     H_    0.118935 0.465159 0.136352 0.157644
C166  C     C_3   0.139306 0.498593 0.196173 -0.805759
H91   H     H_    0.148176 0.470150 0.213449 0.259231
H92   H     H_    0.167336 0.511020 0.144050 0.216149
H93   H     H_    0.127556 0.522524 0.240816 0.249874
O58   O     O_3   0.928778 0.470712 0.751498 -0.610881
C167  C     C_3   0.894284 0.488221 0.817288 0.109368
H94   H     H_    0.902400 0.517529 0.833288 0.153256
H95   H     H_    0.881065 0.465158 0.863648 0.157644
C168  C     C_3   0.860694 0.498592 0.803828 -0.805756
H96   H     H_    0.851823 0.470149 0.786551 0.259231
H97   H     H_    0.832664 0.511018 0.855950 0.216147
H98   H     H_    0.872444 0.522523 0.759184 0.249873
O59   O     O_3   0.571203 0.970659 0.248516 -0.610898
C169  C     C_3   0.605710 0.988141 0.182710 0.109392
H99   H     H_    0.597616 0.017455 0.166687 0.153234
H100  H     H_    0.618910 0.965068 0.136370 0.157740
C170  C     C_3   0.639308 0.998488 0.196162 -0.805781
H101  H     H_    0.648152 0.970040 0.213474 0.259210
H102  H     H_    0.667350 0.010886 0.144026 0.216192
H103  H     H_    0.627579 0.022434 0.240778 0.249857
O60   O     O_3   0.428797 0.970658 0.751484 -0.610897
C171  C     C_3   0.394290 0.988139 0.817290 0.109390
H104  H     H_    0.402383 0.017453 0.833314 0.153233
H105  H     H_    0.381090 0.965066 0.863630 0.157742
C172  C     C_3   0.360691 0.998486 0.803839 -0.805769
H106  H     H_    0.351848 0.970038 0.786527 0.259216
H107  H     H_    0.332650 0.010884 0.855975 0.216190
H108  H     H_    0.372420 0.022431 0.759223 0.249855
C173  C     C_1   0.941233 0.446197 0.370003 0.136042
N13   N     N_1   0.930388 0.414319 0.400185 -0.188555
C174  C     C_1   0.058767 0.446197 0.629997 0.136041
N14   N     N_1   0.069612 0.414319 0.599815 -0.188555
C175  C     C_1   0.441194 0.946246 0.370046 0.135776
N15   N     N_1   0.430324 0.914377 0.400256 -0.188948
C176  C     C_1   0.558806 0.946247 0.629953 0.135775
N16   N     N_1   0.569676 0.914378 0.599744 -0.188947
C177  C     C_1   0.923130 0.517614 0.383178 0.166346
N17   N     N_1   0.898179 0.541533 0.423718 -0.201930
C178  C     C_1   0.076870 0.517615 0.616822 0.166346
N18   N     N_1   0.101821 0.541533 0.576282 -0.201931
C179  C     C_1   0.423148 0.017678 0.383165 0.166436
N19   N     N_1   0.398216 0.041616 0.423687 -0.202012
C180  C     C_1   0.576852 0.017679 0.616836 0.166436
N20   N     N_1   0.601784 0.041617 0.576313 -0.202014

loop_
_geom_bond_atom_site_label_1
_geom_bond_atom_site_label_2
_ccdc_geom_bond_type
C15   C75   S    
O11   Zn12  S    
O60   C171  S    
C24   H48   S    
O41   Zn5   S    
O9    Zn10  S    
C88   O12   A    
O1    Zn1   S    
C2    O18   A    
C42   C58   S    
C166  H91   S    
O57   C165  S    
O14   Zn10  S    
C89   O14   A    
C84   C112  S    
O22   Zn1   S    
C49   H17   S    
C26   C50   A    
C45   O25   A    
C85   O5    A    
C29   C33   A    
C6    C178  S    
C144  H68   S    
C171  C172  S    
O35   Zn7   S    
C139  H55   S    
C94   H36   S    
C48   O28   A    
C92   H34   S    
C91   C100  A    
C8    C176  S    
O2    Zn1   S    
O49   C137  S    
C23   H7    S    
C134  O58   S    
C41   C49   A    
C170  H102  S    
C25   C29   A    
C134  H10   S    
C172  H108  S    
C155  H85   S    
C116  C121  A    
C27   C31   A    
C160  N8    T    
C28   C32   A    
O55   C153  S    
C91   H33   S    
C167  H94   S    
C94   C97   A    
C46   O26   A    
C76   O40   A    
C78   C120  S    
O25   Zn3   S    
C78   C82   T    
C75   O35   A    
C16   C20   S    
C115  C118  A    
C48   O24   A    
C13   C21   S    
O26   Zn3   S    
C168  H98   S    
C94   C96   A    
C13   C73   S    
C96   C104  S    
O5    Zn9   S    
C135  O59   S    
C143  H65   S    
C133  H9    S    
O34   Zn6   S    
C19   H43   S    
C166  H93   S    
C14   C130  S    
C17   H41   S    
C74   O38   A    
C149  C150  S    
C121  C146  S    
C167  C168  S    
C3    O3    A    
C39   C43   A    
C178  N18   T    
C57   C61   T    
C12   C128  S    
C83   O46   A    
C1    O1    A    
C71   O30   A    
C59   C63   T    
C73   O37   A    
C60   C64   T    
C4    O4    A    
C87   O11   A    
O19   Zn4   S    
O20   Zn4   S    
C173  N13   T    
C149  H70   S    
C165  C166  S    
C113  C124  A    
C116  C118  A    
C80   O43   A    
C169  H99   S    
C84   O48   A    
C127  C131  S    
C41   C57   S    
C125  C129  S    
C72   O31   A    
C5    C21   S    
C130  C158  S    
C114  O54   S    
C159  N7    T    
O36   Zn8   S    
C18   H14   S    
C9    C133  S    
O59   C169  S    
C47   O27   A    
C23   H47   S    
C105  C107  T    
C51   H19   S    
C138  H51   S    
C14   C74   S    
O30   Zn6   S    
C24   H8    S    
O44   Zn8   S    
O50   C139  S    
C131  C163  S    
C156  H87   S    
C97   H30   S    
C140  H56   S    
C70   C110  T    
C72   C108  S    
C154  H82   S    
C19   H15   S    
C53   C65   T    
O16   Zn12  S    
C43   C59   S    
C113  O53   S    
C116  O56   S    
C44   C52   A    
C145  N1    T    
C152  H77   S    
C22   H6    S    
C5    C173  S    
O28   Zn4   S    
C27   C51   A    
C119  C121  A    
C153  H80   S    
C86   O6    A    
C30   C34   A    
O12   Zn11  S    
O32   Zn8   S    
C80   C82   S    
C104  C112  T    
C165  H89   S    
C132  C164  S    
C90   O15   A    
C139  C140  S    
C56   C68   T    
C9    C125  S    
C11   C127  S    
C5    C9    S    
O54   C151  S    
O46   Zn10  S    
C8    C12   S    
C74   O34   A    
C150  H71   S    
C20   C136  S    
C171  H105  S    
C142  H62   S    
C136  H12   S    
C42   C50   A    
C113  C117  A    
C114  C123  A    
C26   C30   A    
C135  H11   S    
O33   Zn5   S    
C46   O22   A    
C137  H49   S    
C138  H53   S    
C16   C76   S    
C26   O50   S    
C126  H38   S    
C66   C86   S    
C141  H59   S    
C54   C66   T    
C89   O13   A    
O38   Zn5   S    
C13   C17   S    
C140  H58   S    
C14   C22   S    
C128  H4    S    
C22   H46   S    
C86   O10   A    
C106  C108  T    
C70   C118  S    
C7    C23   S    
C8    C24   S    
C18   C134  S    
C37   C41   A    
C114  C117  A    
C91   C95   A    
C40   C44   A    
C15   C131  S    
C18   H42   S    
C12   C136  S    
C148  N4    T    
C13   C129  S    
C10   C126  S    
C92   C99   A    
C25   O49   S    
C137  C138  S    
C58   C62   T    
C9    C45   S    
O10   Zn9   S    
C71   C107  S    
C3    O19   A    
C11   C47   S    
C12   C48   S    
C1    O17   A    
C141  C142  S    
C170  H101  S    
C17   C133  S    
O15   Zn11  S    
C180  N20   T    
C15   C19   S    
C172  H107  S    
O13   Zn9   S    
C100  H31   S    
O42   Zn6   S    
C151  H74   S    
C167  H95   S    
C126  C130  S    
C19   C135  S    
C176  N16   T    
C6    C22   S    
C150  H73   S    
C103  C111  T    
C152  H76   S    
O18   Zn3   S    
C146  N2    T    
C8    C180  S    
C168  H97   S    
C79   O42   A    
C120  C123  A    
C7    C175  S    
O52   C143  S    
C143  C144  S    
C166  H92   S    
C33   H21   S    
C127  H39   S    
C128  H40   S    
C151  C152  S    
C124  C147  S    
C83   O45   A    
C169  C170  S    
C125  H1    S    
O56   C155  S    
C33   C37   A    
C20   H16   S    
C7    C11   S    
C164  N12   T    
O53   C149  S    
C11   C135  S    
C30   C54   S    
C136  O60   S    
C77   C81   T    
O43   Zn7   S    
C80   O44   A    
C169  H100  S    
C72   O32   A    
O6    Zn10  S    
C83   C111  S    
C39   H27   S    
C32   C36   A    
C170  H103  S    
O4    Zn2   S    
C37   H25   S    
C99   H32   S    
C88   O8    A    
C155  H84   S    
C93   H35   S    
C45   O21   A    
C28   O52   S    
O48   Zn12  S    
C129  C161  S    
C1    C61   S    
C6    C10   S    
C76   O36   A    
C40   H28   S    
C3    C63   S    
C98   C101  A    
C4    C64   S    
O37   Zn6   S    
O7    Zn11  S    
C21   H5    S    
C162  N10   T    
C71   O29   A    
C43   C51   A    
C156  H86   S    
O51   C141  S    
C44   C60   S    
C161  N9    T    
C16   C132  S    
C25   C49   A    
O3    Zn2   S    
O17   Zn3   S    
C158  N6    T    
C99   C102  A    
C154  H81   S    
C143  H64   S    
C31   C55   S    
C32   C56   S    
C155  C156  S    
C129  C157  S    
C132  C160  S    
O8    Zn12  S    
C163  N11   T    
C14   C18   S    
C35   C39   A    
C174  N14   T    
C125  H37   S    
C20   H44   S    
O58   C167  S    
C21   H45   S    
C153  C154  S    
C139  H54   S    
C50   H18   S    
C38   C42   A    
O29   Zn5   S    
O39   Zn8   S    
C149  H69   S    
C165  H90   S    
C4    O20   A    
C90   O16   A    
C27   O51   S    
C89   C109  S    
O45   Zn9   S    
O27   Zn4   S    
C84   O47   A    
C144  H67   S    
C69   C109  T    
C95   C103  S    
C10   C46   S    
C142  H61   S    
C15   C23   S    
C75   O39   A    
C16   C24   S    
C115  C122  A    
C171  H104  S    
C127  H3    S    
C128  C132  S    
C142  H63   S    
C101  C105  S    
C137  H50   S    
C138  H52   S    
C36   C40   A    
C79   C81   S    
C156  H88   S    
C141  H60   S    
C147  N3    T    
C92   C95   A    
C140  H57   S    
O47   Zn11  S    
C2    O2    A    
C6    C174  S    
C87   O7    A    
C154  H83   S    
C100  C102  A    
C144  H66   S    
C73   O33   A    
C115  O55   S    
C179  N19   T    
C131  C159  S    
C34   H22   S    
C93   C96   A    
C68   C88   S    
C152  H78   S    
C90   C110  S    
C122  C145  S    
O24   Zn2   S    
C175  N15   T    
C119  C122  A    
C153  H79   S    
C126  H2    S    
C34   C38   A    
C17   H13   S    
C10   C134  S    
C77   C119  S    
C55   C67   T    
C65   C85   S    
C52   H20   S    
C172  H106  S    
C67   C87   S    
C47   O23   A    
O21   Zn1   S    
C123  C148  S    
C177  N17   T    
C151  H75   S    
C28   C52   A    
C85   O9    A    
C29   C53   S    
C7    C179  S    
C69   C117  S    
C150  H72   S    
C102  C106  S    
C31   C35   A    
C157  N5    T    
O40   Zn7   S    
C35   H23   S    
C98   H29   S    
C36   H24   S    
C133  O57   S    
C130  C162  S    
C2    C62   S    
C38   H26   S    
O31   Zn7   S    
C5    C177  S    
C168  H96   S    
C93   C98   A    
C79   O41   A    
C97   C101  A    
C120  C124  A    
O23   Zn2   S    
