data_mof_unit_66574.cif
_audit_creation_date              2012-12-10T19:24:08-0500
_audit_creation_method            fapswitch 2.2
_symmetry_space_group_name_H-M    P1
_symmetry_Int_Tables_number       1
_space_group_crystal_system       triclinic
_cell_length_a                    10.47875
_cell_length_b                    10.495621
_cell_length_c                    9.81171
_cell_angle_alpha                 90.784792
_cell_angle_beta                  90.501265
_cell_angle_gamma                 89.996956
_cell_volume                      1078.95904425

loop_
_atom_site_label
_atom_site_type_symbol
_atom_type_description
_atom_site_fract_x
_atom_site_fract_y
_atom_site_fract_z
_atom_type_partial_charge
C1    C     C_R   0.500629 0.258117 0.499006 0.999228
C2    C     C_R   0.499869 0.741875 0.501024 0.969975
C3    C     C_3   0.493407 0.962014 0.632976 -0.407876
C4    C     C_3   0.508005 0.038196 0.367067 -0.381632
C5    C     C_3   0.458220 0.393979 0.045435 0.482693
C6    C     C_3   0.542142 0.605835 0.954550 0.473138
C7    C     C_3   0.571398 0.411631 0.952403 0.395696
C8    C     C_3   0.429043 0.588313 0.047786 0.462065
C9    C     C_3   0.384351 0.482661 0.949435 -0.434411
C10   C     C_3   0.615690 0.517665 0.051222 -0.426339
C11   C     C_R   0.257926 0.499400 0.499260 0.945524
C12   C     C_R   0.742100 0.500536 0.500717 0.926734
C13   C     C_3   0.042924 0.396492 0.568149 -0.276232
C14   C     C_3   0.957169 0.603284 0.431551 -0.294248
C15   C     C_3   0.957215 0.395367 0.440553 0.502049
C16   C     C_3   0.042900 0.604429 0.559176 0.503470
C17   C     C_3   0.876947 0.501448 0.502287 -0.076097
C18   C     C_3   0.123126 0.498342 0.497529 -0.077262
C19   C     C_3   0.961253 0.505231 0.631533 -0.269158
C20   C     C_3   0.038915 0.494579 0.368222 -0.266763
C21   C     C_3   0.600452 0.042792 0.570330 0.455446
C22   C     C_3   0.400897 0.957279 0.429514 0.407215
C23   C     C_3   0.607029 0.956796 0.444100 0.360144
C24   C     C_3   0.394303 0.043121 0.555841 0.352444
C25   C     C_3   0.500135 0.876259 0.503496 -0.220052
C26   C     C_3   0.501138 0.123714 0.496599 -0.162200
H1    H     H_    0.081724 0.311599 0.620582 0.192577
H2    H     H_    0.918367 0.688134 0.378999 0.192016
H3    H     H_    0.927061 0.511973 0.738132 0.170533
H4    H     H_    0.073727 0.487407 0.261810 0.180234
H5    H     H_    0.487273 0.929825 0.740007 0.223443
H6    H     H_    0.514119 0.070591 0.260122 0.218866
H7    H     H_    0.288304 0.470461 0.902452 0.180458
H8    H     H_    0.711804 0.529084 0.098211 0.177576
N1    N     N_3   0.499910 0.500030 0.863290 -0.139476
N2    N     N_3   0.500090 0.499970 0.136710 -0.123166
O1    O     O_R   0.500010 0.313960 0.616610 -0.561106
O2    O     O_R   0.499990 0.686040 0.383390 -0.572650
O3    O     O_R   0.500060 0.313950 0.383350 -0.593720
O4    O     O_R   0.499940 0.686050 0.616650 -0.609663
O5    O     O_R   0.313930 0.499970 0.616610 -0.613703
O6    O     O_R   0.686070 0.500030 0.383390 -0.618692
O7    O     O_R   0.313980 0.499960 0.383350 -0.596125
O8    O     O_R   0.686020 0.500040 0.616650 -0.621340
Zn1   Zn    Zn3+2 0.499970 0.500010 0.655740 1.031845
Zn2   Zn    Zn3+2 0.500030 0.499990 0.344260 1.051818
O9    O     O_3   0.905310 0.286017 0.378847 -0.721922
H9    H     H_    0.979595 0.235562 0.347183 0.333144
O10   O     O_3   0.095076 0.713616 0.620910 -0.747242
H10   H     H_    0.021419 0.770294 0.639312 0.328539
O11   O     O_3   0.720421 0.907940 0.390423 -0.754824
H11   H     H_    0.695088 0.861665 0.305712 0.335745
O12   O     O_3   0.282276 0.093954 0.610495 -0.788824
H12   H     H_    0.232318 0.019423 0.640622 0.361806
O13   O     O_3   0.706023 0.093262 0.640486 -0.682832
H13   H     H_    0.750012 0.018933 0.680751 0.333371
O14   O     O_3   0.295318 0.906925 0.359299 -0.691066
H14   H     H_    0.251134 0.981394 0.319578 0.337369
O15   O     O_3   0.646569 0.315063 0.895344 -0.700458
H15   H     H_    0.683191 0.268748 0.973870 0.337045
O16   O     O_3   0.354167 0.685118 0.104877 -0.691182
H16   H     H_    0.315199 0.729669 0.026410 0.334814
O17   O     O_3   0.420865 0.277621 0.103485 -0.633006
C27   C     C_3   0.350977 0.202192 0.008585 0.083657
H17   H     H_    0.383613 0.102037 0.018983 0.173586
H18   H     H_    0.367128 0.227618 0.899930 0.179758
C28   C     C_3   0.208767 0.208440 0.042560 -0.368661
H19   H     H_    0.194057 0.172311 0.147251 0.226734
H20   H     H_    0.175478 0.308877 0.040028 0.220728
C29   C     C_3   0.129135 0.129037 0.941975 -0.899309
H21   H     H_    0.137124 0.168162 0.837836 0.286279
H22   H     H_    0.027314 0.131944 0.972307 0.273377
H23   H     H_    0.161713 0.028295 0.941206 0.269056
O18   O     O_3   0.574925 0.725569 0.901288 -0.637358
C30   C     C_3   0.705664 0.729558 0.867504 0.115577
H24   H     H_    0.714272 0.781741 0.770245 0.158806
H25   H     H_    0.748955 0.633813 0.849266 0.139994
C31   C     C_3   0.779997 0.802583 0.978568 -0.383150
H26   H     H_    0.737474 0.898867 0.992732 0.246355
H27   H     H_    0.773219 0.751507 0.076597 0.221129
C32   C     C_3   0.920319 0.816843 0.941485 -0.926424
H28   H     H_    0.964632 0.721806 0.924675 0.269983
H29   H     H_    0.972091 0.866479 0.025959 0.283982
H30   H     H_    0.929591 0.874175 0.847791 0.262148

loop_
_geom_bond_atom_site_label_1
_geom_bond_atom_site_label_2
_ccdc_geom_bond_type
C7    C10   S    
O13   H13   S    
C11   C18   S    
C15   O9    S    
C21   C26   S    
C22   O14   S    
C32   H28   S    
C20   H4    S    
O12   H12   S    
C13   C18   S    
C22   C24   S    
C24   C26   S    
C8    N2    S    
C31   H27   S    
C5    N2    S    
C6    N1    S    
C5    O17   S    
O6    Zn2   S    
C12   O6    A    
C8    C9    S    
C22   C25   S    
C12   C17   S    
C11   O7    A    
C29   H21   S    
C1    O1    A    
C8    O16   S    
O15   H15   S    
C9    H7    S    
C14   C17   S    
C3    C24   S    
C15   C20   S    
C30   C31   S    
C7    O15   S    
C32   H29   S    
C6    O18   S    
O4    Zn1   S    
C29   H22   S    
O18   C30   S    
C13   C19   S    
O11   H11   S    
C27   C28   S    
C14   C20   S    
C3    C25   S    
C16   O10   S    
C21   O13   S    
C4    C23   S    
C31   H26   S    
C6    C8    S    
C24   O12   S    
C28   H19   S    
C28   H20   S    
C27   H18   S    
C30   H24   S    
C5    C9    S    
C4    C22   S    
C2    O2    A    
C23   O11   S    
O9    H9    S    
C29   H23   S    
C10   H8    S    
C3    H5    S    
C30   H25   S    
C4    H6    S    
O3    Zn2   S    
C21   C23   S    
C1    C26   S    
C14   C16   S    
C3    C21   S    
O1    Zn1   S    
N1    Zn1   S    
C32   H30   S    
O8    Zn1   S    
C5    C7    S    
C15   C17   S    
C7    N1    S    
C6    C10   S    
C4    C26   S    
C28   C29   S    
C27   H17   S    
C13   C15   S    
C12   O8    A    
N2    Zn2   S    
C31   C32   S    
O14   H14   S    
C16   C19   S    
C17   C19   S    
C11   O5    A    
C2    C25   S    
C18   C20   S    
C23   C25   S    
O16   H16   S    
O7    Zn2   S    
O2    Zn2   S    
C1    O3    A    
O17   C27   S    
C2    O4    A    
C16   C18   S    
O10   H10   S    
C9    N1    S    
O5    Zn1   S    
C13   H1    S    
C10   N2    S    
C14   H2    S    
C19   H3    S    
