data_mof_unit_18367.cif
_audit_creation_date              2012-10-26T21:33:04-0400
_audit_creation_method            fapswitch 2.2
_symmetry_space_group_name_H-M    P1
_symmetry_Int_Tables_number       1
_space_group_crystal_system       triclinic
_cell_length_a                    28.582355
_cell_length_b                    18.397345
_cell_length_c                    17.00706
_cell_angle_alpha                 90.428222
_cell_angle_beta                  61.257475
_cell_angle_gamma                 90.34852
_cell_volume                      7840.86300757

loop_
_atom_site_label
_atom_site_type_symbol
_atom_type_description
_atom_site_fract_x
_atom_site_fract_y
_atom_site_fract_z
_atom_type_partial_charge
C1    C     C_R   0.706184 0.277872 0.672487 0.947696
C2    C     C_R   0.918661 0.629425 0.599517 0.287204
C3    C     C_R   0.071988 0.897953 0.935087 0.973294
C4    C     C_R   0.575792 0.597190 0.932221 0.977569
C5    C     C_R   0.427889 0.397733 0.064999 0.953918
C6    C     C_R   0.422213 0.594068 0.070424 0.977888
C7    C     C_R   0.570220 0.396066 0.936868 0.946155
C8    C     C_R   0.534733 0.004836 0.550545 -0.109775
C9    C     C_R   0.439642 0.004339 0.537692 -0.102416
C10   C     C_R   0.034279 0.507456 0.550382 -0.043036
C11   C     C_R   0.937849 0.507916 0.541063 -0.036448
C12   C     C_R   0.507828 0.070549 0.558562 0.007067
C13   C     C_R   0.953407 0.383587 0.490633 0.282278
C14   C     C_R   0.468744 0.940482 0.524697 -0.062620
C15   C     C_R   0.457284 0.068440 0.560615 0.025172
C16   C     C_R   0.512035 0.939807 0.542292 -0.055674
C17   C     C_R   0.006908 0.573467 0.560588 -0.113893
C18   C     C_R   0.968230 0.444584 0.523416 -0.056398
C19   C     C_R   0.955264 0.571743 0.565589 -0.097793
C20   C     C_R   0.011898 0.443007 0.540036 -0.056685
C21   C     C_R   0.613007 0.936903 0.533794 -0.101597
C22   C     C_R   0.366790 0.069466 0.531000 -0.103204
C23   C     C_R   0.373362 0.935849 0.513472 -0.111029
C24   C     C_R   0.031956 0.637788 0.567844 0.307534
C25   C     C_R   0.604735 0.067965 0.568123 -0.127565
C26   C     C_R   0.112667 0.438298 0.533326 -0.102849
C27   C     C_R   0.861480 0.571719 0.544581 -0.128425
C28   C     C_R   0.870729 0.438817 0.519184 -0.127173
C29   C     C_R   0.104062 0.569007 0.570294 -0.165642
C30   C     C_R   0.661853 0.937098 0.539438 -0.194945
C31   C     C_R   0.328414 0.066175 0.497459 -0.161133
C32   C     C_R   0.331818 0.936787 0.488379 -0.167783
C33   C     C_R   0.656138 0.066270 0.562529 -0.124920
C34   C     C_R   0.161549 0.437671 0.539360 -0.192377
C35   C     C_R   0.533417 0.875299 0.553132 0.298884
C36   C     C_R   0.816730 0.568113 0.527347 -0.188968
C37   C     C_R   0.823541 0.438258 0.508999 -0.151630
C38   C     C_R   0.155670 0.566788 0.564006 -0.131510
C39   C     C_R   0.679490 0.000709 0.561922 0.298766
C40   C     C_R   0.315986 0.001457 0.469528 0.285832
C41   C     C_R   0.179073 0.501030 0.562604 0.304921
C42   C     C_R   0.794481 0.501618 0.523734 0.301972
C43   C     C_R   0.583997 0.003194 0.552052 -0.080376
C44   C     C_R   0.393332 0.003510 0.526757 -0.068839
C45   C     C_R   0.083522 0.504845 0.552477 -0.085073
C46   C     C_R   0.421451 0.125675 0.593688 0.357662
C47   C     C_R   0.890003 0.506445 0.534439 -0.082990
C48   C     C_R   0.088248 0.374821 0.518324 0.476069
C49   C     C_R   0.877415 0.635357 0.576802 0.450932
C50   C     C_R   0.899580 0.374597 0.515711 0.480969
C51   C     C_R   0.072687 0.633245 0.590736 0.486618
C52   C     C_R   0.588482 0.872761 0.520309 0.480430
C53   C     C_R   0.381428 0.132796 0.567684 0.339078
C54   C     C_R   0.399926 0.871056 0.516756 0.481809
C55   C     C_R   0.573649 0.132175 0.586694 0.362343
C56   C     C_3   0.093579 0.256028 0.462278 0.142700
C57   C     C_R   0.453503 0.878597 0.494204 0.290014
C58   C     C_3   0.130241 0.202172 0.392463 -0.746514
C59   C     C_3   0.879194 0.761541 0.564389 0.246179
C60   C     C_3   0.861341 0.824061 0.631261 -0.680855
C61   C     C_3   0.901065 0.249346 0.544195 0.159016
C62   C     C_3   0.867308 0.186910 0.602298 -0.758760
C63   C     C_3   0.043491 0.699935 0.720297 0.085679
C64   C     C_3   0.032239 0.780033 0.744595 -0.665991
C65   C     C_3   0.594391 0.753978 0.464264 0.138667
C66   C     C_3   0.630426 0.701228 0.392039 -0.739342
C67   C     C_3   0.388310 0.257901 0.545304 0.147100
C68   C     C_R   0.532544 0.135515 0.563947 0.404879
C69   C     C_3   0.366907 0.327382 0.599773 -0.756266
C70   C     C_3   0.399346 0.746445 0.549225 0.156903
C71   C     C_3   0.364560 0.684547 0.606813 -0.754260
C72   C     C_3   0.542506 0.197375 0.718328 0.103318
C73   C     C_3   0.516156 0.271790 0.735509 -0.698669
C74   C     C_3   0.736990 0.118244 0.860266 0.099240
C75   C     C_3   0.750528 0.081930 0.771244 -0.769736
C76   C     C_3   0.166697 0.684074 0.229187 0.094054
C77   C     C_3   0.136080 0.687692 0.331110 -0.725912
C78   C     C_3   0.243381 0.122798 0.153877 0.097647
C79   C     C_R   0.712743 0.259834 0.963136 -0.257872
C80   C     C_3   0.218763 0.077536 0.238834 -0.788185
C81   C     C_3   0.817741 0.622557 0.839235 0.231589
C82   C     C_3   0.793520 0.569018 0.799906 -0.890038
C83   C     C_3   0.234424 0.615364 0.860595 0.094563
C84   C     C_3   0.247598 0.580007 0.771226 -0.768509
C85   C     C_3   0.668957 0.188481 0.229546 0.110251
C86   C     C_3   0.635298 0.194311 0.330957 -0.741106
C87   C     C_3   0.743430 0.623300 0.153097 0.098689
C88   C     C_3   0.718176 0.576710 0.236944 -0.792014
C89   C     C_3   0.313735 0.122470 0.823209 0.176767
C90   C     C_R   0.270259 0.719456 0.056663 -0.253904
C91   C     C_3   0.286562 0.082853 0.776683 -0.899873
C92   C     C_3   0.558887 0.237435 0.046443 0.124095
C93   C     C_3   0.522241 0.221027 0.144969 -0.777191
C94   C     C_3   0.308377 0.533560 0.069247 0.153165
C95   C     C_3   0.305334 0.478600 0.004707 -0.811674
C96   C     C_3   0.414849 0.199296 0.018401 0.155018
C97   C     C_3   0.459241 0.157639 0.942180 -0.895122
C98   C     C_3   0.671779 0.561461 0.001742 0.135616
C99   C     C_3   0.653195 0.522291 0.090231 -0.753329
C100  C     C_3   0.075649 0.719297 0.041152 0.133466
C101  C     C_R   0.285594 0.254256 0.043121 -0.263879
C102  C     C_3   0.030940 0.706134 0.135955 -0.794303
C103  C     C_3   0.800276 0.042392 0.067849 0.126228
C104  C     C_3   0.805531 0.979376 0.005718 -0.775893
C105  C     C_3   0.912186 0.697788 0.017588 0.134070
C106  C     C_3   0.958669 0.657622 0.943089 -0.894072
C107  C     C_3   0.169317 0.060645 0.004424 0.145436
C108  C     C_3   0.149871 0.022135 0.093587 -0.749296
C109  C     C_3   0.644929 0.438631 0.723167 0.161410
C110  C     C_3   0.616065 0.479724 0.681770 -0.700725
C111  C     C_3   0.436834 0.739575 0.197685 0.109791
C112  C     C_R   0.299682 0.735258 0.323634 0.938801
C113  C     C_R   0.724375 0.726857 0.952824 -0.192975
C114  C     C_3   0.477377 0.730036 0.230575 -0.724394
C115  C     C_3   0.336910 0.454556 0.286042 0.141652
C116  C     C_3   0.355792 0.500709 0.339938 -0.737819
C117  C     C_3   0.564070 0.735418 0.803066 0.119498
C118  C     C_3   0.524608 0.724755 0.767902 -0.738078
C119  C     C_3   0.171104 0.955709 0.726804 0.122707
C120  C     C_3   0.159601 0.008814 0.670277 -0.721899
C121  C     C_3   0.937583 0.238778 0.197495 0.109192
C122  C     C_3   0.978832 0.227724 0.228555 -0.724358
C123  C     C_3   0.835900 0.956481 0.283136 0.134380
C124  C     C_R   0.211649 0.756095 0.963733 -0.266919
C125  C     C_3   0.854077 0.004365 0.336624 -0.735753
C126  C     C_3   0.064231 0.237178 0.803908 0.115565
C127  C     C_3   0.025516 0.228330 0.766919 -0.737670
C128  C     C_3   0.786137 0.362738 0.769672 0.157740
C129  C     C_3   0.837639 0.361779 0.775572 -0.768958
C130  C     C_3   0.300616 0.872282 0.173868 0.164760
C131  C     C_3   0.300460 0.903766 0.091336 -0.909285
C132  C     C_3   0.213367 0.376046 0.252978 0.137455
C133  C     C_3   0.163578 0.391292 0.244950 -0.763922
C134  C     C_3   0.721994 0.862878 0.830215 0.079559
C135  C     C_R   0.771330 0.222563 0.056037 -0.264309
C136  C     C_3   0.764352 0.909003 0.836563 -0.849066
C137  C     C_3   0.287196 0.861082 0.770707 0.152198
C138  C     C_3   0.338252 0.860818 0.777891 -0.773873
C139  C     C_3   0.803086 0.373903 0.172597 0.157177
C140  C     C_3   0.804507 0.404398 0.088356 -0.908222
C141  C     C_3   0.712682 0.874829 0.251967 0.139843
C142  C     C_3   0.662655 0.888394 0.244048 -0.763069
C143  C     C_3   0.228759 0.360090 0.827113 0.093320
C144  C     C_3   0.276033 0.406302 0.814791 -0.820363
C145  C     C_R   0.785200 0.754942 0.043362 -0.187839
C146  C     C_R   0.224684 0.224139 0.953257 -0.249857
C147  C     C_R   0.757755 0.212817 0.924552 0.433281
C148  C     C_R   0.217693 0.748157 0.102812 0.441351
C149  C     C_R   0.233237 0.224405 0.088116 0.472451
C150  C     C_R   0.780573 0.730478 0.905351 0.352351
C151  C     C_R   0.256362 0.708595 0.925576 0.438035
C152  C     C_R   0.291326 0.282355 0.330615 0.971174
C153  C     C_R   0.718990 0.252090 0.102036 0.439601
C154  C     C_R   0.732857 0.724978 0.087728 0.444347
C155  C     C_R   0.280876 0.226290 0.905866 0.464219
C156  C     C_R   0.791655 0.208155 0.962806 0.320939
C157  C     C_R   0.194541 0.778808 0.053956 0.304158
C158  C     C_R   0.200562 0.228984 0.048089 0.318443
C159  C     C_R   0.809017 0.758745 0.948131 0.258520
C160  C     C_R   0.290474 0.704717 0.963478 0.330877
C161  C     C_R   0.696107 0.283078 0.052998 0.322049
C162  C     C_R   0.700213 0.730417 0.047687 0.319717
C163  C     C_R   0.701316 0.733217 0.676522 0.938711
C164  C     C_R   0.309286 0.255610 0.947347 0.264630
C165  C     C_R   0.630636 0.304183 0.949615 0.320352
C166  C     C_R   0.339086 0.645649 0.079025 0.309451
C167  C     C_R   0.366635 0.302490 0.059113 0.332134
C168  C     C_R   0.652310 0.657156 0.937159 0.301003
C169  C     C_R   0.131445 0.804725 0.946951 0.311655
C170  C     C_R   0.839582 0.147102 0.078514 0.315828
C171  C     C_R   0.866319 0.803214 0.059016 0.430155
C172  C     C_R   0.151838 0.157279 0.937995 0.307685
C173  C     C_R   0.612502 0.343166 0.897644 -0.325575
C174  C     C_R   0.207124 0.779330 0.671668 0.951059
C175  C     C_R   0.376725 0.642389 0.111197 -0.331112
C176  C     C_R   0.382833 0.349349 0.108150 -0.304848
C177  C     C_R   0.620200 0.647173 0.895043 -0.322516
C178  C     C_R   0.115869 0.847898 0.894664 -0.309846
C179  C     C_R   0.877046 0.143145 0.110908 -0.321990
C180  C     C_R   0.882413 0.849923 0.108250 -0.337151
C181  C     C_R   0.119893 0.147561 0.895569 -0.320254
C182  C     C_R   0.639321 0.338162 0.805378 0.291854
C183  C     C_R   0.369782 0.684104 0.184123 0.300638
C184  C     C_R   0.353379 0.351893 0.200957 0.301115
C185  C     C_R   0.799823 0.235544 0.323645 0.934243
C186  C     C_R   0.631537 0.682786 0.816380 0.273741
C187  C     C_R   0.146196 0.848619 0.802220 0.284666
C188  C     C_R   0.870115 0.184512 0.184110 0.296597
C189  C     C_R   0.852941 0.852294 0.201029 0.303376
C190  C     C_R   0.131392 0.183317 0.816909 0.281671
C191  C     C_R   0.686032 0.299598 0.765283 -0.350721
C192  C     C_R   0.324239 0.725607 0.226474 -0.366393
C193  C     C_R   0.309057 0.308411 0.240525 -0.366917
C194  C     C_R   0.678612 0.721562 0.773141 -0.334099
C195  C     C_R   0.188695 0.802429 0.763724 -0.347013
C196  C     C_R   0.791252 0.782449 0.330705 0.978845
C197  C     C_R   0.824759 0.226403 0.226378 -0.365112
C198  C     C_R   0.808891 0.808356 0.240616 -0.367913
C199  C     C_R   0.178813 0.221324 0.773309 -0.337724
C200  C     C_R   0.714031 0.288015 0.813706 0.411223
C201  C     C_R   0.298066 0.747780 0.177708 0.433263
C202  C     C_R   0.281605 0.293842 0.192088 0.413949
C203  C     C_R   0.705972 0.742656 0.821171 0.447463
C204  C     C_R   0.215363 0.786081 0.813057 0.426699
C205  C     C_R   0.799082 0.249488 0.177268 0.439404
C206  C     C_R   0.781395 0.793406 0.192397 0.387172
C207  C     C_R   0.201465 0.232863 0.676531 0.951097
C208  C     C_R   0.206470 0.241934 0.821105 0.425815
C209  C     C_R   0.685338 0.283896 0.909175 -0.079535
C210  C     C_R   0.302743 0.704567 0.104642 -0.066577
C211  C     C_R   0.311706 0.282974 0.097549 -0.077489
C212  C     C_R   0.693314 0.709439 0.903923 -0.072092
C213  C     C_R   0.185583 0.781684 0.908351 -0.097116
C214  C     C_R   0.803542 0.206565 0.104150 -0.079419
C215  C     C_R   0.811379 0.783143 0.097795 -0.081301
C216  C     C_R   0.193310 0.208793 0.904407 -0.061388
C217  C     C_R   0.690990 0.130322 0.538054 0.933744
C218  C     C_R   0.033256 0.377841 0.549485 0.287771
C219  C     C_R   0.305048 0.871890 0.478890 0.907712
C220  C     C_R   0.302223 0.128950 0.486762 0.976615
C221  C     C_R   0.693747 0.871948 0.526682 0.896892
C222  C     C_R   0.190821 0.630564 0.538769 0.926784
C223  C     C_R   0.802513 0.372426 0.486053 0.905262
C224  C     C_R   0.795490 0.631630 0.503942 0.948970
C225  C     C_R   0.193693 0.372159 0.526442 0.893323
C226  C     C_R   0.075564 0.097505 0.932466 0.972085
C227  C     C_R   0.927655 0.898009 0.065189 0.967021
C228  C     C_R   0.922188 0.094110 0.070450 0.980739
H1    H     H_    0.753689 0.998488 0.527180 0.351385
H2    H     H_    0.875324 0.779534 0.505833 0.129719
H3    H     H_    0.243723 0.074323 0.823424 0.204254
H4    H     H_    0.579433 0.186180 0.012187 0.114157
H5    H     H_    0.533675 0.256637 0.017244 0.116432
H6    H     H_    0.500459 0.270978 0.180510 0.269676
H7    H     H_    0.492779 0.178645 0.151428 0.189074
H8    H     H_    0.545965 0.201099 0.176388 0.253361
H9    H     H_    0.266982 0.550606 0.117848 0.095868
H10   H     H_    0.326883 0.506450 0.105667 0.097894
H11   H     H_    0.346140 0.460961 0.955040 0.267178
H12   H     H_    0.281784 0.430377 0.041930 0.189489
H13   H     H_    0.922783 0.753987 0.537879 0.110525
H14   H     H_    0.285852 0.503669 0.968807 0.247621
H15   H     H_    0.378580 0.164226 0.046935 0.128262
H16   H     H_    0.427261 0.209367 0.070517 0.120441
H17   H     H_    0.496573 0.190109 0.914053 0.236065
H18   H     H_    0.466095 0.105466 0.967408 0.204531
H19   H     H_    0.447703 0.145789 0.889757 0.271079
H20   H     H_    0.713522 0.578798 0.978002 0.126522
H21   H     H_    0.669816 0.523186 0.952273 0.110861
H22   H     H_    0.615519 0.492350 0.108467 0.265374
H23   H     H_    0.684421 0.483877 0.084670 0.195708
H24   H     H_    0.858248 0.806102 0.695712 0.307009
H25   H     H_    0.645929 0.562132 0.144225 0.282859
H26   H     H_    0.107914 0.679230 0.026384 0.115897
H27   H     H_    0.059256 0.710427 0.994086 0.109946
H28   H     H_    0.997808 0.744890 0.152286 0.260776
H29   H     H_    0.015516 0.649800 0.141547 0.186912
H30   H     H_    0.046082 0.713625 0.184647 0.264930
H31   H     H_    0.759958 0.066573 0.093170 0.109279
H32   H     H_    0.804285 0.020433 0.125184 0.084802
H33   H     H_    0.844399 0.951697 0.982668 0.283241
H34   H     H_    0.772875 0.939451 0.041501 0.188669
H35   H     H_    0.822254 0.844576 0.642361 0.262249
H36   H     H_    0.803219 0.999847 0.946461 0.261626
H37   H     H_    0.875949 0.663471 0.038858 0.122489
H38   H     H_    0.920783 0.704094 0.074727 0.120568
H39   H     H_    0.995826 0.689839 0.920653 0.241542
H40   H     H_    0.963908 0.604302 0.967994 0.204569
H41   H     H_    0.950428 0.647968 0.886480 0.254252
H42   H     H_    0.211493 0.076038 0.980308 0.111992
H43   H     H_    0.166296 0.022428 0.955881 0.106404
H44   H     H_    0.111337 0.994239 0.112692 0.263378
H45   H     H_    0.179969 0.981858 0.088349 0.193404
H46   H     H_    0.890644 0.869327 0.604248 0.155289
H47   H     H_    0.144044 0.062067 0.146785 0.279744
H48   H     H_    0.687226 0.430350 0.672315 0.146940
H49   H     H_    0.644020 0.472682 0.778407 0.106428
H50   H     H_    0.572503 0.480815 0.728850 0.252689
H51   H     H_    0.630468 0.536742 0.667646 0.215871
H52   H     H_    0.623086 0.452681 0.618435 0.234763
H53   H     H_    0.412800 0.789042 0.230272 0.125591
H54   H     H_    0.459068 0.747385 0.123583 0.108441
H55   H     H_    0.502563 0.681627 0.198102 0.266759
H56   H     H_    0.503443 0.778840 0.213550 0.205102
H57   H     H_    0.935896 0.252716 0.555921 0.199747
H58   H     H_    0.456502 0.722789 0.304464 0.250195
H59   H     H_    0.294515 0.439130 0.330903 0.089189
H60   H     H_    0.339452 0.488320 0.230125 0.101855
H61   H     H_    0.397738 0.518244 0.296604 0.271360
H62   H     H_    0.330254 0.549683 0.366349 0.217360
H63   H     H_    0.353266 0.468922 0.397132 0.226296
H64   H     H_    0.587110 0.786247 0.773578 0.123089
H65   H     H_    0.540926 0.741358 0.877457 0.107180
H66   H     H_    0.500170 0.675232 0.797805 0.257842
H67   H     H_    0.497744 0.772518 0.785958 0.203459
H68   H     H_    0.914210 0.235733 0.472731 0.164770
H69   H     H_    0.546375 0.718775 0.693819 0.256622
H70   H     H_    0.213381 0.937862 0.686743 0.098642
H71   H     H_    0.165965 0.984819 0.788194 0.108300
H72   H     H_    0.118047 0.029121 0.708713 0.283018
H73   H     H_    0.187606 0.055566 0.651696 0.203817
H74   H     H_    0.164844 0.981481 0.608133 0.229871
H75   H     H_    0.914066 0.288380 0.231041 0.122993
H76   H     H_    0.959257 0.247072 0.123443 0.106568
H77   H     H_    0.003569 0.179228 0.194881 0.267247
H78   H     H_    0.005246 0.276164 0.211485 0.205509
H79   H     H_    0.834119 0.174418 0.588527 0.269462
H80   H     H_    0.958600 0.219773 0.302300 0.248793
H81   H     H_    0.793350 0.941484 0.327557 0.089167
H82   H     H_    0.839168 0.988706 0.225515 0.107862
H83   H     H_    0.896079 0.021797 0.293612 0.274561
H84   H     H_    0.828387 0.053322 0.361241 0.219574
H85   H     H_    0.851104 0.973941 0.395026 0.225556
H86   H     H_    0.087686 0.287969 0.775806 0.121795
H87   H     H_    0.040512 0.242268 0.878318 0.107260
H88   H     H_    0.000730 0.178814 0.795207 0.258513
H89   H     H_    0.998923 0.276411 0.785303 0.201255
H90   H     H_    0.892284 0.137392 0.587124 0.174795
H91   H     H_    0.047932 0.223417 0.692744 0.256880
H92   H     H_    0.756716 0.396135 0.827249 0.070365
H93   H     H_    0.793527 0.390190 0.706762 0.161212
H94   H     H_    0.866797 0.323771 0.725321 0.282466
H95   H     H_    0.855550 0.417033 0.762985 0.188704
H96   H     H_    0.829182 0.344093 0.843433 0.232680
H97   H     H_    0.342677 0.862865 0.158982 0.084350
H98   H     H_    0.284001 0.913491 0.228431 0.177550
H99   H     H_    0.258857 0.914299 0.105698 0.278262
H100  H     H_    0.323118 0.955721 0.072497 0.206784
H101  H     H_    0.851290 0.200581 0.674274 0.321986
H102  H     H_    0.319463 0.865123 0.034147 0.240841
H103  H     H_    0.245265 0.413738 0.206225 0.064981
H104  H     H_    0.205273 0.388903 0.322321 0.164032
H105  H     H_    0.130453 0.354870 0.289575 0.283764
H106  H     H_    0.151069 0.448617 0.264075 0.180403
H107  H     H_    0.172138 0.382186 0.174639 0.239408
H108  H     H_    0.688174 0.856924 0.899897 0.104545
H109  H     H_    0.707063 0.892125 0.789753 0.158777
H110  H     H_    0.794297 0.928273 0.769237 0.253760
H111  H     H_    0.745073 0.956313 0.880625 0.202054
H112  H     H_    0.252067 0.000263 0.459875 0.354362
H113  H     H_    0.059211 0.675144 0.762224 0.128315
H114  H     H_    0.784804 0.877510 0.866301 0.268954
H115  H     H_    0.257492 0.894854 0.827618 0.075250
H116  H     H_    0.295059 0.887964 0.707218 0.156167
H117  H     H_    0.368336 0.824635 0.726150 0.277582
H118  H     H_    0.354905 0.916726 0.768424 0.184585
H119  H     H_    0.329640 0.841161 0.845111 0.237376
H120  H     H_    0.844709 0.363820 0.159640 0.079394
H121  H     H_    0.786356 0.415978 0.226097 0.164068
H122  H     H_    0.763312 0.415137 0.100709 0.277783
H123  H     H_    0.827471 0.456107 0.069390 0.203657
H124  H     H_    0.004830 0.673191 0.736498 0.115992
H125  H     H_    0.823995 0.365095 0.032011 0.240967
H126  H     H_    0.744285 0.912291 0.204076 0.070256
H127  H     H_    0.704706 0.889168 0.320889 0.162880
H128  H     H_    0.629712 0.852317 0.289954 0.284440
H129  H     H_    0.649974 0.945846 0.261569 0.180094
H130  H     H_    0.671008 0.877642 0.174139 0.240460
H131  H     H_    0.201336 0.355619 0.900731 0.104004
H132  H     H_    0.207344 0.388164 0.796124 0.145158
H133  H     H_    0.299444 0.423816 0.743992 0.250728
H134  H     H_    0.261547 0.454941 0.858424 0.200265
H135  H     H_    0.015911 0.805271 0.703807 0.266981
H136  H     H_    0.302161 0.375241 0.833854 0.278696
H137  H     H_    0.069552 0.808513 0.731346 0.283505
H138  H     H_    0.002713 0.786367 0.816619 0.234504
H139  H     H_    0.557447 0.755507 0.458573 0.212804
H140  H     H_    0.586009 0.731775 0.530481 0.163813
H141  H     H_    0.666882 0.691755 0.397014 0.280741
H142  H     H_    0.609563 0.648316 0.401158 0.173645
H143  H     H_    0.640417 0.722750 0.325149 0.328777
H144  H     H_    0.253304 0.498412 0.527631 0.351086
H145  H     H_    0.391347 0.266333 0.478511 0.160849
H146  H     H_    0.430073 0.251360 0.532290 0.162385
H147  H     H_    0.362889 0.320681 0.667516 0.283318
H148  H     H_    0.327571 0.341353 0.606240 0.280651
H149  H     H_    0.394878 0.373011 0.565710 0.169408
H150  H     H_    0.432918 0.750180 0.564312 0.196030
H151  H     H_    0.414272 0.731776 0.477494 0.164336
H152  H     H_    0.332309 0.672002 0.590698 0.268267
H153  H     H_    0.389173 0.634858 0.593495 0.173985
H154  H     H_    0.347454 0.698636 0.678814 0.327666
H155  H     H_    0.721477 0.533589 0.580079 0.319406
H156  H     H_    0.562213 0.192213 0.760546 0.154610
H157  H     H_    0.510917 0.154594 0.740066 0.130944
H158  H     H_    0.492227 0.276098 0.700192 0.271758
H159  H     H_    0.546944 0.315281 0.711275 0.275169
H160  H     H_    0.489256 0.279826 0.808368 0.257592
H161  H     H_    0.964502 0.335839 0.630531 0.338022
H162  H     H_    0.936679 0.656954 0.692238 0.333348
H163  H     H_    0.025372 0.358066 0.401933 0.339754
H164  H     H_    0.007159 0.700928 0.505882 0.326644
H165  H     H_    0.464920 0.833058 0.634552 0.336606
H166  H     H_    0.058095 0.259318 0.452344 0.210581
H167  H     H_    0.394026 0.205395 0.681831 0.403357
H168  H     H_    0.525287 0.851614 0.406387 0.341673
H169  H     H_    0.544358 0.239249 0.537716 0.355474
H170  H     H_    0.662901 0.371978 0.048086 0.340821
H171  H     H_    0.365290 0.713224 0.928672 0.334130
H172  H     H_    0.360010 0.332423 0.916794 0.347206
H173  H     H_    0.629629 0.756149 0.068753 0.331334
H174  H     H_    0.161444 0.868182 0.050459 0.343388
H175  H     H_    0.866465 0.215172 0.928496 0.335012
H176  H     H_    0.868205 0.788271 0.833437 0.365179
H177  H     H_    0.082575 0.233773 0.529662 0.167118
H178  H     H_    0.130306 0.256306 0.068889 0.331884
H179  H     H_    0.694821 0.136875 0.891015 0.115228
H180  H     H_    0.740518 0.077881 0.905419 0.121077
H181  H     H_    0.792135 0.061385 0.738708 0.252618
H182  H     H_    0.722722 0.035994 0.782296 0.210301
H183  H     H_    0.746474 0.121500 0.726090 0.282232
H184  H     H_    0.197822 0.641349 0.209618 0.102076
H185  H     H_    0.138268 0.668413 0.204501 0.123588
H186  H     H_    0.104062 0.729136 0.353330 0.263019
H187  H     H_    0.117712 0.633984 0.358474 0.179787
H188  H     H_    0.165340 0.191743 0.401260 0.277589
H189  H     H_    0.163558 0.702308 0.357754 0.278317
H190  H     H_    0.285328 0.134890 0.136880 0.128363
H191  H     H_    0.243241 0.089656 0.098870 0.112051
H192  H     H_    0.175688 0.068262 0.261982 0.254804
H193  H     H_    0.239082 0.024203 0.225398 0.213154
H194  H     H_    0.223740 0.105712 0.292245 0.265659
H195  H     H_    0.802633 0.608447 0.911341 0.039584
H196  H     H_    0.861212 0.613075 0.807438 0.151299
H197  H     H_    0.820513 0.560694 0.727623 0.253655
H198  H     H_    0.787491 0.515799 0.833585 0.184719
H199  H     H_    0.108839 0.149866 0.400478 0.175129
H200  H     H_    0.754506 0.588555 0.809515 0.248293
H201  H     H_    0.192669 0.635466 0.890900 0.105744
H202  H     H_    0.236783 0.573883 0.905724 0.115790
H203  H     H_    0.289365 0.560051 0.737561 0.255256
H204  H     H_    0.220075 0.533721 0.782106 0.209738
H205  H     H_    0.242860 0.620001 0.727161 0.279498
H206  H     H_    0.700872 0.147832 0.214507 0.099136
H207  H     H_    0.642785 0.168975 0.201835 0.119991
H208  H     H_    0.602252 0.233472 0.348680 0.264160
H209  H     H_    0.618109 0.140309 0.359268 0.186996
H210  H     H_    0.142524 0.223358 0.324566 0.332423
H211  H     H_    0.660325 0.213142 0.360786 0.274425
H212  H     H_    0.784849 0.636167 0.138477 0.121102
H213  H     H_    0.744814 0.590767 0.096490 0.110937
H214  H     H_    0.675148 0.567981 0.259277 0.258203
H215  H     H_    0.738279 0.523170 0.222532 0.210849
H216  H     H_    0.722870 0.603500 0.291386 0.260880
H217  H     H_    0.299024 0.099651 0.891760 0.055960
H218  H     H_    0.356693 0.108836 0.787693 0.187101
H219  H     H_    0.289471 0.114788 0.719670 0.303956
H220  H     H_    0.305346 0.028954 0.751865 0.200283
O1    O     O_R   0.746490 0.236330 0.638080 -0.612703
O2    O     O_R   0.325830 0.813840 0.483730 -0.601728
O3    O     O_3   0.098173 0.176092 0.778995 -0.558513
O4    O     O_3   0.769138 0.290432 0.768436 -0.523104
O5    O     O_3   0.267319 0.810059 0.203472 -0.523935
O6    O     O_3   0.226773 0.301551 0.234597 -0.535740
O7    O     O_3   0.744778 0.796018 0.787787 -0.537741
O8    O     O_3   0.270451 0.788482 0.769932 -0.524800
O9    O     O_3   0.769055 0.312418 0.202738 -0.522993
O10   O     O_3   0.726501 0.800331 0.235377 -0.531377
O11   O     O_3   0.247602 0.292078 0.784733 -0.519975
O12   O     O_R   0.325830 0.186160 0.483730 -0.609724
O13   O     O_R   0.674170 0.813840 0.516270 -0.600017
O14   O     O_R   0.174170 0.686160 0.516270 -0.584199
O15   O     O_R   0.825830 0.313840 0.483730 -0.610968
O16   O     O_R   0.825830 0.686160 0.483730 -0.626300
O17   O     O_R   0.174170 0.313840 0.516270 -0.595587
O18   O     O_R   0.739960 0.127620 0.525000 -0.635189
O19   O     O_R   0.260040 0.872380 0.475000 -0.627361
O20   O     O_R   0.260040 0.127620 0.475000 -0.627971
O21   O     O_R   0.253510 0.763670 0.361920 -0.594475
O22   O     O_R   0.739960 0.872380 0.525000 -0.630755
O23   O     O_R   0.239960 0.627620 0.525000 -0.635061
O24   O     O_R   0.760040 0.372380 0.475000 -0.572807
O25   O     O_R   0.760040 0.627620 0.475000 -0.604213
O26   O     O_R   0.239960 0.372380 0.525000 -0.631280
O27   O     O_R   0.680700 0.294870 0.629350 -0.563956
O28   O     O_R   0.319300 0.705130 0.370650 -0.594095
O29   O     O_R   0.319300 0.294870 0.370650 -0.588905
O30   O     O_R   0.680700 0.705130 0.629350 -0.614068
O31   O     O_R   0.180700 0.794870 0.629350 -0.571676
O32   O     O_R   0.253510 0.236330 0.361920 -0.615024
O33   O     O_R   0.819300 0.205130 0.370650 -0.593574
O34   O     O_R   0.819300 0.794870 0.370650 -0.586746
O35   O     O_R   0.180700 0.205130 0.629350 -0.603214
O36   O     O_R   0.062020 0.072840 0.007170 -0.588488
O37   O     O_R   0.937980 0.927160 0.992830 -0.616361
O38   O     O_R   0.937980 0.072840 0.992830 -0.586298
O39   O     O_R   0.062020 0.927160 0.007170 -0.609835
O40   O     O_R   0.562020 0.572840 0.007170 -0.582388
O41   O     O_R   0.437980 0.427160 0.992830 -0.624337
O42   O     O_R   0.437980 0.572840 0.992830 -0.589340
O43   O     O_R   0.746490 0.763670 0.638080 -0.575796
O44   O     O_R   0.562020 0.427160 0.007170 -0.610744
O45   O     O_R   0.947860 0.073950 0.109290 -0.592050
O46   O     O_R   0.052140 0.926050 0.890710 -0.588098
O47   O     O_R   0.052140 0.073950 0.890710 -0.588668
O48   O     O_R   0.947860 0.926050 0.109290 -0.577725
O49   O     O_R   0.447860 0.573950 0.109290 -0.587154
O50   O     O_R   0.552140 0.426050 0.890710 -0.590389
O51   O     O_R   0.552140 0.573950 0.890710 -0.592060
O52   O     O_R   0.447860 0.426050 0.109290 -0.579608
O53   O     O_3   0.719737 0.999517 0.584661 -0.743776
O54   O     O_R   0.246490 0.736330 0.638080 -0.614234
O55   O     O_3   0.290947 0.001424 0.417397 -0.750436
O56   O     O_3   0.219387 0.499501 0.585168 -0.744906
O57   O     O_3   0.743833 0.498046 0.533019 -0.746482
O58   O     O_3   0.118736 0.325023 0.450061 -0.613578
O59   O     O_3   0.846848 0.698494 0.604329 -0.532490
O60   O     O_3   0.871523 0.315088 0.569207 -0.599822
O61   O     O_3   0.082661 0.693745 0.629333 -0.555602
O62   O     O_3   0.618439 0.823939 0.450382 -0.614331
O63   O     O_3   0.353504 0.198133 0.590939 -0.565226
O64   O     O_3   0.370223 0.812574 0.570665 -0.599838
O65   O     O_R   0.753510 0.263670 0.361920 -0.600765
O66   O     O_3   0.582477 0.192077 0.627721 -0.596345
O67   O     O_3   0.001526 0.318576 0.592291 -0.824061
O68   O     O_3   0.919156 0.679241 0.660383 -0.710413
O69   O     O_3   0.990008 0.333871 0.432949 -0.818329
O70   O     O_3   0.019054 0.706100 0.551596 -0.714040
O71   O     O_3   0.502013 0.815971 0.596621 -0.824448
O72   O     O_3   0.424789 0.172258 0.655237 -0.743311
O73   O     O_3   0.489812 0.827803 0.438302 -0.818442
O74   O     O_3   0.518491 0.201192 0.542222 -0.757367
O75   O     O_3   0.659494 0.337511 0.094938 -0.664615
O76   O     O_R   0.753510 0.736330 0.361920 -0.616761
O77   O     O_3   0.343203 0.688324 0.906139 -0.664001
O78   O     O_3   0.358834 0.284042 0.891935 -0.678756
O79   O     O_3   0.645833 0.734540 0.103191 -0.684962
O80   O     O_3   0.157166 0.832261 0.096475 -0.664960
O81   O     O_3   0.844247 0.190767 0.905879 -0.665059
O82   O     O_3   0.859390 0.787389 0.897367 -0.689515
O83   O     O_3   0.146272 0.234638 0.103657 -0.684455
O84   O     O_3   0.772780 0.176363 0.844666 -0.511911
O85   O     O_3   0.189796 0.752635 0.195315 -0.491976
O86   O     O_3   0.213790 0.187528 0.168459 -0.528432
O87   O     O_R   0.246490 0.263670 0.638080 -0.565209
O88   O     O_3   0.808059 0.695485 0.823399 -0.528945
O89   O     O_3   0.271328 0.671914 0.845779 -0.514354
O90   O     O_3   0.691012 0.257267 0.194518 -0.492276
O91   O     O_3   0.713246 0.687477 0.167721 -0.525082
O92   O     O_3   0.308273 0.199053 0.819654 -0.535633
O93   O     O_3   0.596347 0.290914 0.039353 -0.540545
O94   O     O_3   0.339595 0.593270 0.019848 -0.527110
O95   O     O_3   0.405439 0.265396 0.986219 -0.561869
O96   O     O_3   0.638835 0.622334 0.017181 -0.534369
O97   O     O_3   0.094849 0.790934 0.035338 -0.539416
O98   O     O_R   0.674170 0.186160 0.516270 -0.591943
O99   O     O_3   0.840261 0.094372 0.019496 -0.526016
O100  O     O_3   0.905545 0.766159 0.986495 -0.536424
O101  O     O_3   0.137860 0.123032 0.018672 -0.536372
O102  O     O_3   0.619359 0.370724 0.754332 -0.562280
O103  O     O_3   0.403909 0.677257 0.220195 -0.555904
O104  O     O_3   0.369717 0.392414 0.252674 -0.545818
O105  O     O_3   0.598478 0.674834 0.778239 -0.557603
O106  O     O_3   0.135603 0.895955 0.749574 -0.563587
O107  O     O_3   0.904071 0.177047 0.220414 -0.556396
O108  O     O_3   0.868537 0.893995 0.252811 -0.542938
Zn1   Zn    Zn3+2 0.792340 0.208750 0.507670 0.953846
Zn2   Zn    Zn3+2 0.494040 0.500000 0.919480 0.984615
Zn3   Zn    Zn3+2 0.005960 0.000000 0.080520 1.011913
Zn4   Zn    Zn3+2 0.994040 0.000000 0.919480 1.019529
Zn5   Zn    Zn3+2 0.207660 0.791250 0.492330 1.038549
Zn6   Zn    Zn3+2 0.207660 0.208750 0.492330 0.950955
Zn7   Zn    Zn3+2 0.792340 0.791250 0.507670 0.959185
Zn8   Zn    Zn3+2 0.292340 0.708750 0.507670 0.956683
Zn9   Zn    Zn3+2 0.707660 0.291250 0.492330 1.029676
Zn10  Zn    Zn3+2 0.707660 0.708750 0.492330 0.954669
Zn11  Zn    Zn3+2 0.292340 0.291250 0.507670 0.970696
Zn12  Zn    Zn3+2 0.505960 0.500000 0.080520 1.008558

loop_
_geom_bond_atom_site_label_1
_geom_bond_atom_site_label_2
_ccdc_geom_bond_type
C75   H181  S    
C65   H140  S    
C126  C127  S    
C169  O97   S    
C198  C206  A    
C36   C42   A    
C220  O12   A    
C186  C194  A    
C4    C177  S    
C185  O33   A    
O13   Zn10  S    
C112  O28   A    
C28   C47   A    
C67   H145  S    
C156  O81   S    
C121  H75   S    
C13   C18   A    
C207  O35   A    
C227  O37   A    
C31   C220  S    
C16   C35   A    
C223  O15   A    
C74   H179  S    
C196  O76   A    
C144  H136  S    
C119  O106  S    
C184  C193  A    
C51   O61   S    
C40   O55   S    
C219  O19   A    
C163  O30   A    
C37   C42   A    
C120  H72   S    
O43   Zn7   S    
C153  O90   S    
C103  O99   S    
C115  H59   S    
C92   O93   S    
C122  H77   S    
C137  O8    S    
C67   O63   S    
C36   C224  S    
C69   H148  S    
C58   H210  S    
C24   C51   A    
C105  O100  S    
C59   C60   S    
C8    C16   A    
C58   H188  S    
C60   H35   S    
C64   H137  S    
C104  H34   S    
C79   C161  A    
C100  H26   S    
C132  O6    S    
C190  C199  A    
C131  H100  S    
C150  O88   S    
C137  H116  S    
C142  H130  S    
C150  C159  A    
H164  O70   S    
C34   C225  S    
O33   Zn1   S    
H178  O83   S    
C99   H23   S    
C108  H45   S    
C22   C31   A    
C83   H202  S    
C179  C188  A    
C53   O63   S    
C84   H204  S    
C137  H115  S    
C177  C186  A    
C138  H117  S    
C29   C45   A    
C2    O68   S    
C140  H123  S    
C97   H19   S    
C217  O18   A    
C133  H107  S    
C130  H97   S    
C181  C190  A    
C228  O38   A    
C106  H39   S    
C72   H157  S    
C87   H213  S    
C95   H11   S    
H170  O75   S    
C147  O84   S    
O20   Zn6   S    
C160  O77   S    
C218  O67   S    
C173  C182  A    
O41   Zn2   S    
C117  H64   S    
C181  C226  S    
C111  H54   S    
C109  O102  S    
C119  H70   S    
O38   Zn4   S    
C187  O106  S    
O31   Zn5   S    
C120  H73   S    
C126  H86   S    
C175  C183  A    
C110  H51   S    
C21   C30   A    
C62   H79   S    
C176  C184  A    
C14   C57   A    
C80   H192  S    
C167  O95   S    
C2    C19   A    
C70   H151  S    
C88   H215  S    
C114  H58   S    
C25   C55   A    
C113  C212  S    
C72   C73   S    
C56   O58   S    
C141  H127  S    
C98   H21   S    
C139  C140  S    
C33   C217  S    
C93   H6    S    
C169  C213  A    
C180  C227  S    
C134  H108  S    
C200  C209  A    
C221  O13   A    
C171  O100  S    
O27   Zn9   S    
C130  C131  S    
C9    C15   A    
C41   O56   S    
H169  O74   S    
C97   H17   S    
C46   C53   A    
C116  H62   S    
C5    C176  S    
C123  H82   S    
C82   H200  S    
C224  O16   A    
C206  O10   S    
O48   Zn3   S    
O98   Zn9   S    
C98   C99   S    
C139  O9    S    
C92   H4    S    
C170  O99   S    
C104  H36   S    
C185  C197  S    
C172  C216  A    
O76   Zn10  S    
C143  C144  S    
C11   C18   A    
C142  H128  S    
C103  H32   S    
C217  O98   A    
C69   H149  S    
C202  C211  A    
C85   H207  S    
C108  H47   S    
C65   O62   S    
C25   C43   A    
C86   H208  S    
C1    O27   A    
C149  O86   S    
C128  H93   S    
C72   O66   S    
C12   C68   A    
C138  H118  S    
C60   H46   S    
C188  C197  A    
C185  O65   A    
C66   H141  S    
C78   H190  S    
C136  H114  S    
C180  C189  A    
C152  O32   A    
C145  C159  A    
C78   C80   S    
C105  H37   S    
C115  C116  S    
C80   H193  S    
C179  C228  S    
C204  O8    S    
O65   Zn9   S    
C66   H142  S    
C26   C45   A    
C143  H131  S    
C172  C181  A    
C96   H16   S    
C128  O4    S    
C29   C38   A    
C107  C108  S    
C14   C16   A    
C183  O103  S    
C89   C91   S    
O12   Zn11  S    
C149  C158  A    
C55   O66   S    
C133  H106  S    
C228  O45   A    
C107  H42   S    
C122  H80   S    
C75   H182  S    
C184  O104  S    
O36   Zn3   S    
O52   Zn12  S    
C7    O50   A    
C100  C102  S    
C81   H196  S    
C124  C213  S    
C93   H8    S    
O25   Zn10  S    
C49   O59   S    
C191  C200  A    
C37   C223  S    
C38   C41   A    
C10   C20   A    
C189  O108  S    
C89   H217  S    
C71   H153  S    
C132  H103  S    
C163  C194  S    
C168  C212  A    
C135  C156  A    
C102  H30   S    
C91   H3    S    
C200  O4    S    
C82   H198  S    
C98   H20   S    
C81   O88   S    
C94   H9    S    
C83   C84   S    
C8    C12   A    
C61   H68   S    
C10   C45   A    
O42   Zn2   S    
C134  H109  S    
C140  H122  S    
C76   O85   S    
C72   H156  S    
C145  C154  A    
O40   Zn12  S    
C124  C151  A    
O51   Zn2   S    
C3    O39   A    
C103  C104  S    
C96   O95   S    
C29   C51   A    
C27   C47   A    
C225  O26   A    
C65   H139  S    
C71   H154  S    
C39   O53   S    
C188  O107  S    
C126  O3    S    
C118  H66   S    
C119  H71   S    
C109  H49   S    
O45   Zn3   S    
C146  C158  A    
C166  C210  A    
C106  H40   S    
C170  C179  A    
H173  O79   S    
O32   Zn6   S    
C88   H214  S    
C64   H138  S    
C5    O41   A    
C117  C118  S    
O29   Zn11  S    
C74   H180  S    
O24   Zn9   S    
C225  O17   A    
C28   C37   A    
C182  O102  S    
C199  C208  A    
C56   C58   S    
C30   C39   A    
C102  H28   S    
C172  O101  S    
C61   C62   S    
C203  C212  A    
C196  O34   A    
C208  O11   S    
O44   Zn12  S    
C63   C64   S    
C71   H152  S    
O50   Zn2   S    
C166  O94   S    
C106  H41   S    
H162  O68   S    
C70   O64   S    
C87   H212  S    
C122  H78   S    
C15   C46   A    
O2    Zn8   S    
C69   H147  S    
C27   C49   A    
C25   C33   A    
C54   C57   A    
C201  O5    S    
C206  C215  A    
C1    O1    A    
C87   C88   S    
C83   O89   S    
C117  O105  S    
C56   H166  S    
C169  C178  A    
C11   C47   A    
C8    C43   A    
C183  C192  A    
O39   Zn3   S    
C55   C68   A    
C48   C218  A    
C112  O21   A    
C101  C211  S    
C11   C19   A    
C166  C175  A    
C77   H187  S    
H112  O55   S    
C129  H95   S    
C3    C178  S    
C226  O36   A    
C85   O90   S    
C83   H201  S    
C86   H211  S    
C123  C125  S    
C135  C214  S    
C6    C175  S    
C35   O71   S    
C168  C177  A    
C92   H5    S    
C50   O60   S    
C31   C40   A    
C174  O54   A    
C64   H135  S    
C120  H74   S    
C219  O2    A    
C164  O78   S    
C89   O92   S    
C115  O104  S    
C130  H98   S    
C127  H91   S    
C146  C155  A    
C128  H92   S    
C192  C201  A    
C70   C71   S    
O34   Zn7   S    
C26   C48   A    
C171  C215  A    
C58   H199  S    
C174  C195  S    
H167  O72   S    
C128  C129  S    
C111  H53   S    
O15   Zn1   S    
C63   O61   S    
C34   C41   A    
C161  O75   S    
C61   O60   S    
C136  H110  S    
C113  C150  A    
C74   O84   S    
C126  H87   S    
C154  C162  A    
C30   C221  S    
C110  H52   S    
C48   O58   S    
C67   H146  S    
C121  H76   S    
C107  H43   S    
O16   Zn7   S    
C75   H183  S    
C108  H44   S    
O26   Zn11  S    
C196  C198  S    
C197  C205  A    
C24   O70   S    
C141  H126  S    
C79   C147  A    
C195  C204  A    
O30   Zn10  S    
C56   H177  S    
C85   C86   S    
C13   O69   S    
C139  H120  S    
C23   C44   A    
H155  O57   S    
C9    C14   A    
C96   H15   S    
C112  C192  S    
C131  H99   S    
C12   C15   A    
C88   H216  S    
C115  H60   S    
C123  H81   S    
C124  C157  A    
C129  H96   S    
C158  O83   S    
C94   O94   S    
C147  C156  A    
C121  C122  S    
H175  O81   S    
C100  O97   S    
C178  C187  A    
C4    O40   A    
O21   Zn5   S    
C151  O89   S    
C104  H33   S    
C97   H18   S    
C165  O93   S    
C155  O92   S    
C79   C209  S    
C142  H129  S    
C103  H31   S    
C168  O96   S    
C101  C164  A    
C42   O57   S    
C85   H206  S    
C86   H209  S    
C119  C120  S    
C6    O49   A    
O87   Zn11  S    
C170  C214  A    
C27   C36   A    
C84   H203  S    
C105  C106  S    
C4    O51   A    
C222  O14   A    
C23   C32   A    
C38   C222  S    
C221  O22   A    
C78   H191  S    
C152  O29   A    
C63   H113  S    
C20   C218  A    
C165  C209  A    
C154  O91   S    
C127  H89   S    
C73   H159  S    
C80   H194  S    
C92   C93   S    
C111  C114  S    
C95   H12   S    
C90   C160  A    
C94   C95   S    
C76   H185  S    
C73   H160  S    
C111  O103  S    
C66   H143  S    
C193  C202  A    
C95   H14   S    
C167  C211  A    
O47   Zn4   S    
C186  O105  S    
C141  O10   S    
O35   Zn6   S    
C125  H83   S    
C153  C161  A    
C35   C52   A    
O37   Zn4   S    
C91   H219  S    
C63   H124  S    
C110  H50   S    
C189  C198  A    
C70   H150  S    
H172  O78   S    
C81   C82   S    
C81   H195  S    
C93   H7    S    
C223  O24   A    
C33   C39   A    
C152  C193  S    
C144  H133  S    
O17   Zn6   S    
H168  O73   S    
C59   O59   S    
C132  H104  S    
O49   Zn12  S    
C10   C17   A    
C165  C173  A    
O14   Zn5   S    
C116  H61   S    
C207  O87   A    
C7    O44   A    
C90   C148  A    
C226  O47   A    
O28   Zn8   S    
O23   Zn8   S    
C21   C43   A    
C159  O82   S    
C28   C50   A    
C26   C34   A    
C22   C44   A    
C174  O31   A    
H144  O56   S    
C132  C133  S    
C107  O101  S    
C61   H57   S    
C100  H27   S    
C148  C157  A    
O1    Zn1   S    
C127  H88   S    
C113  C162  A    
C208  C216  A    
C145  C215  S    
C54   O64   S    
C99   H22   S    
C117  H65   S    
C227  O48   A    
O18   Zn1   S    
O22   Zn7   S    
C121  O107  S    
C224  O25   A    
C94   H10   S    
C22   C53   A    
C84   H205  S    
C87   O91   S    
C220  O20   A    
C17   C24   A    
C163  O43   A    
C74   C75   S    
C3    O46   A    
C109  H48   S    
C118  H67   S    
C76   C77   S    
C125  H85   S    
C140  H125  S    
C90   C210  S    
C131  H102  S    
C134  C136  S    
C105  H38   S    
C204  C213  A    
C13   C50   A    
C67   C69   S    
C205  O9    S    
C143  O11   S    
C2    C49   A    
C203  O7    S    
C143  H132  S    
C5    O52   A    
C114  H55   S    
C123  O108  S    
C144  H134  S    
C96   C97   S    
C139  H121  S    
C199  C207  S    
C73   H158  S    
C125  H84   S    
C114  H56   S    
H163  O69   S    
H176  O82   S    
C171  C180  A    
C190  O3    S    
C46   O72   S    
C136  H111  S    
C1    C191  S    
C201  C210  A    
C148  O85   S    
H165  O71   S    
C23   C54   A    
C91   H220  S    
C52   O62   S    
C9    C44   A    
C118  H69   S    
C187  C195  A    
H171  O77   S    
C205  C214  A    
C89   H218  S    
C62   H101  S    
O46   Zn4   S    
C155  C164  A    
C130  O5    S    
C137  C138  S    
C116  H63   S    
C68   O74   S    
C135  C153  A    
C102  H29   S    
C77   H186  S    
C59   H13   S    
H1    O53   S    
C151  C160  A    
H174  O80   S    
C129  H94   S    
C6    O42   A    
C82   H197  S    
C57   O73   S    
C99   H25   S    
C141  C142  S    
C59   H2    S    
C222  O23   A    
C194  C203  A    
C7    C173  S    
C101  C149  A    
C17   C19   A    
C98   O96   S    
C138  H119  S    
C18   C20   A    
C32   C40   A    
C77   H189  S    
C134  O7    S    
C162  O79   S    
C32   C219  S    
O19   Zn5   S    
C133  H105  S    
H161  O67   S    
C78   O86   S    
C62   H90   S    
C65   C66   S    
C182  C191  A    
C109  C110  S    
C60   H24   S    
C157  O80   S    
C76   H184  S    
C21   C52   A    
C146  C216  S    
C202  O6    S    
O54   Zn8   S    
C167  C176  A    
