data_mof_unit_15302.cif
_audit_creation_date              2012-12-10T20:44:41-0500
_audit_creation_method            fapswitch 2.2
_symmetry_space_group_name_H-M    P1
_symmetry_Int_Tables_number       1
_space_group_crystal_system       triclinic
_cell_length_a                    9.896263
_cell_length_b                    10.791291
_cell_length_c                    16.739764
_cell_angle_alpha                 88.685003
_cell_angle_beta                  93.474311
_cell_angle_gamma                 89.431376
_cell_volume                      1783.82692078

loop_
_atom_site_label
_atom_site_type_symbol
_atom_type_description
_atom_site_fract_x
_atom_site_fract_y
_atom_site_fract_z
_atom_type_partial_charge
C1    C     C_R   0.500345 0.260419 0.501816 0.966477
C2    C     C_R   0.649320 0.511473 0.783823 -0.299071
C3    C     C_R   0.525976 0.644096 0.144999 -0.005179
C4    C     C_R   0.542882 0.616585 0.226780 -0.189446
C5    C     C_R   0.433905 0.573315 0.098206 0.162383
C6    C     C_R   0.470255 0.520346 0.260952 -0.144426
C7    C     C_R   0.375226 0.453333 0.214090 0.255580
C8    C     C_R   0.357242 0.481092 0.132917 -0.147041
C9    C     C_R   0.614980 0.062265 0.489425 0.100267
C10   C     C_R   0.498279 0.128822 0.501951 -0.097339
C11   C     C_R   0.376687 0.067001 0.511431 -0.199934
C12   C     C_R   0.516628 0.498682 0.653535 0.897028
C13   C     C_R   0.374661 0.939138 0.514059 0.302465
C14   C     C_R   0.494890 0.872230 0.500135 -0.217245
C15   C     C_R   0.612162 0.936138 0.482645 0.049790
C16   C     C_3   0.753084 0.921865 0.520324 0.062951
C17   C     C_3   0.751267 0.060335 0.533904 -0.258802
C18   C     C_R   0.078464 0.472405 0.568464 0.233359
C19   C     C_R   0.066359 0.539843 0.434938 -0.002958
C20   C     C_R   0.922873 0.542532 0.434925 -0.016896
C21   C     C_R   0.936223 0.472417 0.568465 0.203139
C22   C     C_3   0.937359 0.354282 0.615850 -0.482204
C23   C     C_R   0.498927 0.739864 0.501591 0.905966
C24   C     C_3   0.090688 0.354289 0.616173 -0.508910
C25   C     C_R   0.482882 0.502152 0.346809 0.919474
C26   C     C_R   0.524092 0.503649 0.740404 -0.007610
C27   C     C_R   0.404090 0.504594 0.780109 -0.206484
C28   C     C_R   0.408246 0.515298 0.861946 -0.188759
C29   C     C_R   0.532923 0.527055 0.906193 0.320431
C30   C     C_R   0.655280 0.522685 0.866988 -0.029230
H1    H     H_    0.609830 0.672235 0.264259 0.194462
H2    H     H_    0.759596 0.861674 0.575383 0.140235
H3    H     H_    0.828063 0.112597 0.501525 0.188367
H4    H     H_    0.116695 0.572546 0.382976 0.197023
H5    H     H_    0.898191 0.365937 0.676079 0.208136
H6    H     H_    0.891442 0.279086 0.580279 0.213405
H7    H     H_    0.140255 0.367206 0.676665 0.202022
H8    H     H_    0.132820 0.277027 0.582225 0.223753
H9    H     H_    0.742409 0.510351 0.752894 0.152673
H10   H     H_    0.313182 0.513722 0.890781 0.167010
H11   H     H_    0.288288 0.426582 0.095647 0.185633
H12   H     H_    0.306200 0.498000 0.748058 0.164017
H13   H     H_    0.284535 0.117444 0.521982 0.190904
N1    N     N_2   0.536221 0.535277 0.990192 -0.120737
N2    N     N_2   0.430456 0.580065 0.014748 -0.210226
N3    N     N_R   0.142860 0.499130 0.500540 -0.127914
N4    N     N_R   0.857210 0.499170 0.500530 -0.158392
O1    O     O_R   0.614690 0.316790 0.499990 -0.606857
O2    O     O_R   0.385350 0.316760 0.500000 -0.625844
O3    O     O_R   0.627460 0.498860 0.616130 -0.618613
O4    O     O_R   0.398120 0.498820 0.616130 -0.623870
O5    O     O_R   0.614650 0.683240 0.500000 -0.641769
O6    O     O_R   0.385310 0.683210 0.500010 -0.566872
O7    O     O_R   0.601880 0.501180 0.383870 -0.649782
O8    O     O_R   0.372540 0.501140 0.383870 -0.591604
Zn1   Zn    Zn3+2 0.653130 0.500020 0.499990 0.969036
Zn2   Zn    Zn3+2 0.346870 0.499980 0.500010 1.012580
Br1   Br    Br    0.209060 0.868237 0.548229 -0.457694
Br2   Br    Br    0.880853 0.879960 0.441693 -0.455257
C31   C     C_2   0.753025 0.087037 0.622349 0.358345
H14   H     H_    0.843913 0.065227 0.659746 0.102952
O9    O     O_2   0.655901 0.133248 0.652632 -0.560810
C32   C     C_2   0.848333 0.601083 0.365329 0.545699
H15   H     H_    0.760960 0.658836 0.374034 0.113042
O10   O     O_2   0.887302 0.590347 0.297963 -0.528606
C33   C     C_2   0.603779 0.745518 0.108690 0.532901
H16   H     H_    0.586094 0.770608 0.045763 0.076485
O11   O     O_2   0.688470 0.802684 0.148651 -0.511617
C34   C     C_2   0.790726 0.531398 0.909794 0.428162
H17   H     H_    0.881164 0.526227 0.876329 0.054278
O12   O     O_2   0.803957 0.544654 0.982062 -0.518802
Br3   Br    Br    0.273689 0.318852 0.256822 -0.423629

loop_
_geom_bond_atom_site_label_1
_geom_bond_atom_site_label_2
_ccdc_geom_bond_type
C14   C23   S    
C5    C8    A    
C24   H8    S    
C32   O10   D    
C1    O1    A    
C11   H13   S    
C29   C30   A    
O4    Zn2   S    
C16   H2    S    
C18   C21   A    
C22   H6    S    
C9    C10   A    
C2    H9    S    
C3    C4    A    
C33   O11   D    
C19   C20   A    
O1    Zn1   S    
C2    C30   A    
C12   O4    A    
C20   C32   S    
C33   H16   S    
C9    C15   A    
C19   N3    A    
C7    C8    A    
C2    C26   A    
C13   Br1   S    
C13   C14   A    
C25   O7    A    
C22   H5    S    
C11   C13   A    
C27   H12   S    
C23   O5    A    
C6    C7    A    
C17   H3    S    
C18   C24   S    
C18   N3    A    
C4    C6    A    
C28   C29   A    
N4    Zn1   S    
C23   O6    A    
O7    Zn1   S    
O8    Zn2   S    
C29   N1    S    
C26   C27   A    
C34   H17   S    
C22   C24   S    
C4    H1    S    
C16   C17   S    
C10   C11   A    
C28   H10   S    
C17   C31   S    
C15   C16   S    
C6    C25   S    
O5    Zn1   S    
C7    Br3   S    
C30   C34   S    
O2    Zn2   S    
C8    H11   S    
C20   N4    A    
C31   O9    D    
C1    O2    A    
C9    C17   S    
C27   C28   A    
C34   O12   D    
C3    C33   S    
O6    Zn2   S    
C14   C15   A    
C31   H14   S    
C24   H7    S    
C1    C10   S    
C21   N4    A    
C21   C22   S    
C5    N2    S    
N3    Zn2   S    
C19   H4    S    
O3    Zn1   S    
N1    N2    D    
C25   O8    A    
C12   C26   S    
C12   O3    A    
C3    C5    A    
C16   Br2   S    
C32   H15   S    
