data_mof_unit_62762.cif
_audit_creation_date              2013-03-05T15:42:57-0500
_audit_creation_method            fapswitch 2.2
_symmetry_space_group_name_H-M    P1
_symmetry_Int_Tables_number       1
_space_group_crystal_system       triclinic
_cell_length_a                    18.535762
_cell_length_b                    18.523879
_cell_length_c                    51.345457
_cell_angle_alpha                 89.974282
_cell_angle_beta                  90.006059
_cell_angle_gamma                 90.021101
_cell_volume                      17629.6758818

loop_
_atom_site_label
_atom_site_type_symbol
_atom_site_description
_atom_site_fract_x
_atom_site_fract_y
_atom_site_fract_z
_atom_type_partial_charge
Zn1   Zn    Zn3+2 0.913860 0.500000 0.978560 0.980696
Zn2   Zn    Zn3+2 0.500000 0.913860 0.978560 0.990292
Zn3   Zn    Zn3+2 0.086140 0.500000 0.978560 0.984705
Zn4   Zn    Zn3+2 0.500000 0.086140 0.978560 0.979797
Zn5   Zn    Zn3+2 0.413860 1.000000 0.478560 0.984666
Zn6   Zn    Zn3+2 1.000000 0.413860 0.478560 0.998600
Zn7   Zn    Zn3+2 0.586140 1.000000 0.478560 0.987068
Zn8   Zn    Zn3+2 0.000000 0.586140 0.478560 0.989442
Zn9   Zn    Zn3+2 1.000000 0.585830 0.022050 1.046243
Zn10  Zn    Zn3+2 0.414170 1.000000 0.022050 1.043747
Zn11  Zn    Zn3+2 0.000000 0.414170 0.022050 1.052912
Zn12  Zn    Zn3+2 0.585830 1.000000 0.022050 1.060681
Zn13  Zn    Zn3+2 0.500000 0.085830 0.522050 1.053207
Zn14  Zn    Zn3+2 0.914170 0.500000 0.522050 1.063521
Zn15  Zn    Zn3+2 0.500000 0.914170 0.522050 1.054131
Zn16  Zn    Zn3+2 0.085830 0.500000 0.522050 1.044062
O1    O     O_3   0.000000 0.500000 0.000300 -0.521476
O2    O     O_3   0.500000 1.000000 0.000300 -0.520431
O3    O     O_3   0.500000 1.000000 0.500300 -0.519374
O4    O     O_3   0.000000 0.500000 0.500300 -0.521533
O5    O     O_R   0.000000 0.439910 0.058350 -0.592291
O6    O     O_R   0.560090 0.000000 0.058350 -0.583439
O7    O     O_R   0.000000 0.560090 0.058350 -0.600462
O8    O     O_R   0.439910 0.000000 0.058350 -0.612208
O9    O     O_R   0.500000 0.939910 0.558350 -0.604010
O10   O     O_R   0.060090 0.500000 0.558350 -0.624597
O11   O     O_R   0.500000 0.060090 0.558350 -0.604286
O12   O     O_R   0.939910 0.500000 0.558350 -0.579570
O13   O     O_R   0.939640 0.500000 0.942260 -0.643512
O14   O     O_R   0.500000 0.939640 0.942260 -0.650696
O15   O     O_R   0.060360 0.500000 0.942260 -0.642520
O16   O     O_R   0.500000 0.060360 0.942260 -0.646734
O17   O     O_R   0.439640 0.000000 0.442260 -0.649781
O18   O     O_R   1.000000 0.439640 0.442260 -0.613800
O19   O     O_R   0.560360 0.000000 0.442260 -0.648369
O20   O     O_R   0.000000 0.560360 0.442260 -0.671217
O21   O     O_R   0.915140 0.644610 0.015520 -0.642466
O22   O     O_R   0.355390 0.915140 0.015520 -0.625712
O23   O     O_R   0.084860 0.355390 0.015520 -0.633727
O24   O     O_R   0.644610 0.084860 0.015520 -0.624012
O25   O     O_R   0.084860 0.644610 0.015520 -0.618072
O26   O     O_R   0.644610 0.915140 0.015520 -0.636929
O27   O     O_R   0.915140 0.355390 0.015520 -0.624424
O28   O     O_R   0.355390 0.084860 0.015520 -0.644574
O29   O     O_R   0.415140 0.144610 0.515520 -0.628723
O30   O     O_R   0.855390 0.415140 0.515520 -0.628534
O31   O     O_R   0.584860 0.855390 0.515520 -0.628027
O32   O     O_R   0.144610 0.584860 0.515520 -0.631180
O33   O     O_R   0.584860 0.144610 0.515520 -0.639441
O34   O     O_R   0.144610 0.415140 0.515520 -0.644780
O35   O     O_R   0.415140 0.855390 0.515520 -0.642099
O36   O     O_R   0.855390 0.584860 0.515520 -0.634433
O37   O     O_R   0.144340 0.415480 0.985090 -0.615112
O38   O     O_R   0.584520 0.144340 0.985090 -0.615794
O39   O     O_R   0.855660 0.584520 0.985090 -0.611875
O40   O     O_R   0.415480 0.855660 0.985090 -0.612984
O41   O     O_R   0.855660 0.415480 0.985090 -0.621590
O42   O     O_R   0.415480 0.144340 0.985090 -0.617529
O43   O     O_R   0.144340 0.584520 0.985090 -0.623236
O44   O     O_R   0.584520 0.855660 0.985090 -0.615878
O45   O     O_R   0.644340 0.915480 0.485090 -0.616959
O46   O     O_R   0.084520 0.644340 0.485090 -0.610600
O47   O     O_R   0.355660 0.084520 0.485090 -0.613455
O48   O     O_R   0.915480 0.355660 0.485090 -0.622008
O49   O     O_R   0.355660 0.915480 0.485090 -0.619552
O50   O     O_R   0.915480 0.644340 0.485090 -0.615832
O51   O     O_R   0.644340 0.084520 0.485090 -0.614593
O52   O     O_R   0.084520 0.355660 0.485090 -0.609250
C1    C     C_R   0.000754 0.499912 0.070827 0.887200
C2    C     C_R   0.500093 0.000669 0.070760 0.925216
C3    C     C_R   0.499996 0.999985 0.570743 0.965638
C4    C     C_R   0.999968 0.498922 0.570710 0.969740
C5    C     C_R   0.000029 0.500142 0.929870 0.810410
C6    C     C_R   0.500000 0.000017 0.929831 0.811937
C7    C     C_R   0.499973 0.999946 0.429865 0.805498
C8    C     C_R   0.999648 0.500107 0.429790 0.844504
C9    C     C_R   0.861471 0.638860 0.000061 0.885701
C10   C     C_R   0.361245 0.861242 0.000134 0.910900
C11   C     C_R   0.138435 0.361064 0.000030 0.889852
C12   C     C_R   0.638851 0.138531 0.000056 0.895127
C13   C     C_R   0.138462 0.638896 0.000042 0.899346
C14   C     C_R   0.638667 0.861174 0.000172 0.893959
C15   C     C_R   0.861200 0.361291 0.000166 0.888269
C16   C     C_R   0.361160 0.138684 0.000090 0.883582
C17   C     C_R   0.361116 0.138609 0.500206 0.908778
C18   C     C_R   0.861259 0.361180 0.500173 0.905609
C19   C     C_R   0.638843 0.861275 0.500196 0.912156
C20   C     C_R   0.138913 0.638509 0.500037 0.891413
C21   C     C_R   0.638448 0.138951 0.500025 0.874579
C22   C     C_R   0.138833 0.361443 0.500070 0.890856
C23   C     C_R   0.361159 0.861285 0.500194 0.895386
C24   C     C_R   0.861075 0.638488 0.500029 0.881642
C25   C     C_2   0.699396 0.244404 0.981240 0.061540
C26   C     C_2   0.755083 0.698911 0.981414 0.068940
C27   C     C_2   0.306272 0.748868 0.983473 0.082490
C28   C     C_2   0.242183 0.298723 0.980577 0.067063
C29   C     C_2   0.305314 0.250191 0.982976 0.081266
C30   C     C_2   0.243118 0.700480 0.980878 0.060659
C31   C     C_2   0.692196 0.747503 0.984201 0.080088
C32   C     C_2   0.747965 0.307360 0.983964 0.078707
C33   C     C_2   0.201286 0.742848 0.480754 0.075452
C34   C     C_2   0.246822 0.191483 0.484595 0.080960
C35   C     C_2   0.806442 0.248368 0.483926 0.090560
C36   C     C_2   0.752021 0.806952 0.484170 0.090307
C37   C     C_2   0.798477 0.742569 0.480682 0.076598
C38   C     C_2   0.741948 0.202004 0.480520 0.080395
C39   C     C_2   0.198236 0.254334 0.481670 0.067359
C40   C     C_2   0.247809 0.807180 0.484258 0.093254
C41   C     C_2   0.691770 0.196527 0.000862 -0.281599
C42   C     C_2   0.803450 0.691755 0.000894 -0.291128
C43   C     C_2   0.302503 0.809097 0.998231 -0.287343
C44   C     C_2   0.196123 0.307815 0.000666 -0.289438
C45   C     C_2   0.302305 0.190697 0.998162 -0.297644
C46   C     C_2   0.196308 0.691969 0.000769 -0.278421
C47   C     C_2   0.697130 0.808768 0.998344 -0.297184
C48   C     C_2   0.808859 0.302738 0.998321 -0.285224
C49   C     C_2   0.191743 0.696679 0.500832 -0.306403
C50   C     C_2   0.308594 0.196980 0.498410 -0.288062
C51   C     C_2   0.801783 0.309937 0.497858 -0.299803
C52   C     C_2   0.690181 0.801884 0.497921 -0.299147
C53   C     C_2   0.808204 0.696598 0.500804 -0.303053
C54   C     C_2   0.696480 0.191923 0.500755 -0.306887
C55   C     C_2   0.191607 0.303314 0.500970 -0.287472
C56   C     C_2   0.309758 0.801953 0.497931 -0.307368
H1    H     H_    0.722101 0.201842 0.018824 0.156686
H2    H     H_    0.798525 0.722461 0.018785 0.143034
H3    H     H_    0.252999 0.823537 0.008214 0.141079
H4    H     H_    0.202725 0.278556 0.018806 0.143431
H5    H     H_    0.253307 0.176708 0.008552 0.140595
H6    H     H_    0.202454 0.721580 0.018851 0.158115
H7    H     H_    0.747248 0.823762 0.007818 0.139385
H8    H     H_    0.823618 0.252777 0.007972 0.143879
H9    H     H_    0.220371 0.704000 0.519090 0.156608
H10   H     H_    0.323872 0.247456 0.507588 0.136595
H11   H     H_    0.750864 0.326174 0.506518 0.137705
H12   H     H_    0.673837 0.750749 0.506430 0.137868
H13   H     H_    0.779698 0.704041 0.519077 0.158676
H14   H     H_    0.704325 0.220133 0.519067 0.154647
H15   H     H_    0.222697 0.298801 0.518794 0.148416
H16   H     H_    0.326122 0.750754 0.506377 0.137790
C57   C     C_R   0.453189 0.049614 0.195274 0.581695
C58   C     C_R   0.933141 0.500173 0.195421 0.579692
C59   C     C_R   0.530865 0.946749 0.195030 0.579246
C60   C     C_R   0.061687 0.508440 0.195437 0.578834
C61   C     C_R   0.960911 0.548996 0.695038 0.579180
C62   C     C_R   0.446440 0.964042 0.695072 0.580819
C63   C     C_R   0.053949 0.459911 0.695283 0.580061
C64   C     C_R   0.553430 0.035924 0.695055 0.580887
N1    N     N_R   0.491840 0.998306 0.182199 -0.350276
N2    N     N_R   0.997379 0.504796 0.182421 -0.346969
N3    N     N_R   0.007452 0.504210 0.682148 -0.347972
N4    N     N_R   0.499936 0.999967 0.682135 -0.350031
C65   C     C_R   0.535364 0.947177 0.222484 -0.128220
C66   C     C_R   0.063116 0.513114 0.222804 -0.125091
C67   C     C_R   0.450117 0.049101 0.222767 -0.129260
C68   C     C_R   0.931873 0.493237 0.222748 -0.127218
C69   C     C_R   0.051873 0.455640 0.722744 -0.128453
C70   C     C_R   0.556999 0.034068 0.722513 -0.128892
C71   C     C_R   0.962240 0.553578 0.722488 -0.126448
C72   C     C_R   0.442866 0.965965 0.722529 -0.128956
C73   C     C_R   0.493266 0.998257 0.236356 -0.062935
C74   C     C_R   0.997575 0.502433 0.236481 -0.063119
C75   C     C_R   0.006652 0.504503 0.736353 -0.060760
C76   C     C_R   0.499931 0.000034 0.736250 -0.060476
C77   C     C_R   0.579314 0.897816 0.236591 0.319074
C78   C     C_R   0.127788 0.525639 0.236982 0.317876
C79   C     C_R   0.407097 0.098551 0.237182 0.319004
C80   C     C_R   0.867368 0.479280 0.236855 0.317211
C81   C     C_R   0.094350 0.405577 0.737106 0.318136
C82   C     C_R   0.614333 0.066434 0.736750 0.317902
C83   C     C_R   0.919195 0.603670 0.736592 0.318151
C84   C     C_R   0.385529 0.933633 0.736782 0.317821
C85   C     C_R   0.093502 0.407146 0.764335 -0.159516
C86   C     C_R   0.612138 0.067486 0.763961 -0.158797
C87   C     C_R   0.918065 0.601378 0.763813 -0.159824
C88   C     C_R   0.387721 0.932648 0.763993 -0.158936
C89   C     C_R   0.578310 0.898109 0.263807 -0.160737
C90   C     C_R   0.126732 0.523620 0.264174 -0.159420
C91   C     C_R   0.410455 0.098938 0.264385 -0.161237
C92   C     C_R   0.868809 0.478142 0.264061 -0.159040
C93   C     C_R   0.049449 0.455594 0.777892 -0.076021
C94   C     C_R   0.555791 0.034472 0.777636 -0.076465
C95   C     C_R   0.960799 0.552266 0.777623 -0.076490
C96   C     C_R   0.444068 0.965693 0.777652 -0.076397
C97   C     C_R   0.536698 0.948094 0.277619 -0.076569
C98   C     C_R   0.062516 0.511380 0.277789 -0.077614
C99   C     C_R   0.453468 0.049470 0.277908 -0.076133
C100  C     C_R   0.933226 0.488739 0.277740 -0.075544
C101  C     C_R   0.005674 0.504155 0.763938 0.001112
C102  C     C_R   0.499929 0.000067 0.763827 0.001175
C103  C     C_R   0.494449 0.998588 0.263941 0.000611
C104  C     C_R   0.997769 0.500843 0.263988 -0.001494
C105  C     C_R   0.047416 0.455950 0.805262 0.660837
C106  C     C_R   0.554509 0.034241 0.804997 0.660447
C107  C     C_R   0.960372 0.550761 0.804995 0.661572
C108  C     C_R   0.445357 0.965973 0.805013 0.660334
C109  C     C_R   0.537211 0.949444 0.304982 0.660963
C110  C     C_R   0.061273 0.510877 0.305091 0.660760
C111  C     C_R   0.455565 0.048948 0.305274 0.660830
C112  C     C_R   0.934797 0.486656 0.305041 0.657161
N5    N     N_R   0.003256 0.503036 0.818206 -0.321574
N6    N     N_R   0.499938 0.000114 0.818080 -0.321576
N7    N     N_R   0.497007 0.999383 0.318201 -0.321296
N8    N     N_R   0.998078 0.498366 0.318103 -0.323222
O53   O     O_2   0.418730 0.101186 0.181540 -0.451541
O54   O     O_2   0.870996 0.503950 0.181831 -0.451774
O55   O     O_2   0.564781 0.895302 0.181077 -0.454479
O56   O     O_2   0.123836 0.505272 0.181828 -0.455016
O57   O     O_2   0.912254 0.587194 0.681209 -0.456590
O58   O     O_2   0.398075 0.925499 0.681237 -0.453103
O59   O     O_2   0.102830 0.421471 0.681666 -0.453300
O60   O     O_2   0.601796 0.074436 0.681200 -0.453473
H17   H     H_    0.126168 0.368416 0.774879 0.229229
H18   H     H_    0.656327 0.092555 0.774412 0.229547
H19   H     H_    0.884811 0.639959 0.774171 0.229703
H20   H     H_    0.343532 0.907601 0.774456 0.229552
H21   H     H_    0.612233 0.860011 0.274133 0.228680
H22   H     H_    0.176494 0.533614 0.274651 0.229871
H23   H     H_    0.377325 0.137184 0.274957 0.228631
H24   H     H_    0.819158 0.467114 0.274472 0.229581
O61   O     O_2   0.089375 0.409870 0.818865 -0.503826
O62   O     O_2   0.607197 0.067967 0.818454 -0.502883
O63   O     O_2   0.917270 0.596336 0.818334 -0.502829
O64   O     O_2   0.392673 0.932270 0.818488 -0.502936
O65   O     O_2   0.577845 0.901581 0.318309 -0.503148
O66   O     O_2   0.122527 0.523331 0.318583 -0.499766
O67   O     O_2   0.416170 0.097173 0.318891 -0.504710
O68   O     O_2   0.873702 0.473056 0.318479 -0.501895
C113  C     C_R   0.038509 0.556976 0.860233 0.335284
C114  C     C_R   0.450856 0.044214 0.859768 0.335487
C115  C     C_R   0.964507 0.447464 0.859594 0.335431
C116  C     C_R   0.549094 0.955986 0.859769 0.335334
C117  C     C_R   0.537822 0.052568 0.359712 0.335704
C118  C     C_R   0.964576 0.555833 0.359533 0.335184
C119  C     C_R   0.459248 0.946298 0.360072 0.335058
C120  C     C_R   0.031881 0.442329 0.359784 0.288091
C121  C     C_R   0.037934 0.556083 0.887628 -0.030565
C122  C     C_R   0.450858 0.044266 0.887158 -0.031126
C123  C     C_R   0.963316 0.447035 0.887000 -0.030605
C124  C     C_R   0.549127 0.955890 0.887159 -0.031224
C125  C     C_R   0.538941 0.052423 0.387114 -0.028626
C126  C     C_R   0.964196 0.556307 0.386861 -0.056804
C127  C     C_R   0.459884 0.946495 0.387459 -0.030206
C128  C     C_R   0.033344 0.443560 0.387210 -0.043893
C129  C     C_R   0.000284 0.501146 0.901123 -0.167904
C130  C     C_R   0.499995 0.000058 0.901027 -0.171816
C131  C     C_R   0.499744 0.999550 0.401109 -0.167923
C132  C     C_R   0.999119 0.500244 0.400925 -0.132832
C133  C     C_R   0.002050 0.502497 0.846249 -0.014417
C134  C     C_R   0.499963 0.000106 0.846119 -0.014847
C135  C     C_R   0.498011 0.999462 0.346237 -0.015127
C136  C     C_R   0.998037 0.498748 0.346081 0.012375
C137  C     C_R   0.530793 0.053425 0.141066 -0.112363
C138  C     C_R   0.030328 0.560241 0.140546 -0.124749
C139  C     C_R   0.457861 0.945244 0.140060 -0.124573
C140  C     C_R   0.967244 0.446072 0.140974 -0.115736
C141  C     C_R   0.986355 0.439617 0.641024 -0.113527
C142  C     C_R   0.550574 0.958839 0.640570 -0.122901
C143  C     C_R   0.024133 0.564431 0.639813 -0.115327
C144  C     C_R   0.449304 0.041049 0.640547 -0.122718
H25   H     H_    0.557877 0.095150 0.152163 0.200512
H26   H     H_    0.054615 0.604654 0.151107 0.211795
H27   H     H_    0.429127 0.903312 0.150496 0.205714
H28   H     H_    0.942531 0.402209 0.151726 0.203539
H29   H     H_    0.972572 0.392140 0.652301 0.208947
H30   H     H_    0.590014 0.927872 0.651413 0.204589
H31   H     H_    0.039583 0.612991 0.650152 0.210885
H32   H     H_    0.409856 0.072017 0.651372 0.204731
C145  C     C_R   0.535179 0.053534 0.113862 0.240389
C146  C     C_R   0.035004 0.557982 0.113370 0.256810
C147  C     C_R   0.461355 0.943647 0.112779 0.252580
C148  C     C_R   0.969047 0.443450 0.113839 0.251362
C149  C     C_R   0.982814 0.437428 0.613761 0.230203
C150  C     C_R   0.551951 0.958894 0.613288 0.246416
C151  C     C_R   0.020667 0.564567 0.612527 0.241900
C152  C     C_R   0.447958 0.041002 0.613265 0.246838
C153  C     C_R   0.500182 0.998441 0.099439 -0.256746
C154  C     C_R   0.002609 0.499867 0.099615 -0.270786
C155  C     C_R   0.999738 0.500609 0.599311 -0.254185
C156  C     C_R   0.499967 0.999956 0.599403 -0.266844
C157  C     C_R   0.492849 0.999386 0.154191 0.162446
C158  C     C_R   0.997508 0.504195 0.154411 0.154656
C159  C     C_R   0.006419 0.502661 0.654088 0.155960
C160  C     C_R   0.499934 0.999946 0.654156 0.165630
N9    N     N_3   0.659476 0.235756 0.957422 -0.401170
H33   H     H_    0.625290 0.280142 0.955098 0.193499
H34   H     H_    0.696127 0.235147 0.941951 0.197018
N10   N     N_3   0.763125 0.658477 0.957685 -0.399170
H35   H     H_    0.718727 0.624170 0.955617 0.192431
H36   H     H_    0.763317 0.694824 0.942104 0.197763
N11   N     N_3   0.371335 0.730849 0.969687 -0.393681
H37   H     H_    0.386880 0.678762 0.975158 0.191256
H38   H     H_    0.360443 0.730862 0.949718 0.190800
N12   N     N_3   0.231361 0.337116 0.956537 -0.402365
H39   H     H_    0.275578 0.371008 0.953361 0.193230
H40   H     H_    0.229109 0.299434 0.941409 0.197990
N13   N     N_3   0.369506 0.267217 0.968495 -0.399053
H41   H     H_    0.385670 0.319507 0.973454 0.188932
H42   H     H_    0.357298 0.266164 0.948629 0.188285
N14   N     N_3   0.233091 0.661661 0.956891 -0.414266
H43   H     H_    0.277298 0.627580 0.954034 0.193625
H44   H     H_    0.231563 0.699051 0.941646 0.196713
N15   N     N_3   0.626072 0.728573 0.971237 -0.396286
H45   H     H_    0.610946 0.676864 0.977309 0.190187
H46   H     H_    0.635375 0.727290 0.951170 0.187847
N16   N     N_3   0.729409 0.373195 0.970715 -0.398859
H47   H     H_    0.677614 0.388494 0.976572 0.189762
H48   H     H_    0.728565 0.363369 0.950677 0.188121
N17   N     N_3   0.164746 0.731185 0.456291 -0.393285
H49   H     H_    0.178057 0.771241 0.442853 0.185857
H50   H     H_    0.184598 0.683076 0.448410 0.191489
N18   N     N_3   0.227301 0.124751 0.472146 -0.392702
H51   H     H_    0.175865 0.109981 0.478582 0.194469
H52   H     H_    0.225152 0.133157 0.452034 0.189813
N19   N     N_3   0.874265 0.225534 0.473094 -0.394864
H53   H     H_    0.882245 0.171204 0.477802 0.204184
H54   H     H_    0.872315 0.230550 0.452851 0.191820
N20   N     N_3   0.775030 0.875118 0.473608 -0.390114
H55   H     H_    0.829219 0.883051 0.478484 0.207351
H56   H     H_    0.770448 0.873672 0.453347 0.194420
N21   N     N_3   0.834847 0.730705 0.456200 -0.397261
H57   H     H_    0.821334 0.770547 0.442709 0.189863
H58   H     H_    0.815054 0.682439 0.448412 0.184474
N22   N     N_3   0.729447 0.166067 0.455991 -0.399188
H59   H     H_    0.768885 0.179924 0.442402 0.186610
H60   H     H_    0.680980 0.185935 0.448410 0.185615
N23   N     N_3   0.157274 0.261674 0.458022 -0.402577
H61   H     H_    0.122916 0.217211 0.456237 0.193900
H62   H     H_    0.193218 0.261381 0.442334 0.191734
N24   N     N_3   0.224817 0.875432 0.473769 -0.393479
H63   H     H_    0.170630 0.883315 0.478647 0.205888
H64   H     H_    0.229427 0.874172 0.453507 0.189032
N25   N     N_R   0.628271 0.849331 0.223904 0.254383
O69   O     O_R   0.682360 0.875354 0.210745 -0.274920
O70   O     O_R   0.628682 0.781377 0.230324 -0.287897
N26   N     N_R   0.194093 0.545237 0.224404 0.256051
O71   O     O_R   0.196592 0.603038 0.210014 -0.278800
O72   O     O_R   0.254245 0.515133 0.231660 -0.282716
N27   N     N_R   0.356856 0.146490 0.224855 0.254242
O73   O     O_R   0.302565 0.119879 0.211965 -0.274470
O74   O     O_R   0.355848 0.214390 0.231321 -0.289470
N28   N     N_R   0.800815 0.461403 0.224128 0.255896
O75   O     O_R   0.797644 0.404761 0.209185 -0.278244
O76   O     O_R   0.741014 0.491449 0.231767 -0.281887
N29   N     N_R   0.135471 0.349832 0.724660 0.254830
O77   O     O_R   0.102444 0.301220 0.710780 -0.264890
O78   O     O_R   0.201831 0.338271 0.731791 -0.299843
N30   N     N_R   0.677229 0.095213 0.724220 0.254743
O79   O     O_R   0.718858 0.052455 0.710871 -0.262882
O80   O     O_R   0.701228 0.158615 0.730846 -0.299559
N31   N     N_R   0.879372 0.660019 0.723917 0.255303
O81   O     O_R   0.913560 0.707845 0.710034 -0.265252
O82   O     O_R   0.812983 0.672732 0.730743 -0.299642
N32   N     N_R   0.322638 0.904818 0.724264 0.254807
O83   O     O_R   0.281008 0.947540 0.710883 -0.262658
O84   O     O_R   0.298642 0.841431 0.730929 -0.299990
N33   N     N_R   0.076839 0.612987 0.846574 0.241257
O85   O     O_R   0.117956 0.597368 0.826829 -0.349750
O86   O     O_R   0.071329 0.679955 0.853948 -0.298250
N34   N     N_R   0.401363 0.089774 0.845749 0.241543
O87   O     O_R   0.423436 0.127996 0.826029 -0.350125
O88   O     O_R   0.333977 0.093623 0.852711 -0.297576
N35   N     N_R   0.927080 0.392143 0.845273 0.241664
O89   O     O_R   0.887737 0.408679 0.825150 -0.348790
O90   O     O_R   0.931733 0.324871 0.852382 -0.297469
N36   N     N_R   0.598573 0.910451 0.845752 0.241518
O91   O     O_R   0.576471 0.872229 0.826047 -0.350456
O92   O     O_R   0.665976 0.906624 0.852701 -0.297102
N37   N     N_R   0.577731 0.106424 0.345523 0.242232
O93   O     O_R   0.616506 0.088474 0.325422 -0.350478
O94   O     O_R   0.575919 0.173737 0.352729 -0.301440
N38   N     N_R   0.931667 0.614180 0.345331 0.241348
O95   O     O_R   0.965548 0.644636 0.326039 -0.354104
O96   O     O_R   0.867755 0.637331 0.351653 -0.298359
N39   N     N_R   0.418489 0.892360 0.346259 0.241317
O97   O     O_R   0.377907 0.910308 0.326619 -0.352344
O98   O     O_R   0.421279 0.824989 0.353374 -0.300678
N40   N     N_R   0.063183 0.382967 0.345733 0.220372
O99   O     O_R   0.026267 0.349950 0.327770 -0.344583
O100  O     O_R   0.129991 0.364485 0.349680 -0.338352
N41   N     N_3   0.076151 0.611554 0.901455 -0.371027
H65   H     H_    0.118462 0.588031 0.911878 0.223515
H66   H     H_    0.040770 0.636534 0.914497 0.192581
N42   N     N_3   0.400306 0.089762 0.900540 -0.370714
H67   H     H_    0.428553 0.129941 0.910528 0.224361
H68   H     H_    0.371036 0.058586 0.913833 0.193280
N43   N     N_3   0.924166 0.391028 0.900197 -0.370349
H69   H     H_    0.958872 0.365039 0.913230 0.191881
H70   H     H_    0.881693 0.414301 0.910598 0.219349
N44   N     N_3   0.599711 0.910389 0.900541 -0.370188
H71   H     H_    0.628983 0.941556 0.913829 0.194010
H72   H     H_    0.571489 0.870184 0.910535 0.223783
N45   N     N_3   0.580326 0.106581 0.400419 -0.375368
H73   H     H_    0.546866 0.133479 0.413624 0.185844
H74   H     H_    0.622208 0.081529 0.410602 0.222336
N46   N     N_3   0.927893 0.614560 0.399824 -0.369312
H75   H     H_    0.890958 0.593514 0.413216 0.196058
H76   H     H_    0.965886 0.646800 0.409340 0.235254
N47   N     N_3   0.419512 0.892192 0.401104 -0.372207
H77   H     H_    0.377830 0.916998 0.411456 0.219935
H78   H     H_    0.453759 0.865701 0.414164 0.189586
N48   N     N_3   0.069154 0.387073 0.401346 -0.397489
H79   H     H_    0.124328 0.389209 0.397278 0.234658
H80   H     H_    0.048648 0.337227 0.395302 0.229159
N49   N     N_R   0.573004 0.111507 0.101284 0.205821
O101  O     O_R   0.561404 0.177696 0.108656 -0.323311
O102  O     O_R   0.628936 0.097810 0.086812 -0.326864
N50   N     N_R   0.075870 0.613095 0.100289 0.242693
O103  O     O_R   0.073463 0.679445 0.108560 -0.320332
O104  O     O_R   0.124756 0.595258 0.083275 -0.353832
N51   N     N_R   0.426868 0.885200 0.099086 0.233156
O105  O     O_R   0.369584 0.854681 0.108784 -0.314100
O106  O     O_R   0.457281 0.856269 0.078769 -0.379847
N52   N     N_R   0.935254 0.383607 0.101120 0.224711
O107  O     O_R   0.865895 0.374768 0.103267 -0.322766
O108  O     O_R   0.974695 0.330116 0.092972 -0.313207
N53   N     N_R   0.964414 0.370116 0.601320 0.213472
O109  O     O_R   0.980349 0.309213 0.612586 -0.306552
O110  O     O_R   0.925105 0.368723 0.580345 -0.371063
N54   N     N_R   0.607718 0.918952 0.600137 0.233387
O111  O     O_R   0.632718 0.859713 0.610351 -0.316079
O112  O     O_R   0.640647 0.946402 0.580055 -0.378252
N55   N     N_R   0.038080 0.630047 0.598693 0.226367
O113  O     O_R   0.082515 0.676597 0.608856 -0.317728
O114  O     O_R   0.004113 0.647386 0.577409 -0.385368
N56   N     N_R   0.392206 0.080948 0.600090 0.233262
O115  O     O_R   0.367187 0.140179 0.610283 -0.316898
O116  O     O_R   0.359309 0.053510 0.580005 -0.378563

loop_
_geom_bond_atom_site_label_1
_geom_bond_atom_site_label_2
_geom_bond_distance
_ccdc_geom_bond_type
N33   O85   1.301116 A    
N51   O106  1.301563 A    
N11   H37   1.045392 S    
C73   C103  1.416579 A    
C49   H9    1.085712 S    
C74   C104  1.412668 A    
N15   H46   1.045027 S    
N25   O69   1.301337 A    
C116  N36   1.439402 S    
N54   O111  1.301440 A    
N46   H76   1.044616 S    
C64   O60   1.348294 S    
O5    C1    1.283214 A    
C30   C46   1.349320 D    
C5    C129  1.476145 S    
C105  N5    1.368803 A    
N38   O95   1.301246 A    
C88   C96   1.398990 A    
N27   O74   1.301135 A    
C115  N35   1.439493 S    
C69   C81   1.422500 A    
C62   N4    1.366254 A    
C150  N54   1.439790 S    
O34   C22   1.277017 A    
Zn14  O36   1.941955 S    
C152  C156  1.419559 A    
C67   C79   1.422683 A    
N22   H59   1.042548 S    
O52   C22   1.271379 A    
O41   C15   1.271486 A    
C18   C51   1.459390 S    
C94   C106  1.405066 A    
Zn15  O35   1.941929 S    
C106  O62   1.349569 S    
Zn4   O2    1.946923 S    
O47   C17   1.271658 A    
N52   O108  1.300875 A    
C46   H6    1.084553 S    
C8    C132  1.482134 S    
C40   C56   1.349311 D    
C95   C101  1.407513 A    
C117  N37   1.439499 S    
C36   C37   1.482190 S    
C144  C160  1.395930 A    
C137  C157  1.396363 A    
N24   H63   1.045486 S    
C141  H29   1.083235 S    
Zn14  O30   1.941550 S    
C80   N28   1.434652 S    
N28   O75   1.301416 A    
N44   H72   1.044543 S    
O22   C10   1.278070 A    
C80   C92   1.397307 A    
C84   N32   1.434108 S    
C65   C73   1.418718 A    
Zn12  O24   1.941345 S    
C85   H17   1.083666 S    
N15   H45   1.045384 S    
Zn16  O4    1.943659 S    
C34   N18   1.438004 S    
Zn1   O13   1.924170 S    
N16   H47   1.045389 S    
C72   C84   1.422331 A    
C121  C129  1.414813 A    
C128  N48   1.435960 S    
C25   C32   1.479658 S    
C119  C127  1.406263 A    
Zn4   O16   1.924253 S    
N24   H64   1.044146 S    
N50   O104  1.301546 A    
Zn7   O3    1.948269 S    
C140  H28   1.083601 S    
C110  N8    1.368180 A    
N41   H65   1.044654 S    
C113  C121  1.406750 A    
N43   H69   1.045583 S    
O11   C3    1.282134 A    
N14   H43   1.044987 S    
C87   C95   1.399179 A    
C82   C86   1.397872 A    
C137  H25   1.083575 S    
O49   C23   1.272408 A    
C148  C154  1.418256 A    
C91   H23   1.083709 S    
C125  C131  1.415062 A    
Zn9   O7    1.923654 S    
C89   H21   1.083739 S    
N26   O71   1.301438 A    
N42   H68   1.045575 S    
N39   O97   1.301147 A    
C107  N5    1.368708 A    
C140  C158  1.396456 A    
N45   H73   1.045579 S    
Zn9   O25   1.941816 S    
Zn10  O22   1.941550 S    
C33   C49   1.350754 D    
N9    H34   1.045369 S    
N49   O101  1.301287 A    
Zn13  O29   1.942410 S    
C146  C154  1.420692 A    
Zn10  O2    1.943853 S    
N30   O79   1.301361 A    
Zn3   O1    1.948269 S    
Zn2   O44   1.931288 S    
C58   O54   1.348532 S    
C60   C66   1.408151 A    
C145  N49   1.435546 S    
C90   C98   1.398852 A    
C147  C153  1.419956 A    
N21   H57   1.042533 S    
Zn4   O42   1.931515 S    
N1    C157  1.438312 S    
C40   N24   1.438680 S    
C94   C102  1.407393 A    
C97   C109  1.405235 A    
N40   O99   1.301158 A    
C113  C133  1.410909 A    
C110  O66   1.349805 S    
Zn8   O46   1.930812 S    
C152  N56   1.439799 S    
C142  C150  1.401063 A    
C77   C89   1.397547 A    
C22   C55   1.455756 S    
N31   O81   1.301395 A    
C86   C94   1.398984 A    
O8    C2    1.284711 A    
C88   H20   1.083685 S    
N11   H38   1.044997 S    
C14   C47   1.458213 S    
C82   N30   1.434105 S    
O16   C6    1.287372 A    
O14   C6    1.287413 A    
Zn15  O9    1.924069 S    
C62   C72   1.411821 A    
C21   C54   1.456198 S    
C68   C80   1.421560 A    
N47   H77   1.044587 S    
Zn12  O6    1.923986 S    
O40   C10   1.272125 A    
N18   H51   1.045393 S    
C53   H13   1.085701 S    
C56   H16   1.085973 S    
N20   H56   1.044097 S    
O45   C19   1.272549 A    
O17   C7    1.286791 A    
C122  N42   1.435819 S    
Zn5   O17   1.924170 S    
C13   C46   1.454928 S    
Zn12  O26   1.942240 S    
C10   C43   1.458557 S    
O9    C3    1.282162 A    
C27   N11   1.437906 S    
C144  H32   1.083213 S    
C50   H10   1.084777 S    
N13   H42   1.045023 S    
C139  C157  1.397473 A    
C41   H1    1.084574 S    
C120  C136  1.407327 A    
C76   C102  1.415969 A    
N34   O87   1.301184 A    
N53   O110  1.300464 A    
C61   O57   1.348384 S    
N17   H50   1.045910 S    
C125  N45   1.435785 S    
Zn10  O28   1.941955 S    
N23   H62   1.045377 S    
C70   C82   1.422328 A    
O50   C24   1.271635 A    
Zn10  O8    1.923888 S    
C127  N47   1.435815 S    
Zn11  O5    1.924069 S    
C126  C132  1.420815 A    
C124  N44   1.435803 S    
N10   H36   1.045373 S    
C63   N3    1.367828 A    
Zn1   O41   1.930228 S    
C95   C107  1.405725 A    
C48   H8    1.084738 S    
C59   N1    1.367200 A    
C112  N8    1.368370 A    
C38   C54   1.350766 D    
C145  C153  1.418055 A    
C34   C39   1.479744 S    
C42   H2    1.084550 S    
N7    C135  1.439677 S    
C138  C158  1.397761 A    
C118  C126  1.403219 A    
N5    C133  1.440107 S    
C96   C102  1.407388 A    
C142  H30   1.083211 S    
N48   H79   1.044571 S    
C117  C125  1.407125 A    
C65   C77   1.422739 A    
C77   N25   1.433778 S    
C66   C74   1.417061 A    
C98   C110  1.402073 A    
C64   N4    1.366252 A    
C118  N38   1.439319 S    
N43   H70   1.044709 S    
C57   N1    1.366926 A    
Zn1   O1    1.948077 S    
C100  C104  1.407116 A    
C58   C68   1.409163 A    
N54   O112  1.301445 A    
Zn1   O39   1.931115 S    
Zn2   O40   1.930703 S    
C25   N9    1.438307 S    
Zn3   O37   1.930833 S    
C1    C154  1.478534 S    
N38   O96   1.301241 A    
O42   C16   1.271972 A    
C57   O53   1.348218 S    
C92   H24   1.083660 S    
Zn7   O51   1.930431 S    
C144  C152  1.401047 A    
C138  H26   1.083345 S    
N22   H60   1.045977 S    
N32   O83   1.301362 A    
C141  C159  1.397277 A    
C81   C85   1.398501 A    
C142  C160  1.395942 A    
C60   O56   1.348685 S    
C29   C45   1.350873 D    
O6    C2    1.281838 A    
C84   C88   1.397879 A    
O18   C8    1.289931 A    
N37   O94   1.301234 A    
C115  C133  1.411357 A    
C79   C91   1.398142 A    
C139  C147  1.402614 A    
C126  N46   1.435799 S    
O10   C4    1.282631 A    
C79   N27   1.433994 S    
C32   C48   1.350778 D    
C39   C55   1.349520 D    
N55   O114  1.301373 A    
C67   C73   1.418955 A    
Zn15  O3    1.942512 S    
C71   C83   1.422441 A    
C11   C44   1.455396 S    
C72   C76   1.418845 A    
Zn16  O34   1.942240 S    
C31   C47   1.350657 D    
N12   H39   1.044998 S    
C6    C130  1.478954 S    
N28   O76   1.301160 A    
C59   C65   1.412095 A    
C91   C99   1.399041 A    
N56   O115  1.301438 A    
C106  N6    1.368720 A    
O27   C15   1.277870 A    
C89   C97   1.398727 A    
Zn5   O47   1.931115 S    
C112  O68   1.349710 S    
Zn6   O48   1.930703 S    
N36   O91   1.301180 A    
Zn7   O45   1.930833 S    
C92   C100  1.399043 A    
O35   C23   1.277546 A    
C93   C101  1.407382 A    
C59   O55   1.348295 S    
C137  C145  1.399153 A    
C12   C41   1.455097 S    
N16   H48   1.045023 S    
N35   O89   1.301119 A    
O32   C20   1.276759 A    
C143  C151  1.402484 A    
C78   C90   1.396814 A    
Zn15  O31   1.942634 S    
N29   O78   1.301125 A    
C93   C105  1.405863 A    
C147  N51   1.440540 S    
C33   C40   1.481722 S    
C105  O61   1.349493 S    
C85   C93   1.399259 A    
N19   H53   1.045491 S    
N33   O86   1.301223 A    
C37   N21   1.443442 S    
O12   C4    1.281508 A    
C151  N55   1.441866 S    
C63   O59   1.348266 S    
O48   C18   1.273020 A    
N14   H44   1.045369 S    
C97   C103  1.407542 A    
O38   C12   1.271268 A    
N25   O70   1.301096 A    
Zn16  O10   1.923986 S    
Zn13  O3    1.943331 S    
C148  N52   1.430998 S    
Zn14  O4    1.943853 S    
C29   N13   1.437932 S    
N46   H75   1.045537 S    
C54   H14   1.085675 S    
N26   O72   1.301184 A    
C57   C67   1.412792 A    
C26   N10   1.438281 S    
C96   C108  1.405076 A    
O21   C9    1.277040 A    
C26   C42   1.349657 D    
C51   H11   1.085989 S    
Zn6   O18   1.923837 S    
C99   C111  1.405683 A    
C86   H18   1.083685 S    
C87   H19   1.083651 S    
C151  C155  1.419493 A    
N9    H33   1.045016 S    
C140  C148  1.394501 A    
N27   O73   1.301356 A    
O25   C13   1.276815 A    
C122  C130  1.416734 A    
N30   O80   1.301122 A    
C75   C101  1.416510 A    
C149  C155  1.420427 A    
C78   N26   1.434896 S    
C119  N39   1.439453 S    
C127  C131  1.415247 A    
N52   O107  1.300634 A    
O36   C24   1.276654 A    
N40   O100  1.300741 A    
C7    C131  1.476512 S    
O31   C19   1.277588 A    
C117  C135  1.411007 A    
Zn11  O1    1.942512 S    
C90   H22   1.083654 S    
O43   C13   1.271464 A    
O28   C16   1.277676 A    
N31   O82   1.301161 A    
N44   H71   1.045578 S    
Zn5   O3    1.948077 S    
Zn6   O4    1.947746 S    
Zn2   O14   1.923837 S    
C123  C129  1.414269 A    
C36   N20   1.438566 S    
C58   N2    1.367722 A    
N23   H61   1.045006 S    
C114  N34   1.439408 S    
O46   C20   1.271604 A    
C61   C71   1.412235 A    
N18   H52   1.045006 S    
C17   C50   1.458107 S    
C28   N12   1.438368 S    
C44   H4    1.084356 S    
C143  H31   1.083127 S    
C111  N7    1.368729 A    
C128  C132  1.414954 A    
N50   O103  1.301337 A    
C146  N50   1.437393 S    
N51   O105  1.301685 A    
N41   H66   1.045581 S    
C100  C112  1.402585 A    
C66   C78   1.421434 A    
C52   H12   1.085971 S    
C111  O67   1.349521 S    
O23   C11   1.276618 A    
C36   C52   1.349529 D    
C109  O65   1.349595 S    
N12   H40   1.045359 S    
Zn8   O50   1.931515 S    
C16   C45   1.459056 S    
C55   H15   1.084647 S    
Zn2   O2    1.947746 S    
N13   H41   1.045374 S    
O7    C1    1.285542 A    
C83   N31   1.434512 S    
O26   C14   1.277930 A    
C119  C135  1.410545 A    
C30   N14   1.438450 S    
N42   H67   1.044554 S    
Zn16  O32   1.941345 S    
N34   O88   1.301223 A    
N53   O109  1.301607 A    
C27   C30   1.480126 S    
C35   N19   1.438559 S    
N47   H78   1.045590 S    
N17   H49   1.042555 S    
C28   C44   1.349661 D    
O19   C7    1.287539 A    
Zn8   O4    1.946923 S    
C2    C153  1.473056 S    
C45   H5    1.084629 S    
C150  C156  1.419552 A    
O37   C11   1.271114 A    
N49   O102  1.300761 A    
C47   H7    1.084722 S    
O15   C5    1.286503 A    
O13   C5    1.287561 A    
O51   C21   1.271777 A    
C115  C123  1.407373 A    
N2    C158  1.438226 S    
O20   C8    1.286997 A    
O44   C14   1.271714 A    
N21   H58   1.045920 S    
C60   N2    1.368160 A    
O24   C12   1.276547 A    
Zn11  O27   1.941929 S    
C25   C41   1.349317 D    
C69   C75   1.418232 A    
C99   C103  1.407451 A    
C34   C50   1.350674 D    
C70   C76   1.418838 A    
C32   N16   1.438006 S    
Zn6   O52   1.931288 S    
C68   C74   1.417422 A    
N35   O90   1.301221 A    
C123  N43   1.435595 S    
C62   O58   1.348296 S    
N48   H80   1.045596 S    
N39   O98   1.301237 A    
N19   H54   1.044103 S    
Zn5   O49   1.930228 S    
C118  C136  1.407539 A    
N55   O113  1.301545 A    
C83   C87   1.398423 A    
C138  C146  1.398687 A    
C39   N23   1.438402 S    
N45   H74   1.044662 S    
O29   C17   1.277967 A    
N20   H55   1.045490 S    
N3    C159  1.441146 S    
C81   N29   1.434221 S    
C28   C29   1.481002 S    
Zn9   O21   1.942410 S    
C37   C53   1.350688 D    
C108  O64   1.349566 S    
Zn11  O23   1.942634 S    
C61   N3    1.368080 A    
C149  N53   1.442016 S    
Zn13  O33   1.941816 S    
Zn9   O1    1.943331 S    
N6    C134  1.439655 S    
N32   O84   1.301123 A    
C23   C56   1.458934 S    
O39   C9    1.271342 A    
C43   H3    1.084763 S    
C71   C75   1.417991 A    
C114  C122  1.406368 A    
C116  C134  1.410106 A    
C124  C130  1.416702 A    
C108  N6    1.368724 A    
C63   C69   1.412677 A    
C31   N15   1.438045 S    
N37   O93   1.301142 A    
C38   N22   1.443470 S    
Zn4   O38   1.930812 S    
Zn7   O19   1.924072 S    
C15   C48   1.458060 S    
C35   C51   1.349357 D    
O33   C21   1.277068 A    
Zn8   O20   1.924253 S    
C64   C70   1.411812 A    
C141  C149  1.401992 A    
C3    C156  1.471581 S    
C4    C155  1.468900 S    
N10   H35   1.045017 S    
C120  C128  1.408633 A    
C143  C159  1.397594 A    
C20   C49   1.456356 S    
C19   C52   1.459589 S    
C27   C43   1.350773 D    
C24   C53   1.456536 S    
Zn3   O15   1.924072 S    
C107  O63   1.349509 S    
C139  H27   1.083279 S    
N56   O116  1.301449 A    
C26   C31   1.479972 S    
C121  N41   1.435859 S    
C109  N7    1.368539 A    
C35   C38   1.482086 S    
C98   C104  1.407229 A    
C9    C42   1.455779 S    
N36   O92   1.301225 A    
N8    C136  1.436564 S    
N4    C160  1.436574 S    
C33   N17   1.443287 S    
Zn12  O2    1.943659 S    
C116  C124  1.406337 A    
Zn13  O11   1.923654 S    
C113  N33   1.439456 S    
Zn14  O12   1.923888 S    
N29   O77   1.301378 A    
C114  C134  1.410115 A    
C120  N40   1.437917 S    
O30   C18   1.277766 A    
Zn3   O43   1.930431 S    
