data_mof_unit_43766.cif
_audit_creation_date              2012-12-11T14:36:07-0500
_audit_creation_method            fapswitch 2.2
_symmetry_space_group_name_H-M    P1
_symmetry_Int_Tables_number       1
_space_group_crystal_system       triclinic
_cell_length_a                    13.534161
_cell_length_b                    13.479609
_cell_length_c                    27.512093
_cell_angle_alpha                 90.927507
_cell_angle_beta                  90.541788
_cell_angle_gamma                 60.100457
_cell_volume                      4350.55003699

loop_
_atom_site_label
_atom_site_type_symbol
_atom_type_description
_atom_site_fract_x
_atom_site_fract_y
_atom_site_fract_z
_atom_type_partial_charge
C1    C     C_R   0.620783 0.101655 0.569936 0.548264
C2    C     C_1   0.651138 0.702345 0.657812 -0.029334
C3    C     C_3   0.087114 0.143683 0.734945 0.113912
C4    C     C_R   0.599866 0.779378 0.568624 0.545728
C5    C     C_3   0.170862 0.070800 0.774453 0.135305
C6    C     C_1   0.089004 0.204860 0.901111 0.002667
C7    C     C_1   0.232108 0.138873 0.617704 -0.000822
C8    C     C_3   0.045793 0.252975 0.766546 -0.148579
C9    C     C_3   0.131934 0.178095 0.806225 0.081821
C10   C     C_3   0.140088 0.271247 0.743123 -0.117315
C11   C     C_3   0.179568 0.160932 0.711895 0.034011
C12   C     C_1   0.632418 0.730686 0.615953 -0.002464
C13   C     C_3   0.223805 0.196067 0.782974 0.106125
C14   C     C_3   0.266332 0.085884 0.751609 -0.087949
C15   C     C_1   0.111346 0.188725 0.858550 -0.008544
C16   C     C_R   0.278498 0.121841 0.569744 0.545983
C17   C     C_1   0.204559 0.150205 0.659804 -0.029051
C18   C     C_3   0.631470 0.276546 0.740028 -0.123834
C19   C     C_3   0.558456 0.253399 0.776587 -0.100898
C20   C     C_1   0.691564 0.207058 0.902777 -0.010927
C21   C     C_1   0.638643 0.134275 0.617553 -0.001570
C22   C     C_3   0.739062 0.206505 0.771937 -0.122093
C23   C     C_3   0.721044 0.552780 0.767318 -0.126638
C24   C     C_3   0.666117 0.183054 0.807713 0.033848
C25   C     C_3   0.766428 0.095196 0.743375 -0.120329
C26   C     C_3   0.659657 0.165643 0.712095 0.078845
C27   C     C_3   0.694451 0.071597 0.779991 -0.071537
C28   C     C_R   0.621708 0.099570 0.431069 0.570034
C29   C     C_3   0.589293 0.142465 0.748197 0.131564
C30   C     C_1   0.675746 0.194799 0.860419 -0.053220
C31   C     C_1   0.650331 0.152295 0.659616 -0.027373
C32   C     C_R   0.727939 0.712086 0.357835 -0.166020
C33   C     C_R   0.739334 0.698756 0.307421 0.005715
C34   C     C_3   0.681989 0.650967 0.805481 0.051765
C35   C     C_R   0.759386 0.674297 0.205880 0.015071
C36   C     C_R   0.850129 0.665901 0.234002 -0.131412
C37   C     C_R   0.839554 0.679626 0.284459 -0.127361
C38   C     C_R   0.773087 0.646727 0.156289 -0.135912
C39   C     C_R   0.683754 0.646481 0.129898 -0.005843
C40   C     C_R   0.600409 0.777055 0.429749 0.561511
C41   C     C_R   0.544925 0.717818 0.352647 0.097516
C42   C     C_R   0.548644 0.720338 0.301846 0.020757
C43   C     C_R   0.647342 0.708289 0.279307 0.043337
C44   C     C_R   0.455332 0.736235 0.273115 -0.135101
C45   C     C_3   0.607619 0.624604 0.738746 -0.129143
C46   C     C_R   0.461016 0.736991 0.222852 -0.142636
C47   C     C_R   0.562506 0.713796 0.200438 0.010136
C48   C     C_R   0.655762 0.700957 0.228497 0.067177
C49   C     C_R   0.575745 0.691607 0.150871 -0.132266
C50   C     C_R   0.629193 0.726344 0.380543 0.033205
C51   C     C_R   0.207100 0.062468 0.357605 -0.134588
C52   C     C_R   0.277790 0.120928 0.430896 0.542069
C53   C     C_R   0.183343 0.075695 0.307717 0.025391
C54   C     C_R   0.145345 0.098323 0.207165 0.012605
C55   C     C_R   0.146591 0.007232 0.231683 -0.119241
C56   C     C_3   0.664531 0.680374 0.710039 0.055834
C57   C     C_R   0.167798 0.994691 0.281493 -0.122914
C58   C     C_R   0.116674 0.114877 0.158167 -0.153907
C59   C     C_R   0.115394 0.205539 0.133521 -0.000127
C60   C     C_R   0.202478 0.244536 0.359915 -0.107562
C61   C     C_R   0.188735 0.254494 0.309784 0.018482
C62   C     C_R   0.179375 0.169501 0.283327 0.024145
C63   C     C_R   0.189520 0.345301 0.285844 0.130057
C64   C     C_3   0.775119 0.610463 0.738290 0.125028
C65   C     C_R   0.186186 0.349295 0.234981 0.124591
C66   C     C_R   0.172571 0.266041 0.207562 0.043216
C67   C     C_3   0.571592 0.720647 0.777138 0.109776
C68   C     C_R   0.165846 0.178132 0.232637 0.004408
C69   C     C_R   0.159010 0.270569 0.156491 0.095847
C70   C     C_R   0.221252 0.144924 0.383352 -0.016796
C71   C     C_R   0.569240 0.241733 0.363481 0.085730
C72   C     C_R   0.573638 0.259490 0.313115 0.001025
C73   C     C_R   0.582331 0.289531 0.212016 0.044135
C74   C     C_R   0.506279 0.382362 0.241717 0.102539
C75   C     C_R   0.503116 0.366644 0.291887 -0.115037
C76   C     C_3   0.738926 0.706731 0.776779 -0.085508
C77   C     C_R   0.595327 0.303815 0.162481 -0.119931
C78   C     C_3   0.625422 0.778354 0.748246 -0.090104
C79   C     C_R   0.677868 0.212373 0.134657 -0.016427
C80   C     C_R   0.719678 0.043293 0.352687 -0.157947
C81   C     C_R   0.722828 0.058865 0.303303 0.006834
C82   C     C_R   0.649013 0.166601 0.283092 0.033145
C83   C     C_R   0.797072 0.966427 0.273729 -0.118289
C84   C     C_R   0.798871 0.980081 0.223963 -0.122177
C85   C     C_R   0.728132 0.087080 0.203428 0.015569
C86   C     C_R   0.652216 0.181063 0.232801 0.037711
C87   C     C_R   0.738031 0.102909 0.154430 -0.129552
C88   C     C_1   0.697027 0.606938 0.900143 -0.006644
C89   C     C_1   0.689054 0.631726 0.857897 -0.036198
C90   C     C_R   0.640417 0.131811 0.382693 0.040378
C91   C     C_R   0.048063 0.236612 0.949690 0.543831
C92   C     C_R   0.711476 0.562702 0.948226 0.543708
C93   C     C_R   0.722216 0.225318 0.950842 0.544066
C94   C     C_R   0.050743 0.243975 0.087793 0.546220
C95   C     C_R   0.707610 0.576730 0.085710 0.546444
C96   C     C_R   0.718398 0.233769 0.089084 0.546628
Cr1   Cr    Cr6+3 0.417550 0.169090 0.500530 1.048811
Cr2   Cr    Cr6+3 0.669180 0.913420 0.499920 1.028695
Cr3   Cr    Cr6+3 0.413260 0.917540 0.499520 1.042614
Cr4   Cr    Cr6+3 0.909170 0.177380 0.020380 1.024202
Cr5   Cr    Cr6+3 0.912710 0.429210 0.018220 1.020229
Cr6   Cr    Cr6+3 0.657170 0.432570 0.019030 1.029523
H1    H     H_    0.473063 0.317355 0.790514 0.107204
H2    H     H_    0.219329 0.986379 0.375753 0.116126
H3    H     H_    0.131311 0.945536 0.212268 0.103200
H4    H     H_    0.170341 0.922679 0.299623 0.094985
H5    H     H_    0.209750 0.310037 0.380263 0.179879
H6    H     H_    0.548027 0.387570 0.146330 0.157318
H7    H     H_    0.445505 0.439371 0.314077 0.094630
H8    H     H_    0.800109 0.031469 0.132630 0.129156
H9    H     H_    0.857722 0.907743 0.201723 0.104765
H10   H     H_    0.854098 0.883620 0.289171 0.107026
H11   H     H_    0.774637 0.958553 0.367084 0.134439
H12   H     H_    0.607174 0.359985 0.723212 0.104242
H13   H     H_    0.355412 0.016761 0.745480 0.118295
H14   H     H_    0.793998 0.738813 0.792214 0.110346
H15   H     H_    0.330246 0.261647 0.788298 0.220134
H16   H     H_    0.357784 0.156882 0.828344 0.234427
H17   H     H_    0.131773 0.352437 0.729983 0.119743
H18   H     H_    0.955634 0.319064 0.772715 0.093715
H19   H     H_    0.487896 0.077071 0.764146 0.216777
H20   H     H_    0.438827 0.172519 0.718399 0.231259
H21   H     H_    0.717662 0.988114 0.796503 0.106894
H22   H     H_    0.856013 0.614927 0.139682 0.121610
H23   H     H_    0.849421 0.027651 0.728828 0.116034
H24   H     H_    0.946590 0.516448 0.744470 0.224382
H25   H     H_    0.892946 0.480992 0.696288 0.227517
H26   H     H_    0.929618 0.647091 0.217091 0.104108
H27   H     H_    0.505509 0.695407 0.130026 0.131951
H28   H     H_    0.454184 0.636466 0.362479 0.214154
H29   H     H_    0.377233 0.781826 0.369038 0.224573
H30   H     H_    0.584035 0.870854 0.740163 0.134423
H31   H     H_    0.124169 0.412295 0.117280 0.252538
H32   H     H_    0.239175 0.287494 0.097377 0.245838
H33   H     H_    0.264554 0.411683 0.192149 0.289683
H34   H     H_    0.801341 0.233809 0.782597 0.102747
H35   H     H_    0.117243 0.491657 0.192800 0.232434
H36   H     H_    0.123553 0.512146 0.305211 0.243228
H37   H     H_    0.267687 0.436349 0.302753 0.250636
H38   H     H_    0.409042 0.362884 0.383082 0.238873
H39   H     H_    0.511279 0.399251 0.393996 0.224612
H40   H     H_    0.484983 0.525405 0.210430 0.232117
H41   H     H_    0.376687 0.549468 0.246984 0.225313
H42   H     H_    0.400941 0.815341 0.770440 0.238260
H43   H     H_    0.444457 0.722301 0.816182 0.240833
H44   H     H_    0.552354 0.592698 0.723364 0.103854
H45   H     H_    0.793940 0.715584 0.379170 0.123854
H46   H     H_    0.760575 0.460335 0.775341 0.094139
H47   H     H_    0.194594 0.911876 0.761232 0.234964
H48   H     H_    0.105586 0.982243 0.807288 0.228670
H49   H     H_    0.969081 0.095363 0.733658 0.217337
H50   H     H_    0.954861 0.184471 0.688932 0.229899
H51   H     H_    0.910547 0.672824 0.305614 0.100724
H52   H     H_    0.388551 0.747890 0.201539 0.113209
H53   H     H_    0.377234 0.748282 0.288924 0.101744
H54   H     H_    0.089448 0.060605 0.139923 0.130402
N1    N     N_3   0.292996 0.230007 0.811866 -0.626166
N2    N     N_3   0.459116 0.782419 0.799074 -0.604307
N3    N     N_3   0.183210 0.963674 0.791739 -0.622249
N4    N     N_3   0.014172 0.112174 0.707795 -0.626770
N5    N     N_3   0.511457 0.102993 0.732961 -0.649684
N6    N     N_3   0.887536 0.550284 0.716146 -0.620339
N7    N     N_3   0.455372 0.708687 0.376195 -0.597951
N8    N     N_3   0.194728 0.335488 0.127991 -0.648494
N9    N     N_3   0.190908 0.442876 0.213214 -0.636712
N10   N     N_3   0.195274 0.433661 0.313475 -0.656181
N11   N     N_3   0.492510 0.332911 0.395227 -0.609923
N12   N     N_3   0.433079 0.492600 0.220923 -0.646054
O1    O     O_R   0.301710 0.195650 0.554160 -0.507601
O2    O     O_R   0.635520 0.542770 0.964420 -0.504501
O3    O     O_R   0.665950 0.325030 0.970100 -0.492907
O4    O     O_R   0.522390 0.158990 0.550460 -0.494068
O5    O     O_R   0.816620 0.158530 0.074540 -0.519908
O6    O     O_R   0.004460 0.188870 0.069750 -0.501694
O7    O     O_R   0.025800 0.341780 0.072300 -0.523323
O8    O     O_R   0.807650 0.528950 0.067500 -0.502966
O9    O     O_R   0.633420 0.550490 0.071810 -0.519614
O10   O     O_R   0.664000 0.332180 0.069640 -0.501029
O11   O     O_3   0.826350 0.346390 0.019210 -0.246495
O12   O     O_R   0.658900 0.818120 0.449760 -0.515765
O13   O     O_R   0.694390 0.003530 0.554040 -0.501260
O14   O     O_R   0.657700 0.819660 0.549320 -0.490165
O15   O     O_R   0.501930 0.803280 0.552920 -0.506509
O16   O     O_R   0.318170 0.023580 0.549580 -0.493179
O17   O     O_R   0.303010 0.193990 0.446760 -0.519688
O18   O     O_R   0.523600 0.157450 0.450900 -0.459437
O19   O     O_R   0.695690 0.001860 0.446640 -0.534725
O20   O     O_R   0.503220 0.801620 0.445520 -0.471196
O21   O     O_R   0.319370 0.022040 0.450020 -0.499108
O22   O     O_3   0.499990 0.000010 0.499990 -0.258923
O23   O     O_R   0.818720 0.150820 0.967160 -0.508001
O24   O     O_R   0.006410 0.181720 0.970200 -0.497185
O25   O     O_R   0.027890 0.334070 0.964920 -0.504629
O26   O     O_R   0.809600 0.521790 0.967960 -0.497174

loop_
_geom_bond_atom_site_label_1
_geom_bond_atom_site_label_2
_ccdc_geom_bond_type
H28   N7    S    
Cr6   O2    S    
C66   C68   A    
C20   C93   S    
C63   C65   A    
C1    C21   S    
C23   C45   S    
C27   C29   S    
C41   C42   A    
C54   C55   A    
C35   C36   A    
C18   C26   S    
C24   C27   S    
Cr2   O22   S    
C2    C12   T    
C18   H12   S    
C74   N12   S    
C81   C82   A    
Cr1   O1    S    
C47   C49   A    
C87   H8    S    
C20   C30   T    
C85   C86   A    
Cr1   O17   S    
C21   C31   T    
Cr1   O4    S    
C55   H3    S    
C83   C84   A    
C36   C37   A    
C76   C78   S    
C92   O26   A    
C38   C39   A    
C91   O25   A    
C11   C14   S    
H50   N4    S    
C66   C69   A    
C54   C68   A    
C91   O24   A    
C14   H13   S    
C65   N9    S    
C56   C78   S    
C18   C19   S    
C73   C74   A    
C61   C63   A    
C9    C13   S    
C78   H30   S    
C10   H17   S    
C6    C15   T    
C40   O12   A    
C19   H1    S    
C16   O1    A    
C95   O9    A    
C63   N10   S    
C93   O3    A    
C88   C92   S    
C45   C56   S    
Cr5   O25   S    
C8    C9    S    
C7    C17   T    
C22   C25   S    
C45   C67   S    
C56   C64   S    
C59   C94   S    
H29   N7    S    
C4    C12   S    
C43   C48   A    
Cr3   O15   S    
C94   O7    A    
H38   N11   S    
C77   C79   A    
C57   H4    S    
C72   C82   A    
C26   C31   S    
C71   N11   S    
C13   C14   S    
C96   O5    A    
Cr6   O11   S    
Cr4   O24   S    
C67   C78   S    
C42   C44   A    
C72   C75   A    
C35   C48   A    
C13   N1    S    
Cr3   O20   S    
C81   C83   A    
C44   C46   A    
C24   C30   S    
C93   O23   A    
H33   N9    S    
Cr1   O18   S    
C46   H52   S    
H39   N11   S    
C84   H9    S    
C75   H7    S    
C74   C75   A    
C85   C87   A    
H15   N1    S    
C45   H44   S    
C33   C43   A    
C37   H51   S    
C35   C38   A    
C3    C11   S    
C84   C85   A    
C64   N6    S    
C3    C8    S    
H48   N3    S    
C28   O19   A    
C92   O2    A    
C32   H45   S    
C27   H21   S    
Cr5   O8    S    
C5    N3    S    
C25   C26   S    
C82   C86   A    
C49   H27   S    
C1    O13   A    
C33   C37   A    
C22   H34   S    
C60   C61   A    
C51   C53   A    
C9    C15   S    
Cr2   O14   S    
H37   N10   S    
C95   O8    A    
C5    C9    S    
Cr2   O19   S    
Cr5   O11   S    
C28   O18   A    
H47   N3    S    
C53   C62   A    
C47   C48   A    
C60   C70   A    
C23   C34   S    
H19   N5    S    
C64   C76   S    
C88   C89   T    
H20   N5    S    
C39   C95   S    
C5    C14   S    
C79   C87   A    
C60   H5    S    
C58   H54   S    
C59   C69   A    
Cr1   O22   S    
C51   C70   A    
C94   O6    A    
H25   N6    S    
C41   N7    S    
Cr4   O6    S    
H35   N9    S    
Cr6   O10   S    
C22   C24   S    
Cr5   O7    S    
Cr4   O23   S    
C52   O17   A    
H42   N2    S    
C19   C29   S    
H31   N8    S    
C41   C50   A    
C36   H26   S    
Cr5   O26   S    
C8    H18   S    
Cr3   O16   S    
C54   C58   A    
Cr6   O3    S    
C46   C47   A    
C11   C17   S    
C53   C57   A    
C39   C49   A    
C18   C22   S    
C44   H53   S    
C77   H6    S    
C7    C16   S    
C80   C81   A    
C3    C5    S    
C10   C13   S    
C34   C67   S    
Cr3   O22   S    
C16   O16   A    
C40   O20   A    
C25   C27   S    
C23   H46   S    
C1    O4    A    
Cr3   O21   S    
C62   C68   A    
H36   N10   S    
C96   O10   A    
H49   N4    S    
Cr2   O13   S    
C55   C57   A    
C19   C24   S    
C51   H2    S    
C23   C64   S    
C71   C72   A    
C2    C56   S    
C32   C33   A    
H43   N2    S    
C3    N4    S    
C71   C90   A    
C40   C50   S    
C25   H23   S    
C76   H14   S    
H32   N8    S    
C32   C50   A    
C67   N2    S    
C52   O21   A    
C4    O15   A    
C80   C90   A    
C61   C62   A    
C58   C59   A    
H41   N12   S    
C34   C89   S    
C52   C70   S    
C10   C11   S    
H40   N12   S    
C79   C96   S    
C80   H11   S    
C26   C29   S    
C8    C10   S    
C65   C66   A    
C42   C43   A    
Cr4   O5    S    
Cr6   O9    S    
C73   C77   A    
C83   H10   S    
H16   N1    S    
C28   C90   S    
C73   C86   A    
C29   N5    S    
C4    O14   A    
H24   N6    S    
Cr4   O11   S    
Cr2   O12   S    
C38   H22   S    
C6    C91   S    
C69   N8    S    
C34   C76   S    
