data_mof_unit_26955.cif
_audit_creation_date              2012-12-11T15:21:42-0500
_audit_creation_method            fapswitch 2.2
_symmetry_space_group_name_H-M    P1
_symmetry_Int_Tables_number       1
_space_group_crystal_system       triclinic
_cell_length_a                    18.994905
_cell_length_b                    7.156523
_cell_length_c                    18.00012
_cell_angle_alpha                 90.000012
_cell_angle_beta                  108.495539
_cell_angle_gamma                 90.0
_cell_volume                      2320.50492191

loop_
_atom_site_label
_atom_site_type_symbol
_atom_type_description
_atom_site_fract_x
_atom_site_fract_y
_atom_site_fract_z
_atom_type_partial_charge
O1    O     O_R   0.562310 0.505770 0.439670 -0.541245
O2    O     O_R   0.437690 0.005770 0.560330 -0.541245
O3    O     O_R   0.411650 0.169150 0.405330 -0.499758
O4    O     O_R   0.588350 0.669150 0.594670 -0.499758
C1    C     C_R   0.383808 0.347787 0.383894 0.831530
C2    C     C_R   0.616191 0.847787 0.616106 0.831530
O5    O     O_R   0.560140 0.175610 0.430010 -0.517141
O6    O     O_R   0.439860 0.675610 0.569990 -0.517141
O7    O     O_R   0.587240 0.012100 0.585200 -0.512438
O8    O     O_R   0.412760 0.512100 0.414800 -0.512438
C3    C     C_R   0.583230 0.343794 0.417448 0.813203
C4    C     C_R   0.416770 0.843794 0.582552 0.813202
O9    O     O_3   0.508720 0.341420 0.550890 -0.358717
O10   O     O_3   0.491280 0.841420 0.449110 -0.358717
V1    V     V_3+5 0.498380 0.063930 0.490560 1.778989
V2    V     V_3+5 0.501620 0.563930 0.509440 1.778989
C5    C     C_R   0.190178 0.017750 0.876284 0.293914
C6    C     C_R   0.809822 0.517750 0.123716 0.293913
C7    C     C_R   0.124869 0.912004 0.859574 -0.187273
C8    C     C_R   0.875131 0.412004 0.140426 -0.187273
C9    C     C_R   0.106122 0.789969 0.794172 -0.139330
C10   C     C_R   0.893878 0.289970 0.205828 -0.139330
C11   C     C_R   0.159406 0.756640 0.754616 0.042670
C12   C     C_R   0.840594 0.256640 0.245384 0.042670
C13   C     C_R   0.217438 0.888831 0.764034 0.066331
C14   C     C_R   0.782562 0.388831 0.235966 0.066331
C15   C     C_R   0.228931 0.031138 0.821359 -0.022964
C16   C     C_R   0.771069 0.531138 0.178641 -0.022964
C17   C     C_R   0.157949 0.596131 0.707305 -0.039366
C18   C     C_R   0.842051 0.096132 0.292695 -0.039366
C19   C     C_R   0.205888 0.586330 0.661857 -0.089677
C20   C     C_R   0.794112 0.086331 0.338143 -0.089676
C21   C     C_R   0.259028 0.725612 0.665370 0.001187
C22   C     C_R   0.740972 0.225612 0.334630 0.001187
C23   C     C_R   0.265511 0.875881 0.717939 0.053464
C24   C     C_R   0.734489 0.375881 0.282061 0.053464
C25   C     C_R   0.320640 0.012802 0.725083 0.069894
C26   C     C_R   0.679360 0.512802 0.274916 0.069894
C27   C     C_R   0.326939 0.162564 0.776603 -0.093497
C28   C     C_R   0.673061 0.662564 0.223397 -0.093497
C29   C     C_R   0.281261 0.175445 0.824230 -0.036722
C30   C     C_R   0.718739 0.675445 0.175770 -0.036722
C31   C     C_R   0.307669 0.714109 0.619697 0.363108
C32   C     C_R   0.692331 0.214109 0.380303 0.363108
C33   C     C_R   0.363639 0.851413 0.628070 -0.121253
C34   C     C_R   0.636360 0.351413 0.371930 -0.121252
C35   C     C_R   0.368612 0.000339 0.680078 -0.160005
C36   C     C_R   0.631388 0.500339 0.319922 -0.160005
H1    H     H_    0.203655 0.463151 0.626386 0.223148
H2    H     H_    0.796345 0.963151 0.373615 0.223148
H3    H     H_    0.411026 0.106158 0.686459 0.178200
H4    H     H_    0.588974 0.606158 0.313541 0.178201
H5    H     H_    0.367037 0.271937 0.778625 0.185138
H6    H     H_    0.632963 0.771937 0.221375 0.185138
C37   C     C_3   0.752271 0.797512 0.833981 -0.311945
C38   C     C_3   0.247728 0.297512 0.166019 -0.311945
H7    H     H_    0.779565 0.663168 0.857753 0.176052
H8    H     H_    0.220435 0.163168 0.142247 0.176052
C39   C     C_3   0.687795 0.745311 0.756884 0.267921
C40   C     C_3   0.312205 0.245311 0.243116 0.267921
H9    H     H_    0.701538 0.603793 0.739865 0.196000
H10   H     H_    0.298461 0.103793 0.260135 0.196000
H11   H     H_    0.841764 0.675168 0.757875 0.198041
H12   H     H_    0.158236 0.175168 0.242124 0.198041
C41   C     C_3   0.828178 0.824145 0.742726 -0.403566
C42   C     C_3   0.171822 0.324145 0.257274 -0.403567
C43   C     C_3   0.776419 0.123070 0.784741 0.152228
C44   C     C_3   0.223581 0.623070 0.215258 0.152227
C45   C     C_3   0.811575 0.923217 0.813148 -0.255364
C46   C     C_3   0.188425 0.423217 0.186852 -0.255363
C47   C     C_3   0.687649 0.878597 0.687348 -0.298147
C48   C     C_3   0.312351 0.378597 0.312652 -0.298147
C49   C     C_3   0.760214 0.836865 0.666437 0.185100
C50   C     C_3   0.239786 0.336865 0.333563 0.185100
C51   C     C_3   0.697668 0.092998 0.718031 0.580886
C52   C     C_3   0.302332 0.592998 0.281969 0.580886
H13   H     H_    0.878224 0.883037 0.732260 0.210263
H14   H     H_    0.121776 0.383037 0.267740 0.210263
H15   H     H_    0.769725 0.952432 0.629844 0.239244
H16   H     H_    0.230274 0.452432 0.370156 0.239244
O11   O     O_R   0.087220 0.271820 0.085230 -0.546176
O12   O     O_R   0.912780 0.771820 0.914770 -0.546176
O13   O     O_R   0.939860 0.595540 0.069990 -0.533578
O14   O     O_R   0.060140 0.095540 0.930010 -0.533578
C53   C     C_R   0.921350 0.425497 0.087359 0.769518
C54   C     C_R   0.078650 0.925497 0.912641 0.769519
O15   O     O_R   0.088340 0.601930 0.094680 -0.527913
O16   O     O_R   0.911660 0.101930 0.905320 -0.527912
O17   O     O_R   0.062310 0.765410 0.939660 -0.538841
O18   O     O_R   0.937690 0.265410 0.060340 -0.538841
C55   C     C_R   0.116143 0.433312 0.117130 0.699403
C56   C     C_R   0.883857 0.933312 0.882870 0.699403
O19   O     O_3   0.991270 0.429630 0.949130 -0.384380
O20   O     O_3   0.008730 0.929630 0.050870 -0.384380
V3    V     V_3+5 0.001620 0.707150 0.009440 1.488295
V4    V     V_3+5 0.998380 0.207150 0.990560 1.488295
Cl1   Cl    Cl    0.235148 0.077125 0.974532 -0.603904
Cl2   Cl    Cl    0.764852 0.577125 0.025468 -0.603904
C57   C     C_2   0.730695 0.880852 0.901408 0.839569
H17   H     H_    0.774597 0.914540 0.955167 0.010295
O21   O     O_2   0.666914 0.915754 0.897945 -0.395207
C58   C     C_2   0.269305 0.380852 0.098592 0.839568
H18   H     H_    0.225403 0.414540 0.044833 0.010295
O22   O     O_2   0.333086 0.415753 0.102055 -0.395207
Cl3   Cl    Cl    0.597889 0.703025 0.767602 -0.432828
Cl4   Cl    Cl    0.402111 0.203025 0.232398 -0.432827
Cl5   Cl    Cl    0.756566 0.638082 0.605674 -0.470133
Cl6   Cl    Cl    0.243434 0.138082 0.394326 -0.470133
C59   C     C_2   0.832196 0.242112 0.758810 0.503749
H19   H     H_    0.860341 0.358570 0.794676 0.080249
O23   O     O_2   0.848598 0.208307 0.699895 -0.489589
C60   C     C_2   0.167804 0.742112 0.241190 0.503750
H20   H     H_    0.139659 0.858570 0.205324 0.080249
O24   O     O_2   0.151402 0.708307 0.300105 -0.489589
Cl7   Cl    Cl    0.764965 0.262120 0.864654 -0.579280
Cl8   Cl    Cl    0.235035 0.762120 0.135346 -0.579281
Cl9   Cl    Cl    0.619381 0.152939 0.749900 -0.413806
Cl10  Cl    Cl    0.380619 0.652939 0.250101 -0.413806
Cl11  Cl    Cl    0.690124 0.262252 0.641113 -0.517545
Cl12  Cl    Cl    0.309876 0.762252 0.358887 -0.517545
C61   C     C_2   0.028653 0.718402 0.762737 0.411555
H21   H     H_    0.995751 0.692520 0.800987 0.027248
O25   O     O_2   0.999326 0.695835 0.692410 -0.455048
C62   C     C_2   0.971347 0.218402 0.237263 0.411555
H22   H     H_    0.004249 0.192520 0.199013 0.027248
O26   O     O_2   0.000674 0.195836 0.307590 -0.455048
C63   C     C_2   0.115493 0.424824 0.713005 0.502665
H23   H     H_    0.097043 0.402167 0.763463 0.001509
O27   O     O_2   0.102186 0.304437 0.662327 -0.473925
C64   C     C_2   0.884507 0.924825 0.286995 0.502665
H24   H     H_    0.902957 0.902167 0.236537 0.001509
O28   O     O_2   0.897814 0.804437 0.337673 -0.473925
Cl13  Cl    Cl    0.295298 0.534764 0.548610 -0.582893
Cl14  Cl    Cl    0.704702 0.034765 0.451389 -0.582893
C65   C     C_2   0.283304 0.350912 0.869181 0.520523
H25   H     H_    0.237084 0.388499 0.889304 0.038638
O29   O     O_2   0.335836 0.458299 0.882581 -0.466273
C66   C     C_2   0.716696 0.850912 0.130819 0.520523
H26   H     H_    0.762916 0.888499 0.110696 0.038638
O30   O     O_2   0.664164 0.958299 0.117419 -0.466273

loop_
_geom_bond_atom_site_label_1
_geom_bond_atom_site_label_2
_ccdc_geom_bond_type
C47   C51   S    
H11   C41   S    
O4    V2    S    
O15   C55   A    
C30   C66   S    
C46   C55   S    
O1    C3    A    
C48   C52   S    
C7    C54   S    
O2    C4    A    
C2    O7    A    
C60   O24   D    
C41   C49   S    
C65   H25   S    
C27   C29   A    
C27   H5    S    
O5    C3    A    
C39   Cl3   S    
C11   C17   A    
C23   C25   A    
C12   C14   A    
C1    C48   S    
C37   C39   S    
C59   O23   D    
O14   V4    S    
C49   Cl5   S    
C40   C48   S    
C42   C50   S    
O12   C56   A    
C6    C8    A    
C40   H10   S    
C44   C60   S    
C31   Cl13  S    
C43   Cl7   S    
C20   C22   A    
C43   C59   S    
O16   C56   A    
C51   Cl9   S    
C19   C21   A    
C25   C35   A    
C45   C56   S    
C26   C36   A    
O5    V1    S    
O6    V2    S    
C50   H16   S    
O20   V3    S    
C19   H1    S    
C60   H20   S    
C32   C34   A    
C33   C35   A    
C9    C11   A    
C32   Cl14  S    
C2    C47   S    
C42   H14   S    
C34   C36   A    
C39   H9    S    
C41   H13   S    
C10   C62   S    
C5    C15   A    
C6    C16   A    
C48   C50   S    
C47   C49   S    
O11   V4    S    
C5    C7    A    
C35   H3    S    
C18   C64   S    
C52   Cl10  S    
C38   C40   S    
O15   V3    S    
O16   V4    S    
C43   C45   S    
C21   C31   A    
O17   V3    S    
C64   O28   D    
C63   O27   D    
C18   C20   A    
C15   C29   A    
C28   C30   A    
C57   H17   S    
O6    C4    A    
O13   V3    S    
C8    C53   S    
C49   H15   S    
C51   Cl11  S    
O1    V2    S    
C52   Cl12  S    
C58   O22   D    
O2    V1    S    
C31   C33   A    
C20   H2    S    
C61   H21   S    
C37   C45   S    
C66   O30   D    
C44   Cl8   S    
C14   C24   A    
C57   O21   D    
C13   C23   A    
O19   V4    S    
C28   H6    S    
C17   C63   S    
C10   C12   A    
O4    C2    A    
C44   C52   S    
C63   H23   S    
C29   C65   S    
O3    V1    S    
C62   O26   D    
C65   O29   D    
C22   C32   A    
O12   V3    S    
O13   C53   A    
C14   C16   A    
C8    C10   A    
C4    C33   S    
O3    C1    A    
C54   O17   A    
C53   O18   A    
O18   V4    S    
C40   Cl4   S    
C13   C15   A    
C38   C46   S    
C37   H7    S    
C64   H24   S    
O7    V1    S    
C38   C58   S    
C1    O8    A    
C25   C27   A    
H12   C42   S    
O8    V2    S    
C59   H19   S    
C24   C26   A    
C26   C28   A    
C42   C46   S    
C41   C45   S    
C16   C30   A    
C21   C23   A    
C38   H8    S    
C22   C24   A    
C11   C13   A    
C9    C61   S    
C58   H18   S    
C12   C18   A    
C61   O25   D    
C66   H26   S    
C50   Cl6   S    
O11   C55   A    
C36   H4    S    
C43   C51   S    
C17   C19   A    
O9    V2    S    
C37   C57   S    
C44   C46   S    
O10   V1    S    
O14   C54   A    
C3    C34   S    
C6    Cl2   S    
C5    Cl1   S    
C39   C47   S    
C62   H22   S    
C7    C9    A    
